MODEL 1
REMARK VINA RESULT:      -7.8      0.000      0.000
REMARK  7 active torsions:
REMARK  status: ('A' for Active; 'I' for Inactive)
REMARK    1  A    between atoms: O_2  and  C_3 
REMARK    2  A    between atoms: C_4  and  O_5 
REMARK    3  A    between atoms: O_5  and  C_6 
REMARK       I    between atoms: C_6  and  N_7 
REMARK    4  A    between atoms: C_14  and  O_15 
REMARK    5  A    between atoms: C_18  and  C_19 
REMARK    6  A    between atoms: C_23  and  N_24 
REMARK    7  A    between atoms: C_31  and  C_32 
ROOT
HETATM    1  C   UNL     1      -9.179   5.231 -31.498  1.00  0.00     0.105 C 
HETATM    2  C   UNL     1      -8.492   6.391 -30.778  1.00  0.00     0.067 C 
HETATM    3  C   UNL     1      -8.185   6.196 -29.303  1.00  0.00     0.020 C 
HETATM    4  N   UNL     1      -7.929   6.035 -28.079  1.00  0.00    -0.096 N 
HETATM    5  C   UNL     1      -8.324   7.621 -31.334  1.00  0.00     0.139 C 
HETATM    6  O   UNL     1      -8.806   7.921 -32.622  1.00  0.00    -0.279 OA
HETATM    7  C   UNL     1      -9.590   7.004 -33.177  1.00  0.00     0.175 A 
HETATM    8  C   UNL     1      -9.856   5.734 -32.729  1.00  0.00     0.040 A 
HETATM    9  N   UNL     1     -10.284   7.170 -34.328  1.00  0.00    -0.256 N 
HETATM   10  H   UNL     1     -10.315   7.985 -34.933  1.00  0.00     0.191 HD
HETATM   11  N   UNL     1     -11.015   6.087 -34.654  1.00  0.00    -0.172 NA
HETATM   12  C   UNL     1     -10.790   5.206 -33.659  1.00  0.00     0.099 A 
ENDROOT
BRANCH   1  13
HETATM   13  C   UNL     1      -8.179   4.156 -31.923  1.00  0.00    -0.039 A 
HETATM   14  C   UNL     1      -7.292   4.443 -32.975  1.00  0.00     0.048 A 
HETATM   15  C   UNL     1      -6.431   3.459 -33.463  1.00  0.00     0.105 A 
HETATM   16  C   UNL     1      -6.470   2.169 -32.932  1.00  0.00     0.147 A 
HETATM   17  C   UNL     1      -7.283   1.868 -31.834  1.00  0.00     0.105 A 
HETATM   18  C   UNL     1      -8.159   2.854 -31.367  1.00  0.00     0.048 A 
BRANCH  15  19
HETATM   19  O   UNL     1      -5.595   3.735 -34.514  1.00  0.00    -0.353 OA
HETATM   20  C   UNL     1      -4.885   4.950 -34.274  1.00  0.00     0.210 C 
ENDBRANCH  15  19
BRANCH  16  21
HETATM   21  O   UNL     1      -5.637   1.195 -33.500  1.00  0.00    -0.256 OA
BRANCH  21  22
HETATM   22  C   UNL     1      -6.310   0.320 -34.348  1.00  0.00     0.368 C 
HETATM   23  N   UNL     1      -5.862  -0.988 -34.222  1.00  0.00    -0.324 N 
HETATM   24  C   UNL     1      -6.712  -2.067 -34.716  1.00  0.00     0.154 C 
HETATM   25  C   UNL     1      -4.843  -1.390 -33.256  1.00  0.00     0.154 C 
HETATM   26  C   UNL     1      -5.893  -3.297 -35.112  1.00  0.00     0.187 C 
HETATM   27  O   UNL     1      -5.012  -3.699 -34.052  1.00  0.00    -0.388 OA
HETATM   28  C   UNL     1      -4.097  -2.639 -33.735  1.00  0.00     0.187 C 
HETATM   29  O   UNL     1      -7.203   0.638 -35.130  1.00  0.00    -0.238 OA
ENDBRANCH  21  22
ENDBRANCH  16  21
BRANCH  17  30
HETATM   30  O   UNL     1      -7.153   0.611 -31.305  1.00  0.00    -0.353 OA
HETATM   31  C   UNL     1      -6.259   0.449 -30.212  1.00  0.00     0.210 C 
ENDBRANCH  17  30
ENDBRANCH   1  13
BRANCH   5  32
HETATM   32  N   UNL     1      -7.737   8.705 -30.724  1.00  0.00    -0.282 NA
HETATM   33  H   UNL     1      -8.295   9.195 -30.030  1.00  0.00     0.126 HD
HETATM   34  H   UNL     1      -7.267   9.322 -31.380  1.00  0.00     0.126 HD
ENDBRANCH   5  32
BRANCH  12  35
HETATM   35  C   UNL     1     -11.455   3.907 -33.654  1.00  0.00    -0.005 A 
HETATM   36  C   UNL     1     -10.778   2.772 -34.122  1.00  0.00     0.015 A 
HETATM   37  C   UNL     1     -11.410   1.526 -34.142  1.00  0.00     0.020 A 
HETATM   38  C   UNL     1     -12.725   1.413 -33.699  1.00  0.00     0.011 A 
HETATM   39 BR   UNL     1     -13.588  -0.269 -33.735  1.00  0.00    -0.051 Br
HETATM   40  C   UNL     1     -13.415   2.534 -33.238  1.00  0.00     0.020 A 
HETATM   41  C   UNL     1     -12.781   3.779 -33.218  1.00  0.00     0.015 A 
ENDBRANCH  12  35
TORSDOF 7
ENDMDL
MODEL 2
REMARK VINA RESULT:      -7.8      3.488      7.211
REMARK  7 active torsions:
REMARK  status: ('A' for Active; 'I' for Inactive)
REMARK    1  A    between atoms: O_2  and  C_3 
REMARK    2  A    between atoms: C_4  and  O_5 
REMARK    3  A    between atoms: O_5  and  C_6 
REMARK       I    between atoms: C_6  and  N_7 
REMARK    4  A    between atoms: C_14  and  O_15 
REMARK    5  A    between atoms: C_18  and  C_19 
REMARK    6  A    between atoms: C_23  and  N_24 
REMARK    7  A    between atoms: C_31  and  C_32 
ROOT
HETATM    1  C   UNL     1      -4.467   2.389 -33.362  1.00  0.00     0.105 C 
HETATM    2  C   UNL     1      -3.760   3.729 -33.164  1.00  0.00     0.067 C 
HETATM    3  C   UNL     1      -3.792   4.700 -34.333  1.00  0.00     0.020 C 
HETATM    4  N   UNL     1      -3.818   5.507 -35.301  1.00  0.00    -0.096 N 
HETATM    5  C   UNL     1      -2.967   4.006 -32.094  1.00  0.00     0.139 C 
HETATM    6  O   UNL     1      -2.717   3.046 -31.094  1.00  0.00    -0.279 OA
HETATM    7  C   UNL     1      -3.139   1.814 -31.353  1.00  0.00     0.175 A 
HETATM    8  C   UNL     1      -3.934   1.392 -32.390  1.00  0.00     0.040 A 
HETATM    9  N   UNL     1      -2.854   0.722 -30.604  1.00  0.00    -0.256 N 
HETATM   10  H   UNL     1      -2.298   0.668 -29.756  1.00  0.00     0.191 HD
HETATM   11  N   UNL     1      -3.395  -0.405 -31.103  1.00  0.00    -0.172 NA
HETATM   12  C   UNL     1      -4.034  -0.015 -32.224  1.00  0.00     0.099 A 
ENDROOT
BRANCH   1  13
HETATM   13  C   UNL     1      -5.973   2.504 -33.133  1.00  0.00    -0.039 A 
HETATM   14  C   UNL     1      -6.457   2.462 -31.813  1.00  0.00     0.048 A 
HETATM   15  C   UNL     1      -7.829   2.461 -31.561  1.00  0.00     0.105 A 
HETATM   16  C   UNL     1      -8.735   2.467 -32.622  1.00  0.00     0.147 A 
HETATM   17  C   UNL     1      -8.293   2.588 -33.944  1.00  0.00     0.105 A 
HETATM   18  C   UNL     1      -6.916   2.564 -34.188  1.00  0.00     0.048 A 
BRANCH  15  19
HETATM   19  O   UNL     1      -8.293   2.383 -30.274  1.00  0.00    -0.353 OA
HETATM   20  C   UNL     1      -7.852   3.512 -29.520  1.00  0.00     0.210 C 
ENDBRANCH  15  19
BRANCH  16  21
HETATM   21  O   UNL     1     -10.103   2.397 -32.324  1.00  0.00    -0.256 OA
BRANCH  21  22
HETATM   22  C   UNL     1     -10.693   1.200 -32.722  1.00  0.00     0.368 C 
HETATM   23  N   UNL     1     -12.018   1.364 -33.103  1.00  0.00    -0.324 N 
HETATM   24  C   UNL     1     -12.645   0.326 -33.915  1.00  0.00     0.154 C 
HETATM   25  C   UNL     1     -12.681   2.666 -33.134  1.00  0.00     0.154 C 
HETATM   26  C   UNL     1     -14.161   0.287 -33.713  1.00  0.00     0.187 C 
HETATM   27  O   UNL     1     -14.744   1.587 -33.892  1.00  0.00    -0.388 OA
HETATM   28  C   UNL     1     -14.193   2.515 -32.945  1.00  0.00     0.187 C 
HETATM   29  O   UNL     1     -10.131   0.107 -32.747  1.00  0.00    -0.238 OA
ENDBRANCH  21  22
ENDBRANCH  16  21
BRANCH  17  30
HETATM   30  O   UNL     1      -9.263   2.716 -34.903  1.00  0.00    -0.353 OA
HETATM   31  C   UNL     1      -9.853   3.998 -35.071  1.00  0.00     0.210 C 
ENDBRANCH  17  30
ENDBRANCH   1  13
BRANCH   5  32
HETATM   32  N   UNL     1      -2.289   5.182 -31.879  1.00  0.00    -0.282 NA
HETATM   33  H   UNL     1      -1.340   5.235 -32.240  1.00  0.00     0.126 HD
HETATM   34  H   UNL     1      -2.382   5.524 -30.927  1.00  0.00     0.126 HD
ENDBRANCH   5  32
BRANCH  12  35
HETATM   35  C   UNL     1      -4.721  -0.991 -33.065  1.00  0.00    -0.005 A 
HETATM   36  C   UNL     1      -6.119  -0.970 -33.163  1.00  0.00     0.015 A 
HETATM   37  C   UNL     1      -6.790  -1.911 -33.948  1.00  0.00     0.020 A 
HETATM   38  C   UNL     1      -6.064  -2.882 -34.632  1.00  0.00     0.011 A 
HETATM   39 BR   UNL     1      -6.969  -4.165 -35.685  1.00  0.00    -0.051 Br
HETATM   40  C   UNL     1      -4.673  -2.922 -34.537  1.00  0.00     0.020 A 
HETATM   41  C   UNL     1      -4.003  -1.979 -33.752  1.00  0.00     0.015 A 
ENDBRANCH  12  35
TORSDOF 7
ENDMDL
MODEL 3
REMARK VINA RESULT:      -7.7      1.034      2.318
REMARK  7 active torsions:
REMARK  status: ('A' for Active; 'I' for Inactive)
REMARK    1  A    between atoms: O_2  and  C_3 
REMARK    2  A    between atoms: C_4  and  O_5 
REMARK    3  A    between atoms: O_5  and  C_6 
REMARK       I    between atoms: C_6  and  N_7 
REMARK    4  A    between atoms: C_14  and  O_15 
REMARK    5  A    between atoms: C_18  and  C_19 
REMARK    6  A    between atoms: C_23  and  N_24 
REMARK    7  A    between atoms: C_31  and  C_32 
ROOT
HETATM    1  C   UNL     1      -9.932   5.460 -32.207  1.00  0.00     0.105 C 
HETATM    2  C   UNL     1      -9.266   6.679 -31.570  1.00  0.00     0.067 C 
HETATM    3  C   UNL     1      -8.867   6.557 -30.109  1.00  0.00     0.020 C 
HETATM    4  N   UNL     1      -8.535   6.456 -28.896  1.00  0.00    -0.096 N 
HETATM    5  C   UNL     1      -9.192   7.894 -32.178  1.00  0.00     0.139 C 
HETATM    6  O   UNL     1      -9.759   8.120 -33.447  1.00  0.00    -0.279 OA
HETATM    7  C   UNL     1     -10.526   7.144 -33.922  1.00  0.00     0.175 A 
HETATM    8  C   UNL     1     -10.701   5.881 -33.414  1.00  0.00     0.040 A 
HETATM    9  N   UNL     1     -11.290   7.231 -35.036  1.00  0.00    -0.256 N 
HETATM   10  H   UNL     1     -11.396   8.019 -35.667  1.00  0.00     0.191 HD
HETATM   11  N   UNL     1     -11.982   6.102 -35.280  1.00  0.00    -0.172 NA
HETATM   12  C   UNL     1     -11.657   5.272 -34.269  1.00  0.00     0.099 A 
ENDROOT
BRANCH   1  13
HETATM   13  C   UNL     1      -8.903   4.420 -32.650  1.00  0.00    -0.039 A 
HETATM   14  C   UNL     1      -9.024   3.107 -32.162  1.00  0.00     0.048 A 
HETATM   15  C   UNL     1      -8.053   2.149 -32.457  1.00  0.00     0.105 A 
HETATM   16  C   UNL     1      -6.932   2.499 -33.212  1.00  0.00     0.147 A 
HETATM   17  C   UNL     1      -6.816   3.773 -33.777  1.00  0.00     0.105 A 
HETATM   18  C   UNL     1      -7.782   4.732 -33.457  1.00  0.00     0.048 A 
BRANCH  15  19
HETATM   19  O   UNL     1      -8.159   0.881 -31.949  1.00  0.00    -0.353 OA
HETATM   20  C   UNL     1      -9.436   0.327 -32.264  1.00  0.00     0.210 C 
ENDBRANCH  15  19
BRANCH  16  21
HETATM   21  O   UNL     1      -5.948   1.524 -33.425  1.00  0.00    -0.256 OA
BRANCH  21  22
HETATM   22  C   UNL     1      -6.307   0.578 -34.383  1.00  0.00     0.368 C 
HETATM   23  N   UNL     1      -5.738  -0.664 -34.140  1.00  0.00    -0.324 N 
HETATM   24  C   UNL     1      -6.319  -1.837 -34.786  1.00  0.00     0.154 C 
HETATM   25  C   UNL     1      -4.910  -0.943 -32.969  1.00  0.00     0.154 C 
HETATM   26  C   UNL     1      -5.286  -2.949 -34.974  1.00  0.00     0.187 C 
HETATM   27  O   UNL     1      -4.613  -3.248 -33.741  1.00  0.00    -0.388 OA
HETATM   28  C   UNL     1      -3.928  -2.084 -33.253  1.00  0.00     0.187 C 
HETATM   29  O   UNL     1      -7.043   0.789 -35.345  1.00  0.00    -0.238 OA
ENDBRANCH  21  22
ENDBRANCH  16  21
BRANCH  17  30
HETATM   30  O   UNL     1      -5.745   3.977 -34.607  1.00  0.00    -0.353 OA
HETATM   31  C   UNL     1      -4.859   5.041 -34.285  1.00  0.00     0.210 C 
ENDBRANCH  17  30
ENDBRANCH   1  13
BRANCH   5  32
HETATM   32  N   UNL     1      -8.628   9.028 -31.642  1.00  0.00    -0.282 NA
HETATM   33  H   UNL     1      -8.161   9.655 -32.290  1.00  0.00     0.126 HD
HETATM   34  H   UNL     1      -8.096   8.843 -30.797  1.00  0.00     0.126 HD
ENDBRANCH   5  32
BRANCH  12  35
HETATM   35  C   UNL     1     -12.253   3.943 -34.179  1.00  0.00    -0.005 A 
HETATM   36  C   UNL     1     -13.151   3.647 -33.143  1.00  0.00     0.015 A 
HETATM   37  C   UNL     1     -13.712   2.372 -33.033  1.00  0.00     0.020 A 
HETATM   38  C   UNL     1     -13.372   1.387 -33.957  1.00  0.00     0.011 A 
HETATM   39 BR   UNL     1     -14.120  -0.342 -33.804  1.00  0.00    -0.051 Br
HETATM   40  C   UNL     1     -12.475   1.663 -34.987  1.00  0.00     0.020 A 
HETATM   41  C   UNL     1     -11.914   2.939 -35.097  1.00  0.00     0.015 A 
ENDBRANCH  12  35
TORSDOF 7
ENDMDL
MODEL 4
REMARK VINA RESULT:      -7.5      5.694     10.403
REMARK  7 active torsions:
REMARK  status: ('A' for Active; 'I' for Inactive)
REMARK    1  A    between atoms: O_2  and  C_3 
REMARK    2  A    between atoms: C_4  and  O_5 
REMARK    3  A    between atoms: O_5  and  C_6 
REMARK       I    between atoms: C_6  and  N_7 
REMARK    4  A    between atoms: C_14  and  O_15 
REMARK    5  A    between atoms: C_18  and  C_19 
REMARK    6  A    between atoms: C_23  and  N_24 
REMARK    7  A    between atoms: C_31  and  C_32 
ROOT
HETATM    1  C   UNL     1      -3.831   5.458 -31.568  1.00  0.00     0.105 C 
HETATM    2  C   UNL     1      -4.754   4.611 -32.443  1.00  0.00     0.067 C 
HETATM    3  C   UNL     1      -5.401   3.402 -31.789  1.00  0.00     0.020 C 
HETATM    4  N   UNL     1      -5.939   2.398 -31.248  1.00  0.00    -0.096 N 
HETATM    5  C   UNL     1      -4.867   4.776 -33.789  1.00  0.00     0.139 C 
HETATM    6  O   UNL     1      -4.104   5.737 -34.481  1.00  0.00    -0.279 OA
HETATM    7  C   UNL     1      -3.145   6.331 -33.780  1.00  0.00     0.175 A 
HETATM    8  C   UNL     1      -2.910   6.252 -32.430  1.00  0.00     0.040 A 
HETATM    9  N   UNL     1      -2.202   7.155 -34.298  1.00  0.00    -0.256 N 
HETATM   10  H   UNL     1      -2.081   7.445 -35.263  1.00  0.00     0.191 HD
HETATM   11  N   UNL     1      -1.340   7.605 -33.367  1.00  0.00    -0.172 NA
HETATM   12  C   UNL     1      -1.740   7.029 -32.217  1.00  0.00     0.099 A 
ENDROOT
BRANCH   1  13
HETATM   13  C   UNL     1      -4.618   6.438 -30.699  1.00  0.00    -0.039 A 
HETATM   14  C   UNL     1      -4.410   6.420 -29.309  1.00  0.00     0.048 A 
HETATM   15  C   UNL     1      -5.178   7.225 -28.467  1.00  0.00     0.105 A 
HETATM   16  C   UNL     1      -6.185   8.032 -28.998  1.00  0.00     0.147 A 
HETATM   17  C   UNL     1      -6.369   8.135 -30.381  1.00  0.00     0.105 A 
HETATM   18  C   UNL     1      -5.611   7.307 -31.214  1.00  0.00     0.048 A 
BRANCH  15  19
HETATM   19  O   UNL     1      -4.994   7.175 -27.109  1.00  0.00    -0.353 OA
HETATM   20  C   UNL     1      -3.603   7.236 -26.796  1.00  0.00     0.210 C 
ENDBRANCH  15  19
BRANCH  16  21
HETATM   21  O   UNL     1      -6.977   8.772 -28.109  1.00  0.00    -0.256 OA
BRANCH  21  22
HETATM   22  C   UNL     1      -8.111   8.087 -27.679  1.00  0.00     0.368 C 
HETATM   23  N   UNL     1      -9.035   8.923 -27.068  1.00  0.00    -0.324 N 
HETATM   24  C   UNL     1     -10.413   8.462 -26.935  1.00  0.00     0.154 C 
HETATM   25  C   UNL     1      -8.847  10.368 -26.956  1.00  0.00     0.154 C 
HETATM   26  C   UNL     1     -11.117   9.117 -25.745  1.00  0.00     0.187 C 
HETATM   27  O   UNL     1     -10.991  10.547 -25.787  1.00  0.00    -0.388 OA
HETATM   28  C   UNL     1      -9.607  10.926 -25.749  1.00  0.00     0.187 C 
HETATM   29  O   UNL     1      -8.302   6.880 -27.812  1.00  0.00    -0.238 OA
ENDBRANCH  21  22
ENDBRANCH  16  21
BRANCH  17  30
HETATM   30  O   UNL     1      -7.295   9.050 -30.807  1.00  0.00    -0.353 OA
HETATM   31  C   UNL     1      -8.487   8.551 -31.398  1.00  0.00     0.210 C 
ENDBRANCH  17  30
ENDBRANCH   1  13
BRANCH   5  32
HETATM   32  N   UNL     1      -5.660   4.029 -34.627  1.00  0.00    -0.282 NA
HETATM   33  H   UNL     1      -6.134   4.529 -35.374  1.00  0.00     0.126 HD
HETATM   34  H   UNL     1      -6.259   3.378 -34.128  1.00  0.00     0.126 HD
ENDBRANCH   5  32
BRANCH  12  35
HETATM   35  C   UNL     1      -1.007   7.262 -30.976  1.00  0.00    -0.005 A 
HETATM   36  C   UNL     1       0.107   6.471 -30.661  1.00  0.00     0.015 A 
HETATM   37  C   UNL     1       0.804   6.669 -29.467  1.00  0.00     0.020 A 
HETATM   38  C   UNL     1       0.385   7.656 -28.580  1.00  0.00     0.011 A 
HETATM   39 BR   UNL     1       1.318   7.920 -26.957  1.00  0.00    -0.051 Br
HETATM   40  C   UNL     1      -0.726   8.446 -28.874  1.00  0.00     0.020 A 
HETATM   41  C   UNL     1      -1.423   8.247 -30.070  1.00  0.00     0.015 A 
ENDBRANCH  12  35
TORSDOF 7
ENDMDL
MODEL 5
REMARK VINA RESULT:      -7.4     16.661     19.518
REMARK  7 active torsions:
REMARK  status: ('A' for Active; 'I' for Inactive)
REMARK    1  A    between atoms: O_2  and  C_3 
REMARK    2  A    between atoms: C_4  and  O_5 
REMARK    3  A    between atoms: O_5  and  C_6 
REMARK       I    between atoms: C_6  and  N_7 
REMARK    4  A    between atoms: C_14  and  O_15 
REMARK    5  A    between atoms: C_18  and  C_19 
REMARK    6  A    between atoms: C_23  and  N_24 
REMARK    7  A    between atoms: C_31  and  C_32 
ROOT
HETATM    1  C   UNL     1      -7.184 -14.870 -39.476  1.00  0.00     0.105 C 
HETATM    2  C   UNL     1      -8.690 -15.089 -39.617  1.00  0.00     0.067 C 
HETATM    3  C   UNL     1      -9.184 -16.524 -39.545  1.00  0.00     0.020 C 
HETATM    4  N   UNL     1      -9.594 -17.715 -39.484  1.00  0.00    -0.096 N 
HETATM    5  C   UNL     1      -9.557 -14.107 -39.984  1.00  0.00     0.139 C 
HETATM    6  O   UNL     1      -9.112 -12.807 -40.292  1.00  0.00    -0.279 OA
HETATM    7  C   UNL     1      -7.797 -12.651 -40.387  1.00  0.00     0.175 A 
HETATM    8  C   UNL     1      -6.811 -13.550 -40.061  1.00  0.00     0.040 A 
HETATM    9  N   UNL     1      -7.179 -11.532 -40.833  1.00  0.00    -0.256 N 
HETATM   10  H   UNL     1      -7.599 -10.664 -41.151  1.00  0.00     0.191 HD
HETATM   11  N   UNL     1      -5.837 -11.649 -40.844  1.00  0.00    -0.172 NA
HETATM   12  C   UNL     1      -5.596 -12.900 -40.405  1.00  0.00     0.099 A 
ENDROOT
BRANCH   1  13
HETATM   13  C   UNL     1      -6.746 -14.871 -38.011  1.00  0.00    -0.039 A 
HETATM   14  C   UNL     1      -5.672 -15.695 -37.633  1.00  0.00     0.048 A 
HETATM   15  C   UNL     1      -5.303 -15.805 -36.291  1.00  0.00     0.105 A 
HETATM   16  C   UNL     1      -6.022 -15.123 -35.309  1.00  0.00     0.147 A 
HETATM   17  C   UNL     1      -7.046 -14.235 -35.655  1.00  0.00     0.105 A 
HETATM   18  C   UNL     1      -7.424 -14.149 -36.999  1.00  0.00     0.048 A 
BRANCH  15  19
HETATM   19  O   UNL     1      -4.278 -16.638 -35.925  1.00  0.00    -0.353 OA
HETATM   20  C   UNL     1      -3.087 -16.298 -36.635  1.00  0.00     0.210 C 
ENDBRANCH  15  19
BRANCH  16  21
HETATM   21  O   UNL     1      -5.660 -15.318 -33.969  1.00  0.00    -0.256 OA
BRANCH  21  22
HETATM   22  C   UNL     1      -6.367 -16.345 -33.350  1.00  0.00     0.368 C 
HETATM   23  N   UNL     1      -6.166 -16.372 -31.976  1.00  0.00    -0.324 N 
HETATM   24  C   UNL     1      -7.123 -17.097 -31.145  1.00  0.00     0.154 C 
HETATM   25  C   UNL     1      -5.349 -15.386 -31.273  1.00  0.00     0.154 C 
HETATM   26  C   UNL     1      -6.483 -17.593 -29.848  1.00  0.00     0.187 C 
HETATM   27  O   UNL     1      -5.813 -16.527 -29.156  1.00  0.00    -0.388 OA
HETATM   28  C   UNL     1      -4.776 -15.974 -29.980  1.00  0.00     0.187 C 
HETATM   29  O   UNL     1      -7.097 -17.149 -33.925  1.00  0.00    -0.238 OA
ENDBRANCH  21  22
ENDBRANCH  16  21
BRANCH  17  30
HETATM   30  O   UNL     1      -7.603 -13.517 -34.630  1.00  0.00    -0.353 OA
HETATM   31  C   UNL     1      -6.806 -12.507 -34.028  1.00  0.00     0.210 C 
ENDBRANCH  17  30
ENDBRANCH   1  13
BRANCH   5  32
HETATM   32  N   UNL     1     -10.914 -14.255 -40.150  1.00  0.00    -0.282 NA
HETATM   33  H   UNL     1     -11.483 -14.221 -39.309  1.00  0.00     0.126 HD
HETATM   34  H   UNL     1     -11.156 -15.018 -40.775  1.00  0.00     0.126 HD
ENDBRANCH   5  32
BRANCH  12  35
HETATM   35  C   UNL     1      -4.229 -13.405 -40.315  1.00  0.00    -0.005 A 
HETATM   36  C   UNL     1      -3.469 -13.167 -39.162  1.00  0.00     0.015 A 
HETATM   37  C   UNL     1      -2.153 -13.627 -39.071  1.00  0.00     0.020 A 
HETATM   38  C   UNL     1      -1.591 -14.321 -40.139  1.00  0.00     0.011 A 
HETATM   39 BR   UNL     1       0.194 -14.935 -40.026  1.00  0.00    -0.051 Br
HETATM   40  C   UNL     1      -2.331 -14.559 -41.297  1.00  0.00     0.020 A 
HETATM   41  C   UNL     1      -3.648 -14.099 -41.385  1.00  0.00     0.015 A 
ENDBRANCH  12  35
TORSDOF 7
ENDMDL
MODEL 6
REMARK VINA RESULT:      -7.3      3.125      7.220
REMARK  7 active torsions:
REMARK  status: ('A' for Active; 'I' for Inactive)
REMARK    1  A    between atoms: O_2  and  C_3 
REMARK    2  A    between atoms: C_4  and  O_5 
REMARK    3  A    between atoms: O_5  and  C_6 
REMARK       I    between atoms: C_6  and  N_7 
REMARK    4  A    between atoms: C_14  and  O_15 
REMARK    5  A    between atoms: C_18  and  C_19 
REMARK    6  A    between atoms: C_23  and  N_24 
REMARK    7  A    between atoms: C_31  and  C_32 
ROOT
HETATM    1  C   UNL     1      -5.453   2.847 -32.552  1.00  0.00     0.105 C 
HETATM    2  C   UNL     1      -4.976   4.196 -32.014  1.00  0.00     0.067 C 
HETATM    3  C   UNL     1      -4.317   5.137 -33.008  1.00  0.00     0.020 C 
HETATM    4  N   UNL     1      -3.771   5.919 -33.833  1.00  0.00    -0.096 N 
HETATM    5  C   UNL     1      -4.943   4.503 -30.689  1.00  0.00     0.139 C 
HETATM    6  O   UNL     1      -5.326   3.571 -29.706  1.00  0.00    -0.279 OA
HETATM    7  C   UNL     1      -5.535   2.330 -30.132  1.00  0.00     0.175 A 
HETATM    8  C   UNL     1      -5.589   1.877 -31.427  1.00  0.00     0.040 A 
HETATM    9  N   UNL     1      -5.745   1.259 -29.330  1.00  0.00    -0.256 N 
HETATM   10  H   UNL     1      -5.781   1.229 -28.316  1.00  0.00     0.191 HD
HETATM   11  N   UNL     1      -5.911   0.117 -30.023  1.00  0.00    -0.172 NA
HETATM   12  C   UNL     1      -5.781   0.475 -31.315  1.00  0.00     0.099 A 
ENDROOT
BRANCH   1  13
HETATM   13  C   UNL     1      -6.814   2.960 -33.237  1.00  0.00    -0.039 A 
HETATM   14  C   UNL     1      -7.273   4.235 -33.613  1.00  0.00     0.048 A 
HETATM   15  C   UNL     1      -8.551   4.398 -34.149  1.00  0.00     0.105 A 
HETATM   16  C   UNL     1      -9.399   3.298 -34.283  1.00  0.00     0.147 A 
HETATM   17  C   UNL     1      -8.951   2.005 -33.992  1.00  0.00     0.105 A 
HETATM   18  C   UNL     1      -7.677   1.854 -33.434  1.00  0.00     0.048 A 
BRANCH  15  19
HETATM   19  O   UNL     1      -9.004   5.648 -34.480  1.00  0.00    -0.353 OA
HETATM   20  C   UNL     1      -9.177   6.438 -33.304  1.00  0.00     0.210 C 
ENDBRANCH  15  19
BRANCH  16  21
HETATM   21  O   UNL     1     -10.698   3.520 -34.761  1.00  0.00    -0.256 OA
BRANCH  21  22
HETATM   22  C   UNL     1     -11.593   3.908 -33.767  1.00  0.00     0.368 C 
HETATM   23  N   UNL     1     -12.449   4.916 -34.190  1.00  0.00    -0.324 N 
HETATM   24  C   UNL     1     -13.680   5.146 -33.441  1.00  0.00     0.154 C 
HETATM   25  C   UNL     1     -12.436   5.451 -35.550  1.00  0.00     0.154 C 
HETATM   26  C   UNL     1     -14.161   6.592 -33.573  1.00  0.00     0.187 C 
HETATM   27  O   UNL     1     -14.244   6.990 -34.951  1.00  0.00    -0.388 OA
HETATM   28  C   UNL     1     -12.955   6.891 -35.575  1.00  0.00     0.187 C 
HETATM   29  O   UNL     1     -11.645   3.431 -32.636  1.00  0.00    -0.238 OA
ENDBRANCH  21  22
ENDBRANCH  16  21
BRANCH  17  30
HETATM   30  O   UNL     1      -9.814   0.981 -34.280  1.00  0.00    -0.353 OA
HETATM   31  C   UNL     1     -10.437   0.322 -33.186  1.00  0.00     0.210 C 
ENDBRANCH  17  30
ENDBRANCH   1  13
BRANCH   5  32
HETATM   32  N   UNL     1      -4.502   5.688 -30.149  1.00  0.00    -0.282 NA
HETATM   33  H   UNL     1      -5.009   6.039 -29.342  1.00  0.00     0.126 HD
HETATM   34  H   UNL     1      -4.313   6.397 -30.852  1.00  0.00     0.126 HD
ENDBRANCH   5  32
BRANCH  12  35
HETATM   35  C   UNL     1      -5.867  -0.526 -32.375  1.00  0.00    -0.005 A 
HETATM   36  C   UNL     1      -7.120  -0.930 -32.857  1.00  0.00     0.015 A 
HETATM   37  C   UNL     1      -7.217  -1.902 -33.857  1.00  0.00     0.020 A 
HETATM   38  C   UNL     1      -6.059  -2.477 -34.372  1.00  0.00     0.011 A 
HETATM   39 BR   UNL     1      -6.186  -3.801 -35.716  1.00  0.00    -0.051 Br
HETATM   40  C   UNL     1      -4.806  -2.092 -33.898  1.00  0.00     0.020 A 
HETATM   41  C   UNL     1      -4.710  -1.119 -32.899  1.00  0.00     0.015 A 
ENDBRANCH  12  35
TORSDOF 7
ENDMDL
MODEL 7
REMARK VINA RESULT:      -7.3     16.339     19.700
REMARK  7 active torsions:
REMARK  status: ('A' for Active; 'I' for Inactive)
REMARK    1  A    between atoms: O_2  and  C_3 
REMARK    2  A    between atoms: C_4  and  O_5 
REMARK    3  A    between atoms: O_5  and  C_6 
REMARK       I    between atoms: C_6  and  N_7 
REMARK    4  A    between atoms: C_14  and  O_15 
REMARK    5  A    between atoms: C_18  and  C_19 
REMARK    6  A    between atoms: C_23  and  N_24 
REMARK    7  A    between atoms: C_31  and  C_32 
ROOT
HETATM    1  C   UNL     1      -5.022 -14.649 -38.459  1.00  0.00     0.105 C 
HETATM    2  C   UNL     1      -6.224 -14.403 -39.370  1.00  0.00     0.067 C 
HETATM    3  C   UNL     1      -7.002 -15.627 -39.823  1.00  0.00     0.020 C 
HETATM    4  N   UNL     1      -7.650 -16.642 -40.199  1.00  0.00    -0.096 N 
HETATM    5  C   UNL     1      -6.503 -13.195 -39.931  1.00  0.00     0.139 C 
HETATM    6  O   UNL     1      -5.671 -12.078 -39.728  1.00  0.00    -0.279 OA
HETATM    7  C   UNL     1      -4.513 -12.318 -39.123  1.00  0.00     0.175 A 
HETATM    8  C   UNL     1      -4.096 -13.481 -38.523  1.00  0.00     0.040 A 
HETATM    9  N   UNL     1      -3.509 -11.420 -38.984  1.00  0.00    -0.256 N 
HETATM   10  H   UNL     1      -3.478 -10.456 -39.300  1.00  0.00     0.191 HD
HETATM   11  N   UNL     1      -2.439 -11.932 -38.346  1.00  0.00    -0.172 NA
HETATM   12  C   UNL     1      -2.771 -13.212 -38.087  1.00  0.00     0.099 A 
ENDROOT
BRANCH   1  13
HETATM   13  C   UNL     1      -5.444 -14.830 -37.002  1.00  0.00    -0.039 A 
HETATM   14  C   UNL     1      -5.039 -15.994 -36.326  1.00  0.00     0.048 A 
HETATM   15  C   UNL     1      -5.484 -16.251 -35.028  1.00  0.00     0.105 A 
HETATM   16  C   UNL     1      -6.365 -15.367 -34.403  1.00  0.00     0.147 A 
HETATM   17  C   UNL     1      -6.728 -14.162 -35.014  1.00  0.00     0.105 A 
HETATM   18  C   UNL     1      -6.295 -13.925 -36.323  1.00  0.00     0.048 A 
BRANCH  15  19
HETATM   19  O   UNL     1      -5.115 -17.406 -34.389  1.00  0.00    -0.353 OA
HETATM   20  C   UNL     1      -3.702 -17.431 -34.190  1.00  0.00     0.210 C 
ENDBRANCH  15  19
BRANCH  16  21
HETATM   21  O   UNL     1      -6.840 -15.700 -33.127  1.00  0.00    -0.256 OA
BRANCH  21  22
HETATM   22  C   UNL     1      -5.952 -15.374 -32.106  1.00  0.00     0.368 C 
HETATM   23  N   UNL     1      -5.945 -16.319 -31.089  1.00  0.00    -0.324 N 
HETATM   24  C   UNL     1      -4.810 -16.348 -30.171  1.00  0.00     0.154 C 
HETATM   25  C   UNL     1      -6.742 -17.543 -31.136  1.00  0.00     0.154 C 
HETATM   26  C   UNL     1      -5.200 -16.920 -28.807  1.00  0.00     0.187 C 
HETATM   27  O   UNL     1      -5.862 -18.188 -28.943  1.00  0.00    -0.388 OA
HETATM   28  C   UNL     1      -7.058 -18.043 -29.723  1.00  0.00     0.187 C 
HETATM   29  O   UNL     1      -5.241 -14.372 -32.079  1.00  0.00    -0.238 OA
ENDBRANCH  21  22
ENDBRANCH  16  21
BRANCH  17  30
HETATM   30  O   UNL     1      -7.491 -13.305 -34.266  1.00  0.00    -0.353 OA
HETATM   31  C   UNL     1      -6.889 -12.088 -33.846  1.00  0.00     0.210 C 
ENDBRANCH  17  30
ENDBRANCH   1  13
BRANCH   5  32
HETATM   32  N   UNL     1      -7.553 -12.925 -40.776  1.00  0.00    -0.282 NA
HETATM   33  H   UNL     1      -7.709 -13.582 -41.535  1.00  0.00     0.126 HD
HETATM   34  H   UNL     1      -7.588 -11.952 -41.065  1.00  0.00     0.126 HD
ENDBRANCH   5  32
BRANCH  12  35
HETATM   35  C   UNL     1      -1.826 -14.105 -37.424  1.00  0.00    -0.005 A 
HETATM   36  C   UNL     1      -1.899 -14.298 -36.037  1.00  0.00     0.015 A 
HETATM   37  C   UNL     1      -0.988 -15.133 -35.387  1.00  0.00     0.020 A 
HETATM   38  C   UNL     1       0.005 -15.774 -36.122  1.00  0.00     0.011 A 
HETATM   39 BR   UNL     1       1.249 -16.896 -35.245  1.00  0.00    -0.051 Br
HETATM   40  C   UNL     1       0.097 -15.587 -37.501  1.00  0.00     0.020 A 
HETATM   41  C   UNL     1      -0.816 -14.751 -38.150  1.00  0.00     0.015 A 
ENDBRANCH  12  35
TORSDOF 7
ENDMDL
MODEL 8
REMARK VINA RESULT:      -7.3      1.397      2.589
REMARK  7 active torsions:
REMARK  status: ('A' for Active; 'I' for Inactive)
REMARK    1  A    between atoms: O_2  and  C_3 
REMARK    2  A    between atoms: C_4  and  O_5 
REMARK    3  A    between atoms: O_5  and  C_6 
REMARK       I    between atoms: C_6  and  N_7 
REMARK    4  A    between atoms: C_14  and  O_15 
REMARK    5  A    between atoms: C_18  and  C_19 
REMARK    6  A    between atoms: C_23  and  N_24 
REMARK    7  A    between atoms: C_31  and  C_32 
ROOT
HETATM    1  C   UNL     1      -8.404   5.016 -31.308  1.00  0.00     0.105 C 
HETATM    2  C   UNL     1      -7.553   5.965 -30.466  1.00  0.00     0.067 C 
HETATM    3  C   UNL     1      -7.194   5.504 -29.063  1.00  0.00     0.020 C 
HETATM    4  N   UNL     1      -6.896   5.122 -27.899  1.00  0.00    -0.096 N 
HETATM    5  C   UNL     1      -7.272   7.245 -30.835  1.00  0.00     0.139 C 
HETATM    6  O   UNL     1      -7.782   7.797 -32.026  1.00  0.00    -0.279 OA
HETATM    7  C   UNL     1      -8.694   7.070 -32.660  1.00  0.00     0.175 A 
HETATM    8  C   UNL     1      -9.081   5.779 -32.396  1.00  0.00     0.040 A 
HETATM    9  N   UNL     1      -9.423   7.491 -33.721  1.00  0.00    -0.256 N 
HETATM   10  H   UNL     1      -9.390   8.391 -34.190  1.00  0.00     0.191 HD
HETATM   11  N   UNL     1     -10.289   6.558 -34.159  1.00  0.00    -0.172 NA
HETATM   12  C   UNL     1     -10.116   5.509 -33.331  1.00  0.00     0.099 A 
ENDROOT
BRANCH   1  13
HETATM   13  C   UNL     1      -7.557   3.924 -31.961  1.00  0.00    -0.039 A 
HETATM   14  C   UNL     1      -8.051   2.608 -31.971  1.00  0.00     0.048 A 
HETATM   15  C   UNL     1      -7.270   1.562 -32.465  1.00  0.00     0.105 A 
HETATM   16  C   UNL     1      -5.974   1.812 -32.922  1.00  0.00     0.147 A 
HETATM   17  C   UNL     1      -5.479   3.118 -32.998  1.00  0.00     0.105 A 
HETATM   18  C   UNL     1      -6.260   4.155 -32.480  1.00  0.00     0.048 A 
BRANCH  15  19
HETATM   19  O   UNL     1      -7.743   0.276 -32.439  1.00  0.00    -0.353 OA
HETATM   20  C   UNL     1      -8.791   0.116 -33.395  1.00  0.00     0.210 C 
ENDBRANCH  15  19
BRANCH  16  21
HETATM   21  O   UNL     1      -5.201   0.722 -33.344  1.00  0.00    -0.256 OA
BRANCH  21  22
HETATM   22  C   UNL     1      -4.491   0.115 -32.311  1.00  0.00     0.368 C 
HETATM   23  N   UNL     1      -4.091  -1.175 -32.629  1.00  0.00    -0.324 N 
HETATM   24  C   UNL     1      -3.017  -1.785 -31.852  1.00  0.00     0.154 C 
HETATM   25  C   UNL     1      -4.344  -1.787 -33.932  1.00  0.00     0.154 C 
HETATM   26  C   UNL     1      -3.122  -3.311 -31.842  1.00  0.00     0.187 C 
HETATM   27  O   UNL     1      -3.235  -3.834 -33.175  1.00  0.00    -0.388 OA
HETATM   28  C   UNL     1      -4.408  -3.313 -33.816  1.00  0.00     0.187 C 
HETATM   29  O   UNL     1      -4.230   0.638 -31.229  1.00  0.00    -0.238 OA
ENDBRANCH  21  22
ENDBRANCH  16  21
BRANCH  17  30
HETATM   30  O   UNL     1      -4.248   3.270 -33.581  1.00  0.00    -0.353 OA
HETATM   31  C   UNL     1      -3.203   3.801 -32.777  1.00  0.00     0.210 C 
ENDBRANCH  17  30
ENDBRANCH   1  13
BRANCH   5  32
HETATM   32  N   UNL     1      -6.535   8.148 -30.107  1.00  0.00    -0.282 NA
HETATM   33  H   UNL     1      -6.275   7.870 -29.164  1.00  0.00     0.126 HD
HETATM   34  H   UNL     1      -6.897   9.095 -30.168  1.00  0.00     0.126 HD
ENDBRANCH   5  32
BRANCH  12  35
HETATM   35  C   UNL     1     -10.924   4.303 -33.481  1.00  0.00    -0.005 A 
HETATM   36  C   UNL     1     -11.943   4.024 -32.558  1.00  0.00     0.015 A 
HETATM   37  C   UNL     1     -12.711   2.862 -32.678  1.00  0.00     0.020 A 
HETATM   38  C   UNL     1     -12.456   1.973 -33.719  1.00  0.00     0.011 A 
HETATM   39 BR   UNL     1     -13.484   0.394 -33.878  1.00  0.00    -0.051 Br
HETATM   40  C   UNL     1     -11.441   2.232 -34.639  1.00  0.00     0.020 A 
HETATM   41  C   UNL     1     -10.675   3.395 -34.518  1.00  0.00     0.015 A 
ENDBRANCH  12  35
TORSDOF 7
ENDMDL
MODEL 9
REMARK VINA RESULT:      -7.2      3.530      8.188
REMARK  7 active torsions:
REMARK  status: ('A' for Active; 'I' for Inactive)
REMARK    1  A    between atoms: O_2  and  C_3 
REMARK    2  A    between atoms: C_4  and  O_5 
REMARK    3  A    between atoms: O_5  and  C_6 
REMARK       I    between atoms: C_6  and  N_7 
REMARK    4  A    between atoms: C_14  and  O_15 
REMARK    5  A    between atoms: C_18  and  C_19 
REMARK    6  A    between atoms: C_23  and  N_24 
REMARK    7  A    between atoms: C_31  and  C_32 
ROOT
HETATM    1  C   UNL     1      -5.257   3.836 -32.024  1.00  0.00     0.105 C 
HETATM    2  C   UNL     1      -3.834   4.380 -31.903  1.00  0.00     0.067 C 
HETATM    3  C   UNL     1      -3.557   5.725 -32.555  1.00  0.00     0.020 C 
HETATM    4  N   UNL     1      -3.325   6.840 -33.095  1.00  0.00    -0.096 N 
HETATM    5  C   UNL     1      -2.793   3.650 -31.421  1.00  0.00     0.139 C 
HETATM    6  O   UNL     1      -2.955   2.310 -31.020  1.00  0.00    -0.279 OA
HETATM    7  C   UNL     1      -4.123   1.752 -31.316  1.00  0.00     0.175 A 
HETATM    8  C   UNL     1      -5.250   2.360 -31.811  1.00  0.00     0.040 A 
HETATM    9  N   UNL     1      -4.415   0.438 -31.168  1.00  0.00    -0.256 N 
HETATM   10  H   UNL     1      -3.818  -0.304 -30.818  1.00  0.00     0.191 HD
HETATM   11  N   UNL     1      -5.667   0.138 -31.562  1.00  0.00    -0.172 NA
HETATM   12  C   UNL     1      -6.183   1.305 -31.995  1.00  0.00     0.099 A 
ENDROOT
BRANCH   1  13
HETATM   13  C   UNL     1      -6.189   4.453 -30.982  1.00  0.00    -0.039 A 
HETATM   14  C   UNL     1      -7.473   4.860 -31.386  1.00  0.00     0.048 A 
HETATM   15  C   UNL     1      -8.321   5.519 -30.496  1.00  0.00     0.105 A 
HETATM   16  C   UNL     1      -7.885   5.812 -29.202  1.00  0.00     0.147 A 
HETATM   17  C   UNL     1      -6.646   5.355 -28.740  1.00  0.00     0.105 A 
HETATM   18  C   UNL     1      -5.795   4.715 -29.647  1.00  0.00     0.048 A 
BRANCH  15  19
HETATM   19  O   UNL     1      -9.556   5.946 -30.908  1.00  0.00    -0.353 OA
HETATM   20  C   UNL     1     -10.244   4.891 -31.579  1.00  0.00     0.210 C 
ENDBRANCH  15  19
BRANCH  16  21
HETATM   21  O   UNL     1      -8.744   6.536 -28.364  1.00  0.00    -0.256 OA
BRANCH  21  22
HETATM   22  C   UNL     1      -8.397   7.880 -28.246  1.00  0.00     0.368 C 
HETATM   23  N   UNL     1      -9.098   8.521 -27.235  1.00  0.00    -0.324 N 
HETATM   24  C   UNL     1      -8.578   9.782 -26.716  1.00  0.00     0.154 C 
HETATM   25  C   UNL     1     -10.045   7.830 -26.362  1.00  0.00     0.154 C 
HETATM   26  C   UNL     1      -9.691  10.661 -26.143  1.00  0.00     0.187 C 
HETATM   27  O   UNL     1     -10.492   9.936 -25.195  1.00  0.00    -0.388 OA
HETATM   28  C   UNL     1     -11.102   8.800 -25.826  1.00  0.00     0.187 C 
HETATM   29  O   UNL     1      -7.566   8.459 -28.942  1.00  0.00    -0.238 OA
ENDBRANCH  21  22
ENDBRANCH  16  21
BRANCH  17  30
HETATM   30  O   UNL     1      -6.367   5.580 -27.418  1.00  0.00    -0.353 OA
HETATM   31  C   UNL     1      -5.119   6.183 -27.106  1.00  0.00     0.210 C 
ENDBRANCH  17  30
ENDBRANCH   1  13
BRANCH   5  32
HETATM   32  N   UNL     1      -1.491   4.080 -31.314  1.00  0.00    -0.282 NA
HETATM   33  H   UNL     1      -1.203   4.444 -30.410  1.00  0.00     0.126 HD
HETATM   34  H   UNL     1      -1.199   4.657 -32.098  1.00  0.00     0.126 HD
ENDBRANCH   5  32
BRANCH  12  35
HETATM   35  C   UNL     1      -7.537   1.363 -32.539  1.00  0.00    -0.005 A 
HETATM   36  C   UNL     1      -8.570   0.642 -31.924  1.00  0.00     0.015 A 
HETATM   37  C   UNL     1      -9.866   0.672 -32.447  1.00  0.00     0.020 A 
HETATM   38  C   UNL     1     -10.129   1.418 -33.592  1.00  0.00     0.011 A 
HETATM   39 BR   UNL     1     -11.878   1.451 -34.310  1.00  0.00    -0.051 Br
HETATM   40  C   UNL     1      -9.111   2.133 -34.221  1.00  0.00     0.020 A 
HETATM   41  C   UNL     1      -7.815   2.103 -33.696  1.00  0.00     0.015 A 
ENDBRANCH  12  35
TORSDOF 7
ENDMDL
MODEL 10
REMARK VINA RESULT:      -7.1     16.596     19.814
REMARK  7 active torsions:
REMARK  status: ('A' for Active; 'I' for Inactive)
REMARK    1  A    between atoms: O_2  and  C_3 
REMARK    2  A    between atoms: C_4  and  O_5 
REMARK    3  A    between atoms: O_5  and  C_6 
REMARK       I    between atoms: C_6  and  N_7 
REMARK    4  A    between atoms: C_14  and  O_15 
REMARK    5  A    between atoms: C_18  and  C_19 
REMARK    6  A    between atoms: C_23  and  N_24 
REMARK    7  A    between atoms: C_31  and  C_32 
ROOT
HETATM    1  C   UNL     1      -5.268 -15.116 -38.338  1.00  0.00     0.105 C 
HETATM    2  C   UNL     1      -6.448 -15.010 -39.303  1.00  0.00     0.067 C 
HETATM    3  C   UNL     1      -7.050 -16.316 -39.796  1.00  0.00     0.020 C 
HETATM    4  N   UNL     1      -7.550 -17.398 -40.206  1.00  0.00    -0.096 N 
HETATM    5  C   UNL     1      -6.847 -13.840 -39.870  1.00  0.00     0.139 C 
HETATM    6  O   UNL     1      -6.168 -12.631 -39.624  1.00  0.00    -0.279 OA
HETATM    7  C   UNL     1      -5.019 -12.735 -38.967  1.00  0.00     0.175 A 
HETATM    8  C   UNL     1      -4.491 -13.844 -38.353  1.00  0.00     0.040 A 
HETATM    9  N   UNL     1      -4.139 -11.722 -38.777  1.00  0.00    -0.256 N 
HETATM   10  H   UNL     1      -4.212 -10.759 -39.088  1.00  0.00     0.191 HD
HETATM   11  N   UNL     1      -3.046 -12.106 -38.093  1.00  0.00    -0.172 NA
HETATM   12  C   UNL     1      -3.230 -13.420 -37.855  1.00  0.00     0.099 A 
ENDROOT
BRANCH   1  13
HETATM   13  C   UNL     1      -5.731 -15.363 -36.902  1.00  0.00    -0.039 A 
HETATM   14  C   UNL     1      -6.482 -14.364 -36.259  1.00  0.00     0.048 A 
HETATM   15  C   UNL     1      -6.840 -14.501 -34.917  1.00  0.00     0.105 A 
HETATM   16  C   UNL     1      -6.422 -15.618 -34.192  1.00  0.00     0.147 A 
HETATM   17  C   UNL     1      -5.741 -16.667 -34.818  1.00  0.00     0.105 A 
HETATM   18  C   UNL     1      -5.367 -16.510 -36.156  1.00  0.00     0.048 A 
BRANCH  15  19
HETATM   19  O   UNL     1      -7.541 -13.506 -34.286  1.00  0.00    -0.353 OA
HETATM   20  C   UNL     1      -6.686 -12.399 -34.006  1.00  0.00     0.210 C 
ENDBRANCH  15  19
BRANCH  16  21
HETATM   21  O   UNL     1      -6.746 -15.680 -32.829  1.00  0.00    -0.256 OA
BRANCH  21  22
HETATM   22  C   UNL     1      -5.660 -15.430 -31.993  1.00  0.00     0.368 C 
HETATM   23  N   UNL     1      -5.661 -16.243 -30.868  1.00  0.00    -0.324 N 
HETATM   24  C   UNL     1      -4.418 -16.401 -30.119  1.00  0.00     0.154 C 
HETATM   25  C   UNL     1      -6.664 -17.282 -30.639  1.00  0.00     0.154 C 
HETATM   26  C   UNL     1      -4.681 -16.734 -28.650  1.00  0.00     0.187 C 
HETATM   27  O   UNL     1      -5.575 -17.851 -28.520  1.00  0.00    -0.388 OA
HETATM   28  C   UNL     1      -6.835 -17.555 -29.141  1.00  0.00     0.187 C 
HETATM   29  O   UNL     1      -4.785 -14.594 -32.200  1.00  0.00    -0.238 OA
ENDBRANCH  21  22
ENDBRANCH  16  21
BRANCH  17  30
HETATM   30  O   UNL     1      -5.489 -17.774 -34.052  1.00  0.00    -0.353 OA
HETATM   31  C   UNL     1      -4.130 -18.130 -33.839  1.00  0.00     0.210 C 
ENDBRANCH  17  30
ENDBRANCH   1  13
BRANCH   5  32
HETATM   32  N   UNL     1      -7.884 -13.692 -40.762  1.00  0.00    -0.282 NA
HETATM   33  H   UNL     1      -8.314 -12.773 -40.812  1.00  0.00     0.126 HD
HETATM   34  H   UNL     1      -8.553 -14.454 -40.721  1.00  0.00     0.126 HD
ENDBRANCH   5  32
BRANCH  12  35
HETATM   35  C   UNL     1      -2.213 -14.197 -37.152  1.00  0.00    -0.005 A 
HETATM   36  C   UNL     1      -1.058 -14.614 -37.829  1.00  0.00     0.015 A 
HETATM   37  C   UNL     1      -0.087 -15.376 -37.174  1.00  0.00     0.020 A 
HETATM   38  C   UNL     1      -0.273 -15.730 -35.841  1.00  0.00     0.011 A 
HETATM   39 BR   UNL     1       1.032 -16.771 -34.954  1.00  0.00    -0.051 Br
HETATM   40  C   UNL     1      -1.420 -15.331 -35.156  1.00  0.00     0.020 A 
HETATM   41  C   UNL     1      -2.390 -14.567 -35.812  1.00  0.00     0.015 A 
ENDBRANCH  12  35
TORSDOF 7
ENDMDL
