MODEL 1
REMARK VINA RESULT:      -8.0      0.000      0.000
REMARK  7 active torsions:
REMARK  status: ('A' for Active; 'I' for Inactive)
REMARK    1  A    between atoms: C_2  and  N_3 
REMARK    2  A    between atoms: N_3  and  C_4 
REMARK    3  A    between atoms: C_6  and  N_7 
REMARK    4  A    between atoms: N_7  and  C_8 
REMARK    5  A    between atoms: C_8  and  C_9 
REMARK    6  A    between atoms: C_10  and  O_11 
REMARK    7  A    between atoms: C_14  and  O_15 
ROOT
HETATM    1  C   UNL     1      -6.724  -0.896 -33.831  1.00  0.00     0.135 A 
HETATM    2  N   UNL     1      -5.969   0.085 -33.305  1.00  0.00    -0.052 NA
HETATM    3  C   UNL     1      -4.686  -0.169 -33.007  1.00  0.00     0.702 A 
HETATM    4  N   UNL     1      -4.135  -1.361 -33.223  1.00  0.00    -0.189 N 
HETATM    5  H   UNL     1      -3.157  -1.471 -32.997  1.00  0.00     0.184 HD
HETATM    6  C   UNL     1      -4.830  -2.366 -33.767  1.00  0.00     0.062 A 
HETATM    7  C   UNL     1      -6.181  -2.167 -34.107  1.00  0.00     0.032 A 
HETATM    8  C   UNL     1      -4.205  -3.600 -34.008  1.00  0.00     0.031 A 
HETATM    9  C   UNL     1      -4.916  -4.643 -34.601  1.00  0.00     0.002 A 
HETATM   10  C   UNL     1      -6.249  -4.460 -34.957  1.00  0.00     0.001 A 
HETATM   11  C   UNL     1      -6.878  -3.236 -34.715  1.00  0.00     0.017 A 
ENDROOT
BRANCH   3  12
HETATM   12  N   UNL     1      -3.873   0.814 -32.504  1.00  0.00    -0.220 N 
HETATM   13  H   UNL     1      -2.893   0.676 -32.308  1.00  0.00     0.178 HD
BRANCH  12  14
HETATM   14  C   UNL     1      -4.463   1.983 -31.856  1.00  0.00     0.179 C 
BRANCH  14  15
HETATM   15  C   UNL     1      -3.996   3.277 -32.495  1.00  0.00    -0.006 A 
HETATM   16  C   UNL     1      -4.927   4.074 -33.196  1.00  0.00     0.078 A 
HETATM   17  C   UNL     1      -4.512   5.252 -33.833  1.00  0.00     0.074 A 
HETATM   18  C   UNL     1      -3.170   5.638 -33.801  1.00  0.00     0.070 A 
HETATM   19  C   UNL     1      -2.246   4.844 -33.124  1.00  0.00     0.037 A 
HETATM   20  C   UNL     1      -2.649   3.671 -32.486  1.00  0.00     0.014 A 
BRANCH  16  21
HETATM   21  O   UNL     1      -6.218   3.605 -33.196  1.00  0.00    -0.355 OA
HETATM   22  C   UNL     1      -7.223   4.444 -33.755  1.00  0.00     0.210 C 
ENDBRANCH  16  21
BRANCH  18  23
HETATM   23  O   UNL     1      -2.635   6.753 -34.383  1.00  0.00    -0.356 OA
HETATM   24  C   UNL     1      -1.668   7.478 -33.634  1.00  0.00     0.210 C 
ENDBRANCH  18  23
ENDBRANCH  14  15
ENDBRANCH  12  14
ENDBRANCH   3  12
BRANCH   1  25
HETATM   25  N   UNL     1      -8.050  -0.616 -34.169  1.00  0.00    -0.272 NA
HETATM   26  H   UNL     1      -8.601  -1.462 -34.294  1.00  0.00     0.129 HD
BRANCH  25  27
HETATM   27  C   UNL     1      -8.775   0.403 -33.397  1.00  0.00     0.053 C 
HETATM   28  C   UNL     1      -9.950  -0.221 -32.644  1.00  0.00     0.026 C 
HETATM   29  C   UNL     1      -9.284   1.462 -34.376  1.00  0.00     0.026 C 
ENDBRANCH  25  27
ENDBRANCH   1  25
TORSDOF 7
ENDMDL
MODEL 2
REMARK VINA RESULT:      -8.0      3.845      7.708
REMARK  7 active torsions:
REMARK  status: ('A' for Active; 'I' for Inactive)
REMARK    1  A    between atoms: C_2  and  N_3 
REMARK    2  A    between atoms: N_3  and  C_4 
REMARK    3  A    between atoms: C_6  and  N_7 
REMARK    4  A    between atoms: N_7  and  C_8 
REMARK    5  A    between atoms: C_8  and  C_9 
REMARK    6  A    between atoms: C_10  and  O_11 
REMARK    7  A    between atoms: C_14  and  O_15 
ROOT
HETATM    1  C   UNL     1      -6.688   0.595 -31.801  1.00  0.00     0.135 A 
HETATM    2  N   UNL     1      -7.975   0.984 -31.778  1.00  0.00    -0.052 NA
HETATM    3  C   UNL     1      -8.835   0.444 -32.655  1.00  0.00     0.702 A 
HETATM    4  N   UNL     1      -8.453  -0.471 -33.544  1.00  0.00    -0.189 N 
HETATM    5  H   UNL     1      -9.160  -0.851 -34.156  1.00  0.00     0.184 HD
HETATM    6  C   UNL     1      -7.192  -0.913 -33.596  1.00  0.00     0.062 A 
HETATM    7  C   UNL     1      -6.239  -0.391 -32.701  1.00  0.00     0.032 A 
HETATM    8  C   UNL     1      -6.834  -1.902 -34.526  1.00  0.00     0.031 A 
HETATM    9  C   UNL     1      -5.527  -2.388 -34.567  1.00  0.00     0.002 A 
HETATM   10  C   UNL     1      -4.575  -1.894 -33.680  1.00  0.00     0.001 A 
HETATM   11  C   UNL     1      -4.923  -0.907 -32.755  1.00  0.00     0.017 A 
ENDROOT
BRANCH   3  12
HETATM   12  N   UNL     1     -10.162   0.785 -32.641  1.00  0.00    -0.220 N 
HETATM   13  H   UNL     1     -10.794   0.521 -31.901  1.00  0.00     0.178 HD
BRANCH  12  14
HETATM   14  C   UNL     1     -10.818   1.203 -33.878  1.00  0.00     0.179 C 
BRANCH  14  15
HETATM   15  C   UNL     1     -12.313   1.380 -33.692  1.00  0.00    -0.006 A 
HETATM   16  C   UNL     1     -12.793   2.525 -33.022  1.00  0.00     0.078 A 
HETATM   17  C   UNL     1     -14.168   2.690 -32.798  1.00  0.00     0.074 A 
HETATM   18  C   UNL     1     -15.073   1.713 -33.216  1.00  0.00     0.070 A 
HETATM   19  C   UNL     1     -14.600   0.573 -33.863  1.00  0.00     0.037 A 
HETATM   20  C   UNL     1     -13.236   0.400 -34.091  1.00  0.00     0.014 A 
BRANCH  16  21
HETATM   21  O   UNL     1     -11.829   3.420 -32.625  1.00  0.00    -0.355 OA
HETATM   22  C   UNL     1     -12.072   4.164 -31.436  1.00  0.00     0.210 C 
ENDBRANCH  16  21
BRANCH  18  23
HETATM   23  O   UNL     1     -16.431   1.747 -33.054  1.00  0.00    -0.356 OA
HETATM   24  C   UNL     1     -16.946   2.629 -32.064  1.00  0.00     0.210 C 
ENDBRANCH  18  23
ENDBRANCH  14  15
ENDBRANCH  12  14
ENDBRANCH   3  12
BRANCH   1  25
HETATM   25  N   UNL     1      -5.806   1.137 -30.863  1.00  0.00    -0.272 NA
HETATM   26  H   UNL     1      -5.122   0.456 -30.542  1.00  0.00     0.129 HD
BRANCH  25  27
HETATM   27  C   UNL     1      -5.191   2.442 -31.144  1.00  0.00     0.053 C 
HETATM   28  C   UNL     1      -3.675   2.309 -31.283  1.00  0.00     0.026 C 
HETATM   29  C   UNL     1      -5.530   3.381 -29.986  1.00  0.00     0.026 C 
ENDBRANCH  25  27
ENDBRANCH   1  25
TORSDOF 7
ENDMDL
MODEL 3
REMARK VINA RESULT:      -7.9      1.815      2.921
REMARK  7 active torsions:
REMARK  status: ('A' for Active; 'I' for Inactive)
REMARK    1  A    between atoms: C_2  and  N_3 
REMARK    2  A    between atoms: N_3  and  C_4 
REMARK    3  A    between atoms: C_6  and  N_7 
REMARK    4  A    between atoms: N_7  and  C_8 
REMARK    5  A    between atoms: C_8  and  C_9 
REMARK    6  A    between atoms: C_10  and  O_11 
REMARK    7  A    between atoms: C_14  and  O_15 
ROOT
HETATM    1  C   UNL     1      -6.468  -0.921 -33.919  1.00  0.00     0.135 A 
HETATM    2  N   UNL     1      -5.611  -0.001 -33.443  1.00  0.00    -0.052 NA
HETATM    3  C   UNL     1      -4.347  -0.364 -33.176  1.00  0.00     0.702 A 
HETATM    4  N   UNL     1      -3.914  -1.607 -33.375  1.00  0.00    -0.189 N 
HETATM    5  H   UNL     1      -2.943  -1.800 -33.175  1.00  0.00     0.184 HD
HETATM    6  C   UNL     1      -4.714  -2.556 -33.872  1.00  0.00     0.062 A 
HETATM    7  C   UNL     1      -6.052  -2.243 -34.178  1.00  0.00     0.032 A 
HETATM    8  C   UNL     1      -4.212  -3.848 -34.099  1.00  0.00     0.031 A 
HETATM    9  C   UNL     1      -5.033  -4.836 -34.642  1.00  0.00     0.002 A 
HETATM   10  C   UNL     1      -6.354  -4.539 -34.964  1.00  0.00     0.001 A 
HETATM   11  C   UNL     1      -6.862  -3.258 -34.736  1.00  0.00     0.017 A 
ENDROOT
BRANCH   3  12
HETATM   12  N   UNL     1      -3.433   0.551 -32.723  1.00  0.00    -0.220 N 
HETATM   13  H   UNL     1      -2.610   0.816 -33.242  1.00  0.00     0.178 HD
BRANCH  12  14
HETATM   14  C   UNL     1      -3.391   0.894 -31.304  1.00  0.00     0.179 C 
BRANCH  14  15
HETATM   15  C   UNL     1      -4.238   2.114 -30.992  1.00  0.00    -0.006 A 
HETATM   16  C   UNL     1      -3.740   3.396 -31.305  1.00  0.00     0.078 A 
HETATM   17  C   UNL     1      -4.485   4.541 -30.987  1.00  0.00     0.074 A 
HETATM   18  C   UNL     1      -5.714   4.426 -30.336  1.00  0.00     0.070 A 
HETATM   19  C   UNL     1      -6.200   3.161 -30.011  1.00  0.00     0.037 A 
HETATM   20  C   UNL     1      -5.469   2.016 -30.324  1.00  0.00     0.014 A 
BRANCH  16  21
HETATM   21  O   UNL     1      -2.512   3.415 -31.921  1.00  0.00    -0.355 OA
HETATM   22  C   UNL     1      -2.395   4.153 -33.133  1.00  0.00     0.210 C 
ENDBRANCH  16  21
BRANCH  18  23
HETATM   23  O   UNL     1      -6.533   5.457 -29.964  1.00  0.00    -0.356 OA
HETATM   24  C   UNL     1      -7.376   5.244 -28.838  1.00  0.00     0.210 C 
ENDBRANCH  18  23
ENDBRANCH  14  15
ENDBRANCH  12  14
ENDBRANCH   3  12
BRANCH   1  25
HETATM   25  N   UNL     1      -7.773  -0.529 -34.226  1.00  0.00    -0.272 NA
HETATM   26  H   UNL     1      -8.386  -1.326 -34.386  1.00  0.00     0.129 HD
BRANCH  25  27
HETATM   27  C   UNL     1      -8.415   0.499 -33.395  1.00  0.00     0.053 C 
HETATM   28  C   UNL     1      -9.704  -0.034 -32.771  1.00  0.00     0.026 C 
HETATM   29  C   UNL     1      -8.724   1.701 -34.288  1.00  0.00     0.026 C 
ENDBRANCH  25  27
ENDBRANCH   1  25
TORSDOF 7
ENDMDL
MODEL 4
REMARK VINA RESULT:      -7.8      3.562      6.864
REMARK  7 active torsions:
REMARK  status: ('A' for Active; 'I' for Inactive)
REMARK    1  A    between atoms: C_2  and  N_3 
REMARK    2  A    between atoms: N_3  and  C_4 
REMARK    3  A    between atoms: C_6  and  N_7 
REMARK    4  A    between atoms: N_7  and  C_8 
REMARK    5  A    between atoms: C_8  and  C_9 
REMARK    6  A    between atoms: C_10  and  O_11 
REMARK    7  A    between atoms: C_14  and  O_15 
ROOT
HETATM    1  C   UNL     1      -5.460  -1.590 -34.409  1.00  0.00     0.135 A 
HETATM    2  N   UNL     1      -6.498  -0.938 -34.962  1.00  0.00    -0.052 NA
HETATM    3  C   UNL     1      -6.870   0.246 -34.451  1.00  0.00     0.702 A 
HETATM    4  N   UNL     1      -6.237   0.798 -33.419  1.00  0.00    -0.189 N 
HETATM    5  H   UNL     1      -6.557   1.702 -33.105  1.00  0.00     0.184 HD
HETATM    6  C   UNL     1      -5.182   0.208 -32.847  1.00  0.00     0.062 A 
HETATM    7  C   UNL     1      -4.737  -1.036 -33.335  1.00  0.00     0.032 A 
HETATM    8  C   UNL     1      -4.521   0.836 -31.780  1.00  0.00     0.031 A 
HETATM    9  C   UNL     1      -3.403   0.239 -31.197  1.00  0.00     0.002 A 
HETATM   10  C   UNL     1      -2.940  -0.983 -31.676  1.00  0.00     0.001 A 
HETATM   11  C   UNL     1      -3.596  -1.616 -32.734  1.00  0.00     0.017 A 
ENDROOT
BRANCH   3  12
HETATM   12  N   UNL     1      -7.900   0.959 -35.007  1.00  0.00    -0.220 N 
HETATM   13  H   UNL     1      -8.092   0.975 -35.997  1.00  0.00     0.178 HD
BRANCH  12  14
HETATM   14  C   UNL     1      -8.522   2.044 -34.252  1.00  0.00     0.179 C 
BRANCH  14  15
HETATM   15  C   UNL     1     -10.037   1.970 -34.303  1.00  0.00    -0.006 A 
HETATM   16  C   UNL     1     -10.696   0.899 -33.663  1.00  0.00     0.078 A 
HETATM   17  C   UNL     1     -12.092   0.784 -33.733  1.00  0.00     0.074 A 
HETATM   18  C   UNL     1     -12.842   1.714 -34.455  1.00  0.00     0.070 A 
HETATM   19  C   UNL     1     -12.192   2.764 -35.102  1.00  0.00     0.037 A 
HETATM   20  C   UNL     1     -10.805   2.888 -35.037  1.00  0.00     0.014 A 
BRANCH  16  21
HETATM   21  O   UNL     1      -9.877   0.019 -32.999  1.00  0.00    -0.355 OA
HETATM   22  C   UNL     1      -9.463   0.371 -31.682  1.00  0.00     0.210 C 
ENDBRANCH  16  21
BRANCH  18  23
HETATM   23  O   UNL     1     -14.201   1.714 -34.608  1.00  0.00    -0.356 OA
HETATM   24  C   UNL     1     -14.893   0.519 -34.266  1.00  0.00     0.210 C 
ENDBRANCH  18  23
ENDBRANCH  14  15
ENDBRANCH  12  14
ENDBRANCH   3  12
BRANCH   1  25
HETATM   25  N   UNL     1      -5.058  -2.807 -34.967  1.00  0.00    -0.272 NA
HETATM   26  H   UNL     1      -4.045  -2.878 -35.041  1.00  0.00     0.129 HD
BRANCH  25  27
HETATM   27  C   UNL     1      -5.660  -4.048 -34.461  1.00  0.00     0.053 C 
HETATM   28  C   UNL     1      -4.584  -5.095 -34.172  1.00  0.00     0.026 C 
HETATM   29  C   UNL     1      -6.626  -4.570 -35.526  1.00  0.00     0.026 C 
ENDBRANCH  25  27
ENDBRANCH   1  25
TORSDOF 7
ENDMDL
MODEL 5
REMARK VINA RESULT:      -7.5     15.082     16.982
REMARK  7 active torsions:
REMARK  status: ('A' for Active; 'I' for Inactive)
REMARK    1  A    between atoms: C_2  and  N_3 
REMARK    2  A    between atoms: N_3  and  C_4 
REMARK    3  A    between atoms: C_6  and  N_7 
REMARK    4  A    between atoms: N_7  and  C_8 
REMARK    5  A    between atoms: C_8  and  C_9 
REMARK    6  A    between atoms: C_10  and  O_11 
REMARK    7  A    between atoms: C_14  and  O_15 
ROOT
HETATM    1  C   UNL     1      -3.660 -12.820 -38.599  1.00  0.00     0.135 A 
HETATM    2  N   UNL     1      -3.438 -13.072 -37.297  1.00  0.00    -0.052 NA
HETATM    3  C   UNL     1      -4.483 -13.128 -36.457  1.00  0.00     0.702 A 
HETATM    4  N   UNL     1      -5.734 -12.949 -36.875  1.00  0.00    -0.189 N 
HETATM    5  H   UNL     1      -6.471 -13.030 -36.190  1.00  0.00     0.184 HD
HETATM    6  C   UNL     1      -6.016 -12.722 -38.162  1.00  0.00     0.062 A 
HETATM    7  C   UNL     1      -4.967 -12.654 -39.099  1.00  0.00     0.032 A 
HETATM    8  C   UNL     1      -7.351 -12.570 -38.571  1.00  0.00     0.031 A 
HETATM    9  C   UNL     1      -7.654 -12.360 -39.916  1.00  0.00     0.002 A 
HETATM   10  C   UNL     1      -6.631 -12.304 -40.857  1.00  0.00     0.001 A 
HETATM   11  C   UNL     1      -5.301 -12.450 -40.457  1.00  0.00     0.017 A 
ENDROOT
BRANCH   3  12
HETATM   12  N   UNL     1      -4.303 -13.418 -35.129  1.00  0.00    -0.220 N 
HETATM   13  H   UNL     1      -3.615 -14.074 -34.793  1.00  0.00     0.178 HD
BRANCH  12  14
HETATM   14  C   UNL     1      -5.356 -13.098 -34.168  1.00  0.00     0.179 C 
BRANCH  14  15
HETATM   15  C   UNL     1      -5.734 -14.302 -33.325  1.00  0.00    -0.006 A 
HETATM   16  C   UNL     1      -6.661 -15.235 -33.834  1.00  0.00     0.078 A 
HETATM   17  C   UNL     1      -7.061 -16.332 -33.056  1.00  0.00     0.074 A 
HETATM   18  C   UNL     1      -6.564 -16.499 -31.763  1.00  0.00     0.070 A 
HETATM   19  C   UNL     1      -5.661 -15.569 -31.251  1.00  0.00     0.037 A 
HETATM   20  C   UNL     1      -5.256 -14.476 -32.016  1.00  0.00     0.014 A 
BRANCH  16  21
HETATM   21  O   UNL     1      -7.116 -14.977 -35.104  1.00  0.00    -0.355 OA
HETATM   22  C   UNL     1      -7.118 -16.055 -36.034  1.00  0.00     0.210 C 
ENDBRANCH  16  21
BRANCH  18  23
HETATM   23  O   UNL     1      -6.876 -17.515 -30.901  1.00  0.00    -0.356 OA
HETATM   24  C   UNL     1      -6.520 -17.342 -29.535  1.00  0.00     0.210 C 
ENDBRANCH  18  23
ENDBRANCH  14  15
ENDBRANCH  12  14
ENDBRANCH   3  12
BRANCH   1  25
HETATM   25  N   UNL     1      -2.571 -12.796 -39.474  1.00  0.00    -0.272 NA
HETATM   26  H   UNL     1      -1.894 -12.079 -39.223  1.00  0.00     0.129 HD
BRANCH  25  27
HETATM   27  C   UNL     1      -1.921 -14.066 -39.826  1.00  0.00     0.053 C 
HETATM   28  C   UNL     1      -0.412 -13.986 -39.593  1.00  0.00     0.026 C 
HETATM   29  C   UNL     1      -2.209 -14.348 -41.301  1.00  0.00     0.026 C 
ENDBRANCH  25  27
ENDBRANCH   1  25
TORSDOF 7
ENDMDL
MODEL 6
REMARK VINA RESULT:      -7.5      2.480      5.837
REMARK  7 active torsions:
REMARK  status: ('A' for Active; 'I' for Inactive)
REMARK    1  A    between atoms: C_2  and  N_3 
REMARK    2  A    between atoms: N_3  and  C_4 
REMARK    3  A    between atoms: C_6  and  N_7 
REMARK    4  A    between atoms: N_7  and  C_8 
REMARK    5  A    between atoms: C_8  and  C_9 
REMARK    6  A    between atoms: C_10  and  O_11 
REMARK    7  A    between atoms: C_14  and  O_15 
ROOT
HETATM    1  C   UNL     1      -5.071  -0.649 -33.950  1.00  0.00     0.135 A 
HETATM    2  N   UNL     1      -6.094   0.178 -34.229  1.00  0.00    -0.052 NA
HETATM    3  C   UNL     1      -7.221  -0.332 -34.748  1.00  0.00     0.702 A 
HETATM    4  N   UNL     1      -7.360  -1.633 -34.988  1.00  0.00    -0.189 N 
HETATM    5  H   UNL     1      -8.246  -1.948 -35.356  1.00  0.00     0.184 HD
HETATM    6  C   UNL     1      -6.387  -2.506 -34.706  1.00  0.00     0.062 A 
HETATM    7  C   UNL     1      -5.178  -2.039 -34.156  1.00  0.00     0.032 A 
HETATM    8  C   UNL     1      -6.583  -3.876 -34.944  1.00  0.00     0.031 A 
HETATM    9  C   UNL     1      -5.582  -4.794 -34.626  1.00  0.00     0.002 A 
HETATM   10  C   UNL     1      -4.386  -4.352 -34.069  1.00  0.00     0.001 A 
HETATM   11  C   UNL     1      -4.182  -2.990 -33.834  1.00  0.00     0.017 A 
ENDROOT
BRANCH   3  12
HETATM   12  N   UNL     1      -8.299   0.471 -35.013  1.00  0.00    -0.220 N 
HETATM   13  H   UNL     1      -8.321   1.139 -35.768  1.00  0.00     0.178 HD
BRANCH  12  14
HETATM   14  C   UNL     1      -9.314   0.688 -33.984  1.00  0.00     0.179 C 
BRANCH  14  15
HETATM   15  C   UNL     1     -10.273   1.801 -34.362  1.00  0.00    -0.006 A 
HETATM   16  C   UNL     1      -9.841   3.141 -34.275  1.00  0.00     0.078 A 
HETATM   17  C   UNL     1     -10.723   4.189 -34.577  1.00  0.00     0.074 A 
HETATM   18  C   UNL     1     -12.043   3.919 -34.944  1.00  0.00     0.070 A 
HETATM   19  C   UNL     1     -12.476   2.596 -35.014  1.00  0.00     0.037 A 
HETATM   20  C   UNL     1     -11.608   1.547 -34.718  1.00  0.00     0.014 A 
BRANCH  16  21
HETATM   21  O   UNL     1      -8.537   3.313 -33.882  1.00  0.00    -0.355 OA
HETATM   22  C   UNL     1      -8.026   4.642 -33.861  1.00  0.00     0.210 C 
ENDBRANCH  16  21
BRANCH  18  23
HETATM   23  O   UNL     1     -13.002   4.843 -35.254  1.00  0.00    -0.356 OA
HETATM   24  C   UNL     1     -12.556   6.140 -35.631  1.00  0.00     0.210 C 
ENDBRANCH  18  23
ENDBRANCH  14  15
ENDBRANCH  12  14
ENDBRANCH   3  12
BRANCH   1  25
HETATM   25  N   UNL     1      -3.912  -0.116 -33.379  1.00  0.00    -0.272 NA
HETATM   26  H   UNL     1      -3.396   0.468 -34.034  1.00  0.00     0.129 HD
BRANCH  25  27
HETATM   27  C   UNL     1      -4.000   0.498 -32.048  1.00  0.00     0.053 C 
HETATM   28  C   UNL     1      -3.805   2.012 -32.134  1.00  0.00     0.026 C 
HETATM   29  C   UNL     1      -2.910  -0.121 -31.171  1.00  0.00     0.026 C 
ENDBRANCH  25  27
ENDBRANCH   1  25
TORSDOF 7
ENDMDL
MODEL 7
REMARK VINA RESULT:      -7.4      2.745      8.234
REMARK  7 active torsions:
REMARK  status: ('A' for Active; 'I' for Inactive)
REMARK    1  A    between atoms: C_2  and  N_3 
REMARK    2  A    between atoms: N_3  and  C_4 
REMARK    3  A    between atoms: C_6  and  N_7 
REMARK    4  A    between atoms: N_7  and  C_8 
REMARK    5  A    between atoms: C_8  and  C_9 
REMARK    6  A    between atoms: C_10  and  O_11 
REMARK    7  A    between atoms: C_14  and  O_15 
ROOT
HETATM    1  C   UNL     1      -2.683   4.812 -31.161  1.00  0.00     0.135 A 
HETATM    2  N   UNL     1      -2.497   3.538 -31.548  1.00  0.00    -0.052 NA
HETATM    3  C   UNL     1      -3.470   2.916 -32.230  1.00  0.00     0.702 A 
HETATM    4  N   UNL     1      -4.612   3.524 -32.542  1.00  0.00    -0.189 N 
HETATM    5  H   UNL     1      -5.288   3.001 -33.078  1.00  0.00     0.184 HD
HETATM    6  C   UNL     1      -4.841   4.798 -32.206  1.00  0.00     0.062 A 
HETATM    7  C   UNL     1      -3.860   5.512 -31.492  1.00  0.00     0.032 A 
HETATM    8  C   UNL     1      -6.045   5.416 -32.580  1.00  0.00     0.031 A 
HETATM    9  C   UNL     1      -6.279   6.753 -32.257  1.00  0.00     0.002 A 
HETATM   10  C   UNL     1      -5.315   7.478 -31.564  1.00  0.00     0.001 A 
HETATM   11  C   UNL     1      -4.117   6.868 -31.184  1.00  0.00     0.017 A 
ENDROOT
BRANCH   3  12
HETATM   12  N   UNL     1      -3.306   1.630 -32.674  1.00  0.00    -0.220 N 
HETATM   13  H   UNL     1      -3.079   1.398 -33.630  1.00  0.00     0.178 HD
BRANCH  12  14
HETATM   14  C   UNL     1      -3.837   0.517 -31.890  1.00  0.00     0.179 C 
BRANCH  14  15
HETATM   15  C   UNL     1      -4.650  -0.437 -32.745  1.00  0.00    -0.006 A 
HETATM   16  C   UNL     1      -6.005  -0.143 -33.007  1.00  0.00     0.078 A 
HETATM   17  C   UNL     1      -6.790  -1.031 -33.757  1.00  0.00     0.074 A 
HETATM   18  C   UNL     1      -6.246  -2.226 -34.231  1.00  0.00     0.070 A 
HETATM   19  C   UNL     1      -4.913  -2.527 -33.959  1.00  0.00     0.037 A 
HETATM   20  C   UNL     1      -4.124  -1.650 -33.216  1.00  0.00     0.014 A 
BRANCH  16  21
HETATM   21  O   UNL     1      -6.461   1.041 -32.480  1.00  0.00    -0.355 OA
HETATM   22  C   UNL     1      -7.480   0.970 -31.488  1.00  0.00     0.210 C 
ENDBRANCH  16  21
BRANCH  18  23
HETATM   23  O   UNL     1      -6.900  -3.178 -34.964  1.00  0.00    -0.356 OA
HETATM   24  C   UNL     1      -6.235  -4.420 -35.159  1.00  0.00     0.210 C 
ENDBRANCH  18  23
ENDBRANCH  14  15
ENDBRANCH  12  14
ENDBRANCH   3  12
BRANCH   1  25
HETATM   25  N   UNL     1      -1.652   5.465 -30.480  1.00  0.00    -0.272 NA
HETATM   26  H   UNL     1      -1.689   5.298 -29.476  1.00  0.00     0.129 HD
BRANCH  25  27
HETATM   27  C   UNL     1      -0.283   5.359 -31.003  1.00  0.00     0.053 C 
HETATM   28  C   UNL     1       0.674   4.854 -29.923  1.00  0.00     0.026 C 
HETATM   29  C   UNL     1       0.148   6.748 -31.476  1.00  0.00     0.026 C 
ENDBRANCH  25  27
ENDBRANCH   1  25
TORSDOF 7
ENDMDL
MODEL 8
REMARK VINA RESULT:      -7.3      3.403      6.447
REMARK  7 active torsions:
REMARK  status: ('A' for Active; 'I' for Inactive)
REMARK    1  A    between atoms: C_2  and  N_3 
REMARK    2  A    between atoms: N_3  and  C_4 
REMARK    3  A    between atoms: C_6  and  N_7 
REMARK    4  A    between atoms: N_7  and  C_8 
REMARK    5  A    between atoms: C_8  and  C_9 
REMARK    6  A    between atoms: C_10  and  O_11 
REMARK    7  A    between atoms: C_14  and  O_15 
ROOT
HETATM    1  C   UNL     1      -6.380   0.512 -31.809  1.00  0.00     0.135 A 
HETATM    2  N   UNL     1      -7.654   0.906 -31.638  1.00  0.00    -0.052 NA
HETATM    3  C   UNL     1      -8.610   0.376 -32.416  1.00  0.00     0.702 A 
HETATM    4  N   UNL     1      -8.336  -0.534 -33.348  1.00  0.00    -0.189 N 
HETATM    5  H   UNL     1      -9.109  -0.907 -33.879  1.00  0.00     0.184 HD
HETATM    6  C   UNL     1      -7.091  -0.982 -33.544  1.00  0.00     0.062 A 
HETATM    7  C   UNL     1      -6.040  -0.470 -32.759  1.00  0.00     0.032 A 
HETATM    8  C   UNL     1      -6.845  -1.966 -34.515  1.00  0.00     0.031 A 
HETATM    9  C   UNL     1      -5.553  -2.457 -34.706  1.00  0.00     0.002 A 
HETATM   10  C   UNL     1      -4.505  -1.973 -33.930  1.00  0.00     0.001 A 
HETATM   11  C   UNL     1      -4.742  -0.991 -32.965  1.00  0.00     0.017 A 
ENDROOT
BRANCH   3  12
HETATM   12  N   UNL     1      -9.925   0.723 -32.250  1.00  0.00    -0.220 N 
HETATM   13  H   UNL     1     -10.355   0.853 -31.347  1.00  0.00     0.178 HD
BRANCH  12  14
HETATM   14  C   UNL     1     -10.870   0.534 -33.348  1.00  0.00     0.179 C 
BRANCH  14  15
HETATM   15  C   UNL     1     -11.335   1.858 -33.926  1.00  0.00    -0.006 A 
HETATM   16  C   UNL     1     -12.710   2.175 -33.902  1.00  0.00     0.078 A 
HETATM   17  C   UNL     1     -13.170   3.372 -34.470  1.00  0.00     0.074 A 
HETATM   18  C   UNL     1     -12.277   4.252 -35.084  1.00  0.00     0.070 A 
HETATM   19  C   UNL     1     -10.920   3.933 -35.124  1.00  0.00     0.037 A 
HETATM   20  C   UNL     1     -10.453   2.746 -34.562  1.00  0.00     0.014 A 
BRANCH  16  21
HETATM   21  O   UNL     1     -13.517   1.240 -33.301  1.00  0.00    -0.355 OA
HETATM   22  C   UNL     1     -14.564   0.675 -34.083  1.00  0.00     0.210 C 
ENDBRANCH  16  21
BRANCH  18  23
HETATM   23  O   UNL     1     -12.593   5.442 -35.679  1.00  0.00    -0.356 OA
HETATM   24  C   UNL     1     -11.718   6.539 -35.446  1.00  0.00     0.210 C 
ENDBRANCH  18  23
ENDBRANCH  14  15
ENDBRANCH  12  14
ENDBRANCH   3  12
BRANCH   1  25
HETATM   25  N   UNL     1      -5.395   1.044 -30.972  1.00  0.00    -0.272 NA
HETATM   26  H   UNL     1      -4.633   0.388 -30.813  1.00  0.00     0.129 HD
BRANCH  25  27
HETATM   27  C   UNL     1      -4.904   2.403 -31.236  1.00  0.00     0.053 C 
HETATM   28  C   UNL     1      -3.381   2.414 -31.371  1.00  0.00     0.026 C 
HETATM   29  C   UNL     1      -5.332   3.294 -30.069  1.00  0.00     0.026 C 
ENDBRANCH  25  27
ENDBRANCH   1  25
TORSDOF 7
ENDMDL
MODEL 9
REMARK VINA RESULT:      -7.3      3.265      7.867
REMARK  7 active torsions:
REMARK  status: ('A' for Active; 'I' for Inactive)
REMARK    1  A    between atoms: C_2  and  N_3 
REMARK    2  A    between atoms: N_3  and  C_4 
REMARK    3  A    between atoms: C_6  and  N_7 
REMARK    4  A    between atoms: N_7  and  C_8 
REMARK    5  A    between atoms: C_8  and  C_9 
REMARK    6  A    between atoms: C_10  and  O_11 
REMARK    7  A    between atoms: C_14  and  O_15 
ROOT
HETATM    1  C   UNL     1      -4.835   5.030 -30.602  1.00  0.00     0.135 A 
HETATM    2  N   UNL     1      -5.577   3.959 -30.934  1.00  0.00    -0.052 NA
HETATM    3  C   UNL     1      -5.113   3.106 -31.860  1.00  0.00     0.702 A 
HETATM    4  N   UNL     1      -3.936   3.285 -32.455  1.00  0.00    -0.189 N 
HETATM    5  H   UNL     1      -3.641   2.589 -33.124  1.00  0.00     0.184 HD
HETATM    6  C   UNL     1      -3.144   4.317 -32.146  1.00  0.00     0.062 A 
HETATM    7  C   UNL     1      -3.568   5.248 -31.179  1.00  0.00     0.032 A 
HETATM    8  C   UNL     1      -1.895   4.454 -32.771  1.00  0.00     0.031 A 
HETATM    9  C   UNL     1      -1.052   5.513 -32.433  1.00  0.00     0.002 A 
HETATM   10  C   UNL     1      -1.449   6.435 -31.470  1.00  0.00     0.001 A 
HETATM   11  C   UNL     1      -2.692   6.307 -30.846  1.00  0.00     0.017 A 
ENDROOT
BRANCH   3  12
HETATM   12  N   UNL     1      -5.822   1.984 -32.201  1.00  0.00    -0.220 N 
HETATM   13  H   UNL     1      -6.034   1.243 -31.550  1.00  0.00     0.178 HD
BRANCH  12  14
HETATM   14  C   UNL     1      -5.963   1.613 -33.607  1.00  0.00     0.179 C 
BRANCH  14  15
HETATM   15  C   UNL     1      -5.840   0.115 -33.811  1.00  0.00    -0.006 A 
HETATM   16  C   UNL     1      -4.649  -0.537 -33.426  1.00  0.00     0.078 A 
HETATM   17  C   UNL     1      -4.493  -1.913 -33.645  1.00  0.00     0.074 A 
HETATM   18  C   UNL     1      -5.505  -2.649 -34.265  1.00  0.00     0.070 A 
HETATM   19  C   UNL     1      -6.675  -2.004 -34.661  1.00  0.00     0.037 A 
HETATM   20  C   UNL     1      -6.840  -0.637 -34.448  1.00  0.00     0.014 A 
BRANCH  16  21
HETATM   21  O   UNL     1      -3.700   0.270 -32.847  1.00  0.00    -0.355 OA
HETATM   22  C   UNL     1      -3.057  -0.211 -31.670  1.00  0.00     0.210 C 
ENDBRANCH  16  21
BRANCH  18  23
HETATM   23  O   UNL     1      -5.477  -3.988 -34.543  1.00  0.00    -0.356 OA
HETATM   24  C   UNL     1      -6.531  -4.508 -35.344  1.00  0.00     0.210 C 
ENDBRANCH  18  23
ENDBRANCH  14  15
ENDBRANCH  12  14
ENDBRANCH   3  12
BRANCH   1  25
HETATM   25  N   UNL     1      -5.309   5.896 -29.613  1.00  0.00    -0.272 NA
HETATM   26  H   UNL     1      -5.890   6.637 -29.999  1.00  0.00     0.129 HD
BRANCH  25  27
HETATM   27  C   UNL     1      -5.892   5.321 -28.393  1.00  0.00     0.053 C 
HETATM   28  C   UNL     1      -7.392   5.610 -28.319  1.00  0.00     0.026 C 
HETATM   29  C   UNL     1      -5.180   5.945 -27.192  1.00  0.00     0.026 C 
ENDBRANCH  25  27
ENDBRANCH   1  25
TORSDOF 7
ENDMDL
MODEL 10
REMARK VINA RESULT:      -7.1      2.468      7.258
REMARK  7 active torsions:
REMARK  status: ('A' for Active; 'I' for Inactive)
REMARK    1  A    between atoms: C_2  and  N_3 
REMARK    2  A    between atoms: N_3  and  C_4 
REMARK    3  A    between atoms: C_6  and  N_7 
REMARK    4  A    between atoms: N_7  and  C_8 
REMARK    5  A    between atoms: C_8  and  C_9 
REMARK    6  A    between atoms: C_10  and  O_11 
REMARK    7  A    between atoms: C_14  and  O_15 
ROOT
HETATM    1  C   UNL     1      -4.841   4.413 -33.207  1.00  0.00     0.135 A 
HETATM    2  N   UNL     1      -5.046   3.205 -32.653  1.00  0.00    -0.052 NA
HETATM    3  C   UNL     1      -4.023   2.584 -32.048  1.00  0.00     0.702 A 
HETATM    4  N   UNL     1      -2.811   3.130 -31.973  1.00  0.00    -0.189 N 
HETATM    5  H   UNL     1      -2.097   2.615 -31.480  1.00  0.00     0.184 HD
HETATM    6  C   UNL     1      -2.556   4.340 -32.482  1.00  0.00     0.062 A 
HETATM    7  C   UNL     1      -3.586   5.050 -33.128  1.00  0.00     0.032 A 
HETATM    8  C   UNL     1      -1.274   4.898 -32.355  1.00  0.00     0.031 A 
HETATM    9  C   UNL     1      -1.008   6.171 -32.860  1.00  0.00     0.002 A 
HETATM   10  C   UNL     1      -2.018   6.892 -33.489  1.00  0.00     0.001 A 
HETATM   11  C   UNL     1      -3.295   6.342 -33.623  1.00  0.00     0.017 A 
ENDROOT
BRANCH   3  12
HETATM   12  N   UNL     1      -4.198   1.368 -31.440  1.00  0.00    -0.220 N 
HETATM   13  H   UNL     1      -3.434   0.765 -31.176  1.00  0.00     0.178 HD
BRANCH  12  14
HETATM   14  C   UNL     1      -5.499   0.707 -31.501  1.00  0.00     0.179 C 
BRANCH  14  15
HETATM   15  C   UNL     1      -5.543  -0.353 -32.587  1.00  0.00    -0.006 A 
HETATM   16  C   UNL     1      -6.784  -0.700 -33.161  1.00  0.00     0.078 A 
HETATM   17  C   UNL     1      -6.856  -1.707 -34.135  1.00  0.00     0.074 A 
HETATM   18  C   UNL     1      -5.705  -2.393 -34.528  1.00  0.00     0.070 A 
HETATM   19  C   UNL     1      -4.480  -2.063 -33.950  1.00  0.00     0.037 A 
HETATM   20  C   UNL     1      -4.398  -1.063 -32.983  1.00  0.00     0.014 A 
BRANCH  16  21
HETATM   21  O   UNL     1      -7.864   0.008 -32.696  1.00  0.00    -0.355 OA
HETATM   22  C   UNL     1      -8.909   0.298 -33.619  1.00  0.00     0.210 C 
ENDBRANCH  16  21
BRANCH  18  23
HETATM   23  O   UNL     1      -5.638  -3.395 -35.456  1.00  0.00    -0.356 OA
HETATM   24  C   UNL     1      -6.442  -4.547 -35.229  1.00  0.00     0.210 C 
ENDBRANCH  18  23
ENDBRANCH  14  15
ENDBRANCH  12  14
ENDBRANCH   3  12
BRANCH   1  25
HETATM   25  N   UNL     1      -5.919   5.069 -33.806  1.00  0.00    -0.272 NA
HETATM   26  H   UNL     1      -6.199   4.628 -34.679  1.00  0.00     0.129 HD
BRANCH  25  27
HETATM   27  C   UNL     1      -7.078   5.427 -32.976  1.00  0.00     0.053 C 
HETATM   28  C   UNL     1      -8.366   5.390 -33.797  1.00  0.00     0.026 C 
HETATM   29  C   UNL     1      -6.847   6.835 -32.427  1.00  0.00     0.026 C 
ENDBRANCH  25  27
ENDBRANCH   1  25
TORSDOF 7
ENDMDL
