MODEL 1
REMARK VINA RESULT:      -8.9      0.000      0.000
REMARK  5 active torsions:
REMARK  status: ('A' for Active; 'I' for Inactive)
REMARK    1  A    between atoms: C_4  and  N_5 
REMARK    2  A    between atoms: C_8  and  N_9 
REMARK    3  A    between atoms: C_14  and  N_15 
REMARK    4  A    between atoms: N_15  and  C_16 
REMARK    5  A    between atoms: C_19  and  C_20 
REMARK       I    between atoms: C_20  and  N_21 
ROOT
HETATM    1  C   UNL     1      -7.421   3.042 -29.795  1.00  0.00     0.071 C 
HETATM    2  C   UNL     1      -6.538   2.868 -30.994  1.00  0.00     0.053 A 
HETATM    3  N   UNL     1      -5.466   3.670 -31.094  1.00  0.00    -0.066 NA
HETATM    4  C   UNL     1      -4.690   3.524 -32.188  1.00  0.00     0.751 A 
HETATM    5  N   UNL     1      -4.931   2.641 -33.181  1.00  0.00    -0.043 NA
HETATM    6  C   UNL     1      -6.001   1.842 -33.051  1.00  0.00     0.149 A 
HETATM    7  C   UNL     1      -6.836   1.921 -31.950  1.00  0.00     0.078 A 
ENDROOT
BRANCH   6   8
HETATM    8  N   UNL     1      -6.320   0.887 -34.043  1.00  0.00    -0.340 N 
HETATM    9  H   UNL     1      -7.210   1.110 -34.473  1.00  0.00     0.167 HD
BRANCH   8  10
HETATM   10  C   UNL     1      -6.023  -0.491 -34.069  1.00  0.00     0.033 A 
HETATM   11  C   UNL     1      -6.990  -1.392 -34.540  1.00  0.00     0.030 A 
HETATM   12  C   UNL     1      -6.706  -2.757 -34.680  1.00  0.00     0.019 A 
HETATM   13  C   UNL     1      -5.434  -3.242 -34.365  1.00  0.00     0.032 A 
HETATM   14  C   UNL     1      -4.453  -2.350 -33.921  1.00  0.00     0.019 A 
HETATM   15  C   UNL     1      -4.747  -0.989 -33.779  1.00  0.00     0.030 A 
BRANCH  13  16
HETATM   16  C   UNL     1      -5.064  -4.673 -34.532  1.00  0.00     0.249 C 
HETATM   17  N   UNL     1      -3.963  -5.125 -33.859  1.00  0.00    -0.366 N 
HETATM   18  H   UNL     1      -3.277  -4.503 -33.458  1.00  0.00     0.159 HD
HETATM   19  H   UNL     1      -3.672  -6.070 -34.073  1.00  0.00     0.159 HD
HETATM   20  O   UNL     1      -5.699  -5.421 -35.265  1.00  0.00    -0.268 OA
ENDBRANCH  13  16
ENDBRANCH   8  10
ENDBRANCH   6   8
BRANCH   4  21
HETATM   21  N   UNL     1      -3.513   4.342 -32.304  1.00  0.00    -0.069 N 
HETATM   22  N   UNL     1      -2.299   3.969 -31.794  1.00  0.00    -0.163 NA
HETATM   23  C   UNL     1      -1.474   4.965 -32.126  1.00  0.00     0.177 A 
HETATM   24  C   UNL     1      -2.123   5.980 -32.840  1.00  0.00     0.140 A 
HETATM   25  C   UNL     1      -3.434   5.569 -32.938  1.00  0.00     0.175 A 
BRANCH  24  26
HETATM   26  N   UNL     1      -1.551   7.180 -33.364  1.00  0.00    -0.113 N 
HETATM   27  O   UNL     1      -1.910   8.241 -32.841  1.00  0.00    -0.532 OA
HETATM   28  O   UNL     1      -0.742   7.061 -34.293  1.00  0.00    -0.532 OA
ENDBRANCH  24  26
ENDBRANCH   4  21
TORSDOF 5
ENDMDL
MODEL 2
REMARK VINA RESULT:      -8.7      1.673      2.202
REMARK  5 active torsions:
REMARK  status: ('A' for Active; 'I' for Inactive)
REMARK    1  A    between atoms: C_4  and  N_5 
REMARK    2  A    between atoms: C_8  and  N_9 
REMARK    3  A    between atoms: C_14  and  N_15 
REMARK    4  A    between atoms: N_15  and  C_16 
REMARK    5  A    between atoms: C_19  and  C_20 
REMARK       I    between atoms: C_20  and  N_21 
ROOT
HETATM    1  C   UNL     1      -6.841   2.678 -30.099  1.00  0.00     0.071 C 
HETATM    2  C   UNL     1      -5.439   2.450 -30.579  1.00  0.00     0.053 A 
HETATM    3  N   UNL     1      -4.706   3.533 -30.885  1.00  0.00    -0.066 NA
HETATM    4  C   UNL     1      -3.454   3.319 -31.339  1.00  0.00     0.751 A 
HETATM    5  N   UNL     1      -2.906   2.097 -31.515  1.00  0.00    -0.043 NA
HETATM    6  C   UNL     1      -3.654   1.031 -31.190  1.00  0.00     0.149 A 
HETATM    7  C   UNL     1      -4.942   1.171 -30.703  1.00  0.00     0.078 A 
ENDROOT
BRANCH   6   8
HETATM    8  N   UNL     1      -3.152  -0.281 -31.340  1.00  0.00    -0.340 N 
HETATM    9  H   UNL     1      -2.153  -0.298 -31.168  1.00  0.00     0.167 HD
BRANCH   8  10
HETATM   10  C   UNL     1      -3.578  -1.293 -32.225  1.00  0.00     0.033 A 
HETATM   11  C   UNL     1      -3.158  -2.614 -32.009  1.00  0.00     0.030 A 
HETATM   12  C   UNL     1      -3.635  -3.668 -32.799  1.00  0.00     0.019 A 
HETATM   13  C   UNL     1      -4.562  -3.416 -33.815  1.00  0.00     0.032 A 
HETATM   14  C   UNL     1      -5.011  -2.108 -34.021  1.00  0.00     0.019 A 
HETATM   15  C   UNL     1      -4.523  -1.060 -33.231  1.00  0.00     0.030 A 
BRANCH  13  16
HETATM   16  C   UNL     1      -5.134  -4.500 -34.657  1.00  0.00     0.249 C 
HETATM   17  N   UNL     1      -6.231  -4.199 -35.416  1.00  0.00    -0.366 N 
HETATM   18  H   UNL     1      -6.793  -3.377 -35.259  1.00  0.00     0.159 HD
HETATM   19  H   UNL     1      -6.662  -4.979 -35.897  1.00  0.00     0.159 HD
HETATM   20  O   UNL     1      -4.664  -5.631 -34.658  1.00  0.00    -0.268 OA
ENDBRANCH  13  16
ENDBRANCH   8  10
ENDBRANCH   6   8
BRANCH   4  21
HETATM   21  N   UNL     1      -2.632   4.460 -31.637  1.00  0.00    -0.069 N 
HETATM   22  N   UNL     1      -1.284   4.483 -31.401  1.00  0.00    -0.163 NA
HETATM   23  C   UNL     1      -0.888   5.684 -31.829  1.00  0.00     0.177 A 
HETATM   24  C   UNL     1      -1.947   6.445 -32.340  1.00  0.00     0.140 A 
HETATM   25  C   UNL     1      -3.062   5.648 -32.200  1.00  0.00     0.175 A 
BRANCH  24  26
HETATM   26  N   UNL     1      -1.888   7.760 -32.894  1.00  0.00    -0.113 N 
HETATM   27  O   UNL     1      -1.516   7.852 -34.070  1.00  0.00    -0.532 OA
HETATM   28  O   UNL     1      -2.217   8.699 -32.158  1.00  0.00    -0.532 OA
ENDBRANCH  24  26
ENDBRANCH   4  21
TORSDOF 5
ENDMDL
MODEL 3
REMARK VINA RESULT:      -8.4      1.810      8.219
REMARK  5 active torsions:
REMARK  status: ('A' for Active; 'I' for Inactive)
REMARK    1  A    between atoms: C_4  and  N_5 
REMARK    2  A    between atoms: C_8  and  N_9 
REMARK    3  A    between atoms: C_14  and  N_15 
REMARK    4  A    between atoms: N_15  and  C_16 
REMARK    5  A    between atoms: C_19  and  C_20 
REMARK       I    between atoms: C_20  and  N_21 
ROOT
HETATM    1  C   UNL     1     -10.384   0.812 -33.143  1.00  0.00     0.071 C 
HETATM    2  C   UNL     1      -8.886   0.862 -33.145  1.00  0.00     0.053 A 
HETATM    3  N   UNL     1      -8.229  -0.256 -33.496  1.00  0.00    -0.066 NA
HETATM    4  C   UNL     1      -6.882  -0.210 -33.472  1.00  0.00     0.751 A 
HETATM    5  N   UNL     1      -6.162   0.874 -33.109  1.00  0.00    -0.043 NA
HETATM    6  C   UNL     1      -6.841   1.983 -32.775  1.00  0.00     0.149 A 
HETATM    7  C   UNL     1      -8.224   2.018 -32.790  1.00  0.00     0.078 A 
ENDROOT
BRANCH   6   8
HETATM    8  N   UNL     1      -6.163   3.161 -32.389  1.00  0.00    -0.340 N 
HETATM    9  H   UNL     1      -6.820   3.843 -32.027  1.00  0.00     0.167 HD
BRANCH   8  10
HETATM   10  C   UNL     1      -5.017   3.748 -32.963  1.00  0.00     0.033 A 
HETATM   11  C   UNL     1      -5.150   4.508 -34.135  1.00  0.00     0.030 A 
HETATM   12  C   UNL     1      -4.060   5.193 -34.687  1.00  0.00     0.019 A 
HETATM   13  C   UNL     1      -2.812   5.142 -34.058  1.00  0.00     0.032 A 
HETATM   14  C   UNL     1      -2.673   4.412 -32.874  1.00  0.00     0.019 A 
HETATM   15  C   UNL     1      -3.767   3.725 -32.334  1.00  0.00     0.030 A 
BRANCH  13  16
HETATM   16  C   UNL     1      -1.630   5.882 -34.574  1.00  0.00     0.249 C 
HETATM   17  N   UNL     1      -0.768   5.206 -35.392  1.00  0.00    -0.366 N 
HETATM   18  H   UNL     1      -0.765   4.200 -35.468  1.00  0.00     0.159 HD
HETATM   19  H   UNL     1       0.080   5.698 -35.643  1.00  0.00     0.159 HD
HETATM   20  O   UNL     1      -1.414   7.047 -34.264  1.00  0.00    -0.268 OA
ENDBRANCH  13  16
ENDBRANCH   8  10
ENDBRANCH   6   8
BRANCH   4  21
HETATM   21  N   UNL     1      -6.152  -1.379 -33.881  1.00  0.00    -0.069 N 
HETATM   22  N   UNL     1      -4.785  -1.444 -33.860  1.00  0.00    -0.163 NA
HETATM   23  C   UNL     1      -4.500  -2.679 -34.279  1.00  0.00     0.177 A 
HETATM   24  C   UNL     1      -5.650  -3.423 -34.571  1.00  0.00     0.140 A 
HETATM   25  C   UNL     1      -6.702  -2.570 -34.319  1.00  0.00     0.175 A 
BRANCH  24  26
HETATM   26  N   UNL     1      -5.722  -4.776 -35.024  1.00  0.00    -0.113 N 
HETATM   27  O   UNL     1      -4.853  -5.549 -34.604  1.00  0.00    -0.532 OA
HETATM   28  O   UNL     1      -6.647  -5.065 -35.793  1.00  0.00    -0.532 OA
ENDBRANCH  24  26
ENDBRANCH   4  21
TORSDOF 5
ENDMDL
MODEL 4
REMARK VINA RESULT:      -8.4      5.028      7.014
REMARK  5 active torsions:
REMARK  status: ('A' for Active; 'I' for Inactive)
REMARK    1  A    between atoms: C_4  and  N_5 
REMARK    2  A    between atoms: C_8  and  N_9 
REMARK    3  A    between atoms: C_14  and  N_15 
REMARK    4  A    between atoms: N_15  and  C_16 
REMARK    5  A    between atoms: C_19  and  C_20 
REMARK       I    between atoms: C_20  and  N_21 
ROOT
HETATM    1  C   UNL     1      -7.530   3.534 -30.265  1.00  0.00     0.071 C 
HETATM    2  C   UNL     1      -7.793   2.725 -31.500  1.00  0.00     0.053 A 
HETATM    3  N   UNL     1      -9.069   2.617 -31.908  1.00  0.00    -0.066 NA
HETATM    4  C   UNL     1      -9.300   1.867 -33.005  1.00  0.00     0.751 A 
HETATM    5  N   UNL     1      -8.342   1.217 -33.701  1.00  0.00    -0.043 NA
HETATM    6  C   UNL     1      -7.074   1.352 -33.280  1.00  0.00     0.149 A 
HETATM    7  C   UNL     1      -6.755   2.116 -32.172  1.00  0.00     0.078 A 
ENDROOT
BRANCH   6   8
HETATM    8  N   UNL     1      -6.013   0.708 -33.956  1.00  0.00    -0.340 N 
HETATM    9  H   UNL     1      -5.825   1.171 -34.838  1.00  0.00     0.167 HD
BRANCH   8  10
HETATM   10  C   UNL     1      -5.676  -0.661 -33.966  1.00  0.00     0.033 A 
HETATM   11  C   UNL     1      -6.477  -1.559 -34.688  1.00  0.00     0.030 A 
HETATM   12  C   UNL     1      -6.127  -2.909 -34.812  1.00  0.00     0.019 A 
HETATM   13  C   UNL     1      -4.950  -3.383 -34.226  1.00  0.00     0.032 A 
HETATM   14  C   UNL     1      -4.128  -2.493 -33.528  1.00  0.00     0.019 A 
HETATM   15  C   UNL     1      -4.490  -1.146 -33.404  1.00  0.00     0.030 A 
BRANCH  13  16
HETATM   16  C   UNL     1      -4.507  -4.796 -34.359  1.00  0.00     0.249 C 
HETATM   17  N   UNL     1      -3.292  -5.131 -33.830  1.00  0.00    -0.366 N 
HETATM   18  H   UNL     1      -2.601  -4.442 -33.573  1.00  0.00     0.159 HD
HETATM   19  H   UNL     1      -2.968  -6.070 -34.027  1.00  0.00     0.159 HD
HETATM   20  O   UNL     1      -5.186  -5.631 -34.943  1.00  0.00    -0.268 OA
ENDBRANCH  13  16
ENDBRANCH   8  10
ENDBRANCH   6   8
BRANCH   4  21
HETATM   21  N   UNL     1     -10.651   1.765 -33.489  1.00  0.00    -0.069 N 
HETATM   22  N   UNL     1     -11.230   2.724 -34.275  1.00  0.00    -0.163 NA
HETATM   23  C   UNL     1     -12.454   2.256 -34.530  1.00  0.00     0.177 A 
HETATM   24  C   UNL     1     -12.686   1.013 -33.928  1.00  0.00     0.140 A 
HETATM   25  C   UNL     1     -11.521   0.716 -33.256  1.00  0.00     0.175 A 
BRANCH  24  26
HETATM   26  N   UNL     1     -13.870   0.217 -34.001  1.00  0.00    -0.113 N 
HETATM   27  O   UNL     1     -14.821   0.691 -34.634  1.00  0.00    -0.532 OA
HETATM   28  O   UNL     1     -13.848  -0.882 -33.432  1.00  0.00    -0.532 OA
ENDBRANCH  24  26
ENDBRANCH   4  21
TORSDOF 5
ENDMDL
MODEL 5
REMARK VINA RESULT:      -8.3      1.704      2.233
REMARK  5 active torsions:
REMARK  status: ('A' for Active; 'I' for Inactive)
REMARK    1  A    between atoms: C_4  and  N_5 
REMARK    2  A    between atoms: C_8  and  N_9 
REMARK    3  A    between atoms: C_14  and  N_15 
REMARK    4  A    between atoms: N_15  and  C_16 
REMARK    5  A    between atoms: C_19  and  C_20 
REMARK       I    between atoms: C_20  and  N_21 
ROOT
HETATM    1  C   UNL     1      -9.510   4.107 -34.215  1.00  0.00     0.071 C 
HETATM    2  C   UNL     1      -8.148   3.591 -33.858  1.00  0.00     0.053 A 
HETATM    3  N   UNL     1      -7.099   4.394 -34.099  1.00  0.00    -0.066 NA
HETATM    4  C   UNL     1      -5.876   3.913 -33.799  1.00  0.00     0.751 A 
HETATM    5  N   UNL     1      -5.644   2.683 -33.290  1.00  0.00    -0.043 NA
HETATM    6  C   UNL     1      -6.710   1.904 -33.047  1.00  0.00     0.149 A 
HETATM    7  C   UNL     1      -7.998   2.334 -33.314  1.00  0.00     0.078 A 
ENDROOT
BRANCH   6   8
HETATM    8  N   UNL     1      -6.553   0.606 -32.510  1.00  0.00    -0.340 N 
HETATM    9  H   UNL     1      -6.098   0.651 -31.606  1.00  0.00     0.167 HD
BRANCH   8  10
HETATM   10  C   UNL     1      -6.314  -0.606 -33.190  1.00  0.00     0.033 A 
HETATM   11  C   UNL     1      -5.023  -1.156 -33.178  1.00  0.00     0.030 A 
HETATM   12  C   UNL     1      -4.759  -2.406 -33.751  1.00  0.00     0.019 A 
HETATM   13  C   UNL     1      -5.796  -3.140 -34.335  1.00  0.00     0.032 A 
HETATM   14  C   UNL     1      -7.092  -2.617 -34.328  1.00  0.00     0.019 A 
HETATM   15  C   UNL     1      -7.345  -1.363 -33.758  1.00  0.00     0.030 A 
BRANCH  13  16
HETATM   16  C   UNL     1      -5.582  -4.490 -34.922  1.00  0.00     0.249 C 
HETATM   17  N   UNL     1      -4.581  -5.258 -34.396  1.00  0.00    -0.366 N 
HETATM   18  H   UNL     1      -3.852  -4.877 -33.810  1.00  0.00     0.159 HD
HETATM   19  H   UNL     1      -4.388  -6.125 -34.880  1.00  0.00     0.159 HD
HETATM   20  O   UNL     1      -6.256  -4.898 -35.859  1.00  0.00    -0.268 OA
ENDBRANCH  13  16
ENDBRANCH   8  10
ENDBRANCH   6   8
BRANCH   4  21
HETATM   21  N   UNL     1      -4.737   4.765 -34.008  1.00  0.00    -0.069 N 
HETATM   22  N   UNL     1      -4.059   4.817 -35.196  1.00  0.00    -0.163 NA
HETATM   23  C   UNL     1      -3.104   5.729 -35.000  1.00  0.00     0.177 A 
HETATM   24  C   UNL     1      -3.144   6.274 -33.710  1.00  0.00     0.140 A 
HETATM   25  C   UNL     1      -4.192   5.638 -33.083  1.00  0.00     0.175 A 
BRANCH  24  26
HETATM   26  N   UNL     1      -2.289   7.279 -33.162  1.00  0.00    -0.113 N 
HETATM   27  O   UNL     1      -2.430   7.532 -31.959  1.00  0.00    -0.532 OA
HETATM   28  O   UNL     1      -1.477   7.809 -33.929  1.00  0.00    -0.532 OA
ENDBRANCH  24  26
ENDBRANCH   4  21
TORSDOF 5
ENDMDL
MODEL 6
REMARK VINA RESULT:      -8.0      2.903      4.231
REMARK  5 active torsions:
REMARK  status: ('A' for Active; 'I' for Inactive)
REMARK    1  A    between atoms: C_4  and  N_5 
REMARK    2  A    between atoms: C_8  and  N_9 
REMARK    3  A    between atoms: C_14  and  N_15 
REMARK    4  A    between atoms: N_15  and  C_16 
REMARK    5  A    between atoms: C_19  and  C_20 
REMARK       I    between atoms: C_20  and  N_21 
ROOT
HETATM    1  C   UNL     1      -1.766   5.310 -35.075  1.00  0.00     0.071 C 
HETATM    2  C   UNL     1      -2.021   4.770 -33.699  1.00  0.00     0.053 A 
HETATM    3  N   UNL     1      -1.175   5.138 -32.723  1.00  0.00    -0.066 NA
HETATM    4  C   UNL     1      -1.396   4.628 -31.494  1.00  0.00     0.751 A 
HETATM    5  N   UNL     1      -2.396   3.771 -31.193  1.00  0.00    -0.043 NA
HETATM    6  C   UNL     1      -3.235   3.429 -32.183  1.00  0.00     0.149 A 
HETATM    7  C   UNL     1      -3.083   3.922 -33.467  1.00  0.00     0.078 A 
ENDROOT
BRANCH   6   8
HETATM    8  N   UNL     1      -4.310   2.541 -31.949  1.00  0.00    -0.340 N 
HETATM    9  H   UNL     1      -4.678   2.673 -31.013  1.00  0.00     0.167 HD
BRANCH   8  10
HETATM   10  C   UNL     1      -4.493   1.231 -32.436  1.00  0.00     0.033 A 
HETATM   11  C   UNL     1      -5.606   0.950 -33.244  1.00  0.00     0.030 A 
HETATM   12  C   UNL     1      -5.777  -0.309 -33.834  1.00  0.00     0.019 A 
HETATM   13  C   UNL     1      -4.820  -1.309 -33.637  1.00  0.00     0.032 A 
HETATM   14  C   UNL     1      -3.693  -1.033 -32.858  1.00  0.00     0.019 A 
HETATM   15  C   UNL     1      -3.534   0.226 -32.267  1.00  0.00     0.030 A 
BRANCH  13  16
HETATM   16  C   UNL     1      -4.928  -2.650 -34.271  1.00  0.00     0.249 C 
HETATM   17  N   UNL     1      -4.033  -3.608 -33.884  1.00  0.00    -0.366 N 
HETATM   18  H   UNL     1      -3.185  -3.390 -33.382  1.00  0.00     0.159 HD
HETATM   19  H   UNL     1      -4.061  -4.475 -34.405  1.00  0.00     0.159 HD
HETATM   20  O   UNL     1      -5.768  -2.890 -35.129  1.00  0.00    -0.268 OA
ENDBRANCH  13  16
ENDBRANCH   8  10
ENDBRANCH   6   8
BRANCH   4  21
HETATM   21  N   UNL     1      -0.530   5.036 -30.421  1.00  0.00    -0.069 N 
HETATM   22  N   UNL     1       0.575   4.319 -30.048  1.00  0.00    -0.163 NA
HETATM   23  C   UNL     1       1.116   5.028 -29.054  1.00  0.00     0.177 A 
HETATM   24  C   UNL     1       0.389   6.191 -28.770  1.00  0.00     0.140 A 
HETATM   25  C   UNL     1      -0.670   6.176 -29.651  1.00  0.00     0.175 A 
BRANCH  24  26
HETATM   26  N   UNL     1       0.683   7.185 -27.787  1.00  0.00    -0.113 N 
HETATM   27  O   UNL     1       1.370   8.145 -28.156  1.00  0.00    -0.532 OA
HETATM   28  O   UNL     1       0.225   7.009 -26.651  1.00  0.00    -0.532 OA
ENDBRANCH  24  26
ENDBRANCH   4  21
TORSDOF 5
ENDMDL
MODEL 7
REMARK VINA RESULT:      -8.0      4.512      7.712
REMARK  5 active torsions:
REMARK  status: ('A' for Active; 'I' for Inactive)
REMARK    1  A    between atoms: C_4  and  N_5 
REMARK    2  A    between atoms: C_8  and  N_9 
REMARK    3  A    between atoms: C_14  and  N_15 
REMARK    4  A    between atoms: N_15  and  C_16 
REMARK    5  A    between atoms: C_19  and  C_20 
REMARK       I    between atoms: C_20  and  N_21 
ROOT
HETATM    1  C   UNL     1      -3.249   2.852 -32.110  1.00  0.00     0.071 C 
HETATM    2  C   UNL     1      -4.425   1.938 -32.284  1.00  0.00     0.053 A 
HETATM    3  N   UNL     1      -4.185   0.705 -32.759  1.00  0.00    -0.066 NA
HETATM    4  C   UNL     1      -5.251  -0.103 -32.936  1.00  0.00     0.751 A 
HETATM    5  N   UNL     1      -6.529   0.254 -32.681  1.00  0.00    -0.043 NA
HETATM    6  C   UNL     1      -6.740   1.487 -32.195  1.00  0.00     0.149 A 
HETATM    7  C   UNL     1      -5.696   2.368 -31.972  1.00  0.00     0.078 A 
ENDROOT
BRANCH   6   8
HETATM    8  N   UNL     1      -8.047   1.936 -31.897  1.00  0.00    -0.340 N 
HETATM    9  H   UNL     1      -8.167   2.031 -30.895  1.00  0.00     0.167 HD
BRANCH   8  10
HETATM   10  C   UNL     1      -9.251   1.656 -32.574  1.00  0.00     0.033 A 
HETATM   11  C   UNL     1      -9.730   0.336 -32.604  1.00  0.00     0.030 A 
HETATM   12  C   UNL     1     -10.970   0.025 -33.175  1.00  0.00     0.019 A 
HETATM   13  C   UNL     1     -11.765   1.040 -33.715  1.00  0.00     0.032 A 
HETATM   14  C   UNL     1     -11.313   2.362 -33.667  1.00  0.00     0.019 A 
HETATM   15  C   UNL     1     -10.069   2.662 -33.099  1.00  0.00     0.030 A 
BRANCH  13  16
HETATM   16  C   UNL     1     -13.108   0.774 -34.298  1.00  0.00     0.249 C 
HETATM   17  N   UNL     1     -13.738  -0.383 -33.933  1.00  0.00    -0.366 N 
HETATM   18  H   UNL     1     -13.255  -1.151 -33.490  1.00  0.00     0.159 HD
HETATM   19  H   UNL     1     -14.599  -0.591 -34.422  1.00  0.00     0.159 HD
HETATM   20  O   UNL     1     -13.628   1.544 -35.096  1.00  0.00    -0.268 OA
ENDBRANCH  13  16
ENDBRANCH   8  10
ENDBRANCH   6   8
BRANCH   4  21
HETATM   21  N   UNL     1      -5.021  -1.442 -33.406  1.00  0.00    -0.069 N 
HETATM   22  N   UNL     1      -3.880  -2.142 -33.120  1.00  0.00    -0.163 NA
HETATM   23  C   UNL     1      -4.059  -3.330 -33.702  1.00  0.00     0.177 A 
HETATM   24  C   UNL     1      -5.292  -3.422 -34.360  1.00  0.00     0.140 A 
HETATM   25  C   UNL     1      -5.894  -2.198 -34.168  1.00  0.00     0.175 A 
BRANCH  24  26
HETATM   26  N   UNL     1      -5.819  -4.543 -35.071  1.00  0.00    -0.113 N 
HETATM   27  O   UNL     1      -6.836  -4.346 -35.746  1.00  0.00    -0.532 OA
HETATM   28  O   UNL     1      -5.216  -5.618 -34.958  1.00  0.00    -0.532 OA
ENDBRANCH  24  26
ENDBRANCH   4  21
TORSDOF 5
ENDMDL
MODEL 8
REMARK VINA RESULT:      -7.7      1.689      2.325
REMARK  5 active torsions:
REMARK  status: ('A' for Active; 'I' for Inactive)
REMARK    1  A    between atoms: C_4  and  N_5 
REMARK    2  A    between atoms: C_8  and  N_9 
REMARK    3  A    between atoms: C_14  and  N_15 
REMARK    4  A    between atoms: N_15  and  C_16 
REMARK    5  A    between atoms: C_19  and  C_20 
REMARK       I    between atoms: C_20  and  N_21 
ROOT
HETATM    1  C   UNL     1      -7.582   5.738 -29.012  1.00  0.00     0.071 C 
HETATM    2  C   UNL     1      -7.055   4.862 -30.109  1.00  0.00     0.053 A 
HETATM    3  N   UNL     1      -6.143   5.394 -30.940  1.00  0.00    -0.066 NA
HETATM    4  C   UNL     1      -5.692   4.608 -31.939  1.00  0.00     0.751 A 
HETATM    5  N   UNL     1      -6.106   3.340 -32.159  1.00  0.00    -0.043 NA
HETATM    6  C   UNL     1      -7.007   2.829 -31.306  1.00  0.00     0.149 A 
HETATM    7  C   UNL     1      -7.506   3.568 -30.248  1.00  0.00     0.078 A 
ENDROOT
BRANCH   6   8
HETATM    8  N   UNL     1      -7.487   1.508 -31.463  1.00  0.00    -0.340 N 
HETATM    9  H   UNL     1      -7.847   1.158 -30.583  1.00  0.00     0.167 HD
BRANCH   8  10
HETATM   10  C   UNL     1      -7.004   0.490 -32.309  1.00  0.00     0.033 A 
HETATM   11  C   UNL     1      -5.739  -0.066 -32.060  1.00  0.00     0.030 A 
HETATM   12  C   UNL     1      -5.259  -1.148 -32.809  1.00  0.00     0.019 A 
HETATM   13  C   UNL     1      -6.052  -1.707 -33.816  1.00  0.00     0.032 A 
HETATM   14  C   UNL     1      -7.325  -1.182 -34.054  1.00  0.00     0.019 A 
HETATM   15  C   UNL     1      -7.793  -0.096 -33.305  1.00  0.00     0.030 A 
BRANCH  13  16
HETATM   16  C   UNL     1      -5.611  -2.882 -34.614  1.00  0.00     0.249 C 
HETATM   17  N   UNL     1      -6.575  -3.751 -35.046  1.00  0.00    -0.366 N 
HETATM   18  H   UNL     1      -7.508  -3.764 -34.663  1.00  0.00     0.159 HD
HETATM   19  H   UNL     1      -6.240  -4.595 -35.494  1.00  0.00     0.159 HD
HETATM   20  O   UNL     1      -4.429  -3.087 -34.860  1.00  0.00    -0.268 OA
ENDBRANCH  13  16
ENDBRANCH   8  10
ENDBRANCH   6   8
BRANCH   4  21
HETATM   21  N   UNL     1      -4.687   5.135 -32.822  1.00  0.00    -0.069 N 
HETATM   22  N   UNL     1      -4.649   4.846 -34.159  1.00  0.00    -0.163 NA
HETATM   23  C   UNL     1      -3.605   5.536 -34.623  1.00  0.00     0.177 A 
HETATM   24  C   UNL     1      -2.961   6.270 -33.619  1.00  0.00     0.140 A 
HETATM   25  C   UNL     1      -3.663   5.994 -32.467  1.00  0.00     0.175 A 
BRANCH  24  26
HETATM   26  N   UNL     1      -1.827   7.127 -33.757  1.00  0.00    -0.113 N 
HETATM   27  O   UNL     1      -1.880   8.218 -33.178  1.00  0.00    -0.532 OA
HETATM   28  O   UNL     1      -0.882   6.710 -34.440  1.00  0.00    -0.532 OA
ENDBRANCH  24  26
ENDBRANCH   4  21
TORSDOF 5
ENDMDL
MODEL 9
REMARK VINA RESULT:      -7.6      3.779      5.499
REMARK  5 active torsions:
REMARK  status: ('A' for Active; 'I' for Inactive)
REMARK    1  A    between atoms: C_4  and  N_5 
REMARK    2  A    between atoms: C_8  and  N_9 
REMARK    3  A    between atoms: C_14  and  N_15 
REMARK    4  A    between atoms: N_15  and  C_16 
REMARK    5  A    between atoms: C_19  and  C_20 
REMARK       I    between atoms: C_20  and  N_21 
ROOT
HETATM    1  C   UNL     1      -4.374  -1.475 -33.233  1.00  0.00     0.071 C 
HETATM    2  C   UNL     1      -5.039  -0.269 -32.641  1.00  0.00     0.053 A 
HETATM    3  N   UNL     1      -4.292   0.837 -32.488  1.00  0.00    -0.066 NA
HETATM    4  C   UNL     1      -4.891   1.910 -31.932  1.00  0.00     0.751 A 
HETATM    5  N   UNL     1      -6.175   1.935 -31.513  1.00  0.00    -0.043 NA
HETATM    6  C   UNL     1      -6.904   0.821 -31.689  1.00  0.00     0.149 A 
HETATM    7  C   UNL     1      -6.364  -0.315 -32.266  1.00  0.00     0.078 A 
ENDROOT
BRANCH   6   8
HETATM    8  N   UNL     1      -8.256   0.767 -31.282  1.00  0.00    -0.340 N 
HETATM    9  H   UNL     1      -8.398   0.003 -30.631  1.00  0.00     0.167 HD
BRANCH   8  10
HETATM   10  C   UNL     1      -9.413   1.084 -32.023  1.00  0.00     0.033 A 
HETATM   11  C   UNL     1      -9.789   2.429 -32.165  1.00  0.00     0.030 A 
HETATM   12  C   UNL     1     -10.870   2.800 -32.974  1.00  0.00     0.019 A 
HETATM   13  C   UNL     1     -11.587   1.825 -33.674  1.00  0.00     0.032 A 
HETATM   14  C   UNL     1     -11.204   0.485 -33.564  1.00  0.00     0.019 A 
HETATM   15  C   UNL     1     -10.127   0.123 -32.748  1.00  0.00     0.030 A 
BRANCH  13  16
HETATM   16  C   UNL     1     -12.717   2.165 -34.580  1.00  0.00     0.249 C 
HETATM   17  N   UNL     1     -13.666   3.030 -34.110  1.00  0.00    -0.366 N 
HETATM   18  H   UNL     1     -13.761   3.256 -33.132  1.00  0.00     0.159 HD
HETATM   19  H   UNL     1     -14.476   3.162 -34.703  1.00  0.00     0.159 HD
HETATM   20  O   UNL     1     -12.817   1.673 -35.697  1.00  0.00    -0.268 OA
ENDBRANCH  13  16
ENDBRANCH   8  10
ENDBRANCH   6   8
BRANCH   4  21
HETATM   21  N   UNL     1      -4.128   3.121 -31.792  1.00  0.00    -0.069 N 
HETATM   22  N   UNL     1      -4.605   4.225 -31.139  1.00  0.00    -0.163 NA
HETATM   23  C   UNL     1      -3.607   5.110 -31.202  1.00  0.00     0.177 A 
HETATM   24  C   UNL     1      -2.490   4.607 -31.880  1.00  0.00     0.140 A 
HETATM   25  C   UNL     1      -2.844   3.332 -32.260  1.00  0.00     0.175 A 
BRANCH  24  26
HETATM   26  N   UNL     1      -1.246   5.268 -32.120  1.00  0.00    -0.113 N 
HETATM   27  O   UNL     1      -0.245   4.781 -31.581  1.00  0.00    -0.532 OA
HETATM   28  O   UNL     1      -1.268   6.267 -32.849  1.00  0.00    -0.532 OA
ENDBRANCH  24  26
ENDBRANCH   4  21
TORSDOF 5
ENDMDL
MODEL 10
REMARK VINA RESULT:      -7.6      1.863      8.288
REMARK  5 active torsions:
REMARK  status: ('A' for Active; 'I' for Inactive)
REMARK    1  A    between atoms: C_4  and  N_5 
REMARK    2  A    between atoms: C_8  and  N_9 
REMARK    3  A    between atoms: C_14  and  N_15 
REMARK    4  A    between atoms: N_15  and  C_16 
REMARK    5  A    between atoms: C_19  and  C_20 
REMARK       I    between atoms: C_20  and  N_21 
ROOT
HETATM    1  C   UNL     1      -9.304   1.116 -31.640  1.00  0.00     0.071 C 
HETATM    2  C   UNL     1      -8.008   1.122 -32.394  1.00  0.00     0.053 A 
HETATM    3  N   UNL     1      -7.503  -0.066 -32.765  1.00  0.00    -0.066 NA
HETATM    4  C   UNL     1      -6.324  -0.054 -33.421  1.00  0.00     0.751 A 
HETATM    5  N   UNL     1      -5.624   1.064 -33.712  1.00  0.00    -0.043 NA
HETATM    6  C   UNL     1      -6.157   2.239 -33.341  1.00  0.00     0.149 A 
HETATM    7  C   UNL     1      -7.369   2.310 -32.678  1.00  0.00     0.078 A 
ENDROOT
BRANCH   6   8
HETATM    8  N   UNL     1      -5.490   3.456 -33.612  1.00  0.00    -0.340 N 
HETATM    9  H   UNL     1      -5.518   3.659 -34.605  1.00  0.00     0.167 HD
BRANCH   8  10
HETATM   10  C   UNL     1      -4.366   4.008 -32.966  1.00  0.00     0.033 A 
HETATM   11  C   UNL     1      -3.749   3.290 -31.929  1.00  0.00     0.030 A 
HETATM   12  C   UNL     1      -2.571   3.749 -31.326  1.00  0.00     0.019 A 
HETATM   13  C   UNL     1      -1.977   4.935 -31.766  1.00  0.00     0.032 A 
HETATM   14  C   UNL     1      -2.565   5.645 -32.817  1.00  0.00     0.019 A 
HETATM   15  C   UNL     1      -3.746   5.181 -33.410  1.00  0.00     0.030 A 
BRANCH  13  16
HETATM   16  C   UNL     1      -0.705   5.449 -31.191  1.00  0.00     0.249 C 
HETATM   17  N   UNL     1      -0.294   4.926 -29.997  1.00  0.00    -0.366 N 
HETATM   18  H   UNL     1      -0.907   4.401 -29.392  1.00  0.00     0.159 HD
HETATM   19  H   UNL     1       0.515   5.366 -29.577  1.00  0.00     0.159 HD
HETATM   20  O   UNL     1      -0.056   6.327 -31.746  1.00  0.00    -0.268 OA
ENDBRANCH  13  16
ENDBRANCH   8  10
ENDBRANCH   6   8
BRANCH   4  21
HETATM   21  N   UNL     1      -5.779  -1.308 -33.866  1.00  0.00    -0.069 N 
HETATM   22  N   UNL     1      -4.433  -1.559 -33.904  1.00  0.00    -0.163 NA
HETATM   23  C   UNL     1      -4.338  -2.817 -34.340  1.00  0.00     0.177 A 
HETATM   24  C   UNL     1      -5.590  -3.393 -34.588  1.00  0.00     0.140 A 
HETATM   25  C   UNL     1      -6.504  -2.408 -34.287  1.00  0.00     0.175 A 
BRANCH  24  26
HETATM   26  N   UNL     1      -5.865  -4.718 -35.044  1.00  0.00    -0.113 N 
HETATM   27  O   UNL     1      -6.884  -4.871 -35.728  1.00  0.00    -0.532 OA
HETATM   28  O   UNL     1      -5.062  -5.604 -34.724  1.00  0.00    -0.532 OA
ENDBRANCH  24  26
ENDBRANCH   4  21
TORSDOF 5
ENDMDL
