MODEL 1
REMARK VINA RESULT:      -9.1      0.000      0.000
REMARK  5 active torsions:
REMARK  status: ('A' for Active; 'I' for Inactive)
REMARK    1  A    between atoms: O_2  and  C_3 
REMARK    2  A    between atoms: C_7  and  C_8 
REMARK    3  A    between atoms: C_8  and  N_9 
REMARK       I    between atoms: N_9  and  C_10 
REMARK    4  A    between atoms: C_10  and  C_12 
REMARK    5  A    between atoms: C_18  and  C_22 
ROOT
HETATM    1  C   UNL     1      -6.364   1.595 -31.115  1.00  0.00     0.061 A 
HETATM    2  C   UNL     1      -6.870   2.424 -30.119  1.00  0.00     0.108 A 
HETATM    3  N   UNL     1      -8.198   2.655 -30.378  1.00  0.00    -0.349 N 
HETATM    4  H   UNL     1      -8.829   3.224 -29.832  1.00  0.00     0.167 HD
HETATM    5  C   UNL     1      -8.569   2.000 -31.516  1.00  0.00     0.139 A 
HETATM    6  N   UNL     1      -9.809   2.032 -32.031  1.00  0.00    -0.230 NA
HETATM    7  C   UNL     1      -9.956   1.320 -33.179  1.00  0.00     0.069 A 
HETATM    8  C   UNL     1      -8.912   0.599 -33.770  1.00  0.00     0.033 A 
HETATM    9  C   UNL     1      -7.639   0.598 -33.190  1.00  0.00     0.018 A 
HETATM   10  C   UNL     1      -7.457   1.334 -32.009  1.00  0.00     0.027 A 
ENDROOT
BRANCH   1  11
HETATM   11  C   UNL     1      -4.994   1.099 -31.249  1.00  0.00     0.254 C 
HETATM   12  N   UNL     1      -4.874  -0.265 -31.373  1.00  0.00    -0.353 N 
HETATM   13  H   UNL     1      -5.699  -0.830 -31.505  1.00  0.00     0.163 HD
HETATM   14  O   UNL     1      -4.021   1.846 -31.259  1.00  0.00    -0.268 OA
BRANCH  12  15
HETATM   15  C   UNL     1      -3.585  -0.883 -31.558  1.00  0.00     0.161 C 
BRANCH  15  16
HETATM   16  C   UNL     1      -3.707  -2.127 -32.396  1.00  0.00    -0.038 A 
HETATM   17  C   UNL     1      -3.027  -3.295 -32.022  1.00  0.00     0.009 A 
HETATM   18  C   UNL     1      -3.159  -4.458 -32.776  1.00  0.00     0.003 A 
HETATM   19  C   UNL     1      -3.975  -4.462 -33.908  1.00  0.00     0.037 A 
HETATM   20  C   UNL     1      -4.666  -3.311 -34.294  1.00  0.00     0.068 A 
HETATM   21  C   UNL     1      -4.532  -2.147 -33.534  1.00  0.00     0.045 A 
BRANCH  20  22
HETATM   22  O   UNL     1      -5.431  -3.457 -35.418  1.00  0.00    -0.356 OA
HETATM   23  C   UNL     1      -6.403  -4.495 -35.408  1.00  0.00     0.210 C 
ENDBRANCH  20  22
ENDBRANCH  15  16
ENDBRANCH  12  15
ENDBRANCH   1  11
BRANCH   7  24
HETATM   24  C   UNL     1     -11.318   1.353 -33.758  1.00  0.00    -0.005 A 
HETATM   25  C   UNL     1     -12.236   0.309 -33.579  1.00  0.00     0.033 A 
HETATM   26  C   UNL     1     -13.497   0.406 -34.151  1.00  0.00     0.117 A 
HETATM   27  N   UNL     1     -13.913   1.459 -34.883  1.00  0.00    -0.273 NA
HETATM   28  C   UNL     1     -13.021   2.454 -35.061  1.00  0.00     0.117 A 
HETATM   29  C   UNL     1     -11.741   2.445 -34.530  1.00  0.00     0.033 A 
ENDBRANCH   7  24
TORSDOF 5
ENDMDL
MODEL 2
REMARK VINA RESULT:      -8.9      2.995      7.847
REMARK  5 active torsions:
REMARK  status: ('A' for Active; 'I' for Inactive)
REMARK    1  A    between atoms: O_2  and  C_3 
REMARK    2  A    between atoms: C_7  and  C_8 
REMARK    3  A    between atoms: C_8  and  N_9 
REMARK       I    between atoms: N_9  and  C_10 
REMARK    4  A    between atoms: C_10  and  C_12 
REMARK    5  A    between atoms: C_18  and  C_22 
ROOT
HETATM    1  C   UNL     1      -6.017   2.970 -33.374  1.00  0.00     0.061 A 
HETATM    2  C   UNL     1      -4.993   2.932 -32.432  1.00  0.00     0.108 A 
HETATM    3  N   UNL     1      -4.535   1.642 -32.338  1.00  0.00    -0.349 N 
HETATM    4  H   UNL     1      -3.800   1.305 -31.734  1.00  0.00     0.167 HD
HETATM    5  C   UNL     1      -5.234   0.839 -33.192  1.00  0.00     0.139 A 
HETATM    6  N   UNL     1      -5.018  -0.480 -33.331  1.00  0.00    -0.230 NA
HETATM    7  C   UNL     1      -5.837  -1.089 -34.227  1.00  0.00     0.069 A 
HETATM    8  C   UNL     1      -6.813  -0.404 -34.959  1.00  0.00     0.033 A 
HETATM    9  C   UNL     1      -6.994   0.971 -34.779  1.00  0.00     0.018 A 
HETATM   10  C   UNL     1      -6.168   1.624 -33.851  1.00  0.00     0.027 A 
ENDROOT
BRANCH   1  11
HETATM   11  C   UNL     1      -6.801   4.133 -33.789  1.00  0.00     0.254 C 
HETATM   12  N   UNL     1      -8.158   4.023 -33.601  1.00  0.00    -0.353 N 
HETATM   13  H   UNL     1      -8.530   3.243 -33.079  1.00  0.00     0.163 HD
HETATM   14  O   UNL     1      -6.286   5.141 -34.263  1.00  0.00    -0.268 OA
BRANCH  12  15
HETATM   15  C   UNL     1      -9.044   5.113 -33.925  1.00  0.00     0.161 C 
BRANCH  15  16
HETATM   16  C   UNL     1     -10.352   4.594 -34.458  1.00  0.00    -0.038 A 
HETATM   17  C   UNL     1     -11.301   5.485 -34.980  1.00  0.00     0.009 A 
HETATM   18  C   UNL     1     -12.500   5.009 -35.503  1.00  0.00     0.003 A 
HETATM   19  C   UNL     1     -12.759   3.639 -35.509  1.00  0.00     0.037 A 
HETATM   20  C   UNL     1     -11.826   2.734 -34.999  1.00  0.00     0.068 A 
HETATM   21  C   UNL     1     -10.622   3.215 -34.478  1.00  0.00     0.045 A 
BRANCH  20  22
HETATM   22  O   UNL     1     -12.206   1.422 -35.072  1.00  0.00    -0.356 OA
HETATM   23  C   UNL     1     -13.480   1.088 -34.537  1.00  0.00     0.210 C 
ENDBRANCH  20  22
ENDBRANCH  15  16
ENDBRANCH  12  15
ENDBRANCH   1  11
BRANCH   7  24
HETATM   24  C   UNL     1      -5.611  -2.544 -34.381  1.00  0.00    -0.005 A 
HETATM   25  C   UNL     1      -4.405  -3.159 -34.018  1.00  0.00     0.033 A 
HETATM   26  C   UNL     1      -4.261  -4.529 -34.190  1.00  0.00     0.117 A 
HETATM   27  N   UNL     1      -5.221  -5.330 -34.694  1.00  0.00    -0.273 NA
HETATM   28  C   UNL     1      -6.374  -4.729 -35.052  1.00  0.00     0.117 A 
HETATM   29  C   UNL     1      -6.609  -3.370 -34.918  1.00  0.00     0.033 A 
ENDBRANCH   7  24
TORSDOF 5
ENDMDL
MODEL 3
REMARK VINA RESULT:      -8.7      4.168      7.857
REMARK  5 active torsions:
REMARK  status: ('A' for Active; 'I' for Inactive)
REMARK    1  A    between atoms: O_2  and  C_3 
REMARK    2  A    between atoms: C_7  and  C_8 
REMARK    3  A    between atoms: C_8  and  N_9 
REMARK       I    between atoms: N_9  and  C_10 
REMARK    4  A    between atoms: C_10  and  C_12 
REMARK    5  A    between atoms: C_18  and  C_22 
ROOT
HETATM    1  C   UNL     1      -5.982   2.786 -32.731  1.00  0.00     0.061 A 
HETATM    2  C   UNL     1      -6.869   3.019 -33.778  1.00  0.00     0.108 A 
HETATM    3  N   UNL     1      -7.063   1.842 -34.455  1.00  0.00    -0.349 N 
HETATM    4  H   UNL     1      -7.650   1.701 -35.265  1.00  0.00     0.167 HD
HETATM    5  C   UNL     1      -6.325   0.849 -33.878  1.00  0.00     0.139 A 
HETATM    6  N   UNL     1      -6.304  -0.422 -34.315  1.00  0.00    -0.230 NA
HETATM    7  C   UNL     1      -5.490  -1.244 -33.602  1.00  0.00     0.069 A 
HETATM    8  C   UNL     1      -4.748  -0.814 -32.496  1.00  0.00     0.033 A 
HETATM    9  C   UNL     1      -4.809   0.521 -32.082  1.00  0.00     0.018 A 
HETATM   10  C   UNL     1      -5.635   1.395 -32.807  1.00  0.00     0.027 A 
ENDROOT
BRANCH   1  11
HETATM   11  C   UNL     1      -5.481   3.755 -31.757  1.00  0.00     0.254 C 
HETATM   12  N   UNL     1      -5.026   4.939 -32.287  1.00  0.00    -0.353 N 
HETATM   13  H   UNL     1      -5.178   5.141 -33.263  1.00  0.00     0.163 HD
HETATM   14  O   UNL     1      -5.475   3.533 -30.550  1.00  0.00    -0.268 OA
BRANCH  12  15
HETATM   15  C   UNL     1      -4.547   5.998 -31.435  1.00  0.00     0.161 C 
BRANCH  15  16
HETATM   16  C   UNL     1      -3.084   6.254 -31.676  1.00  0.00    -0.038 A 
HETATM   17  C   UNL     1      -2.670   7.443 -32.294  1.00  0.00     0.009 A 
HETATM   18  C   UNL     1      -1.316   7.698 -32.492  1.00  0.00     0.003 A 
HETATM   19  C   UNL     1      -0.365   6.768 -32.073  1.00  0.00     0.037 A 
HETATM   20  C   UNL     1      -0.755   5.580 -31.451  1.00  0.00     0.068 A 
HETATM   21  C   UNL     1      -2.115   5.328 -31.251  1.00  0.00     0.045 A 
BRANCH  20  22
HETATM   22  O   UNL     1       0.278   4.761 -31.088  1.00  0.00    -0.356 OA
HETATM   23  C   UNL     1       0.758   4.880 -29.755  1.00  0.00     0.210 C 
ENDBRANCH  20  22
ENDBRANCH  15  16
ENDBRANCH  12  15
ENDBRANCH   1  11
BRANCH   7  24
HETATM   24  C   UNL     1      -5.455  -2.645 -34.079  1.00  0.00    -0.005 A 
HETATM   25  C   UNL     1      -4.366  -3.493 -33.836  1.00  0.00     0.033 A 
HETATM   26  C   UNL     1      -4.399  -4.797 -34.313  1.00  0.00     0.117 A 
HETATM   27  N   UNL     1      -5.428  -5.318 -35.009  1.00  0.00    -0.273 NA
HETATM   28  C   UNL     1      -6.467  -4.492 -35.250  1.00  0.00     0.117 A 
HETATM   29  C   UNL     1      -6.523  -3.178 -34.815  1.00  0.00     0.033 A 
ENDBRANCH   7  24
TORSDOF 5
ENDMDL
MODEL 4
REMARK VINA RESULT:      -8.6      4.110      7.605
REMARK  5 active torsions:
REMARK  status: ('A' for Active; 'I' for Inactive)
REMARK    1  A    between atoms: O_2  and  C_3 
REMARK    2  A    between atoms: C_7  and  C_8 
REMARK    3  A    between atoms: C_8  and  N_9 
REMARK       I    between atoms: N_9  and  C_10 
REMARK    4  A    between atoms: C_10  and  C_12 
REMARK    5  A    between atoms: C_18  and  C_22 
ROOT
HETATM    1  C   UNL     1      -7.321   2.714 -32.549  1.00  0.00     0.061 A 
HETATM    2  C   UNL     1      -8.676   2.400 -32.602  1.00  0.00     0.108 A 
HETATM    3  N   UNL     1      -8.805   1.087 -32.979  1.00  0.00    -0.349 N 
HETATM    4  H   UNL     1      -9.667   0.578 -33.108  1.00  0.00     0.167 HD
HETATM    5  C   UNL     1      -7.570   0.538 -33.174  1.00  0.00     0.139 A 
HETATM    6  N   UNL     1      -7.365  -0.736 -33.549  1.00  0.00    -0.230 NA
HETATM    7  C   UNL     1      -6.057  -1.070 -33.698  1.00  0.00     0.069 A 
HETATM    8  C   UNL     1      -5.007  -0.174 -33.467  1.00  0.00     0.033 A 
HETATM    9  C   UNL     1      -5.277   1.142 -33.075  1.00  0.00     0.018 A 
HETATM   10  C   UNL     1      -6.621   1.517 -32.923  1.00  0.00     0.027 A 
ENDROOT
BRANCH   1  11
HETATM   11  C   UNL     1      -6.719   4.002 -32.204  1.00  0.00     0.254 C 
HETATM   12  N   UNL     1      -6.097   4.655 -33.242  1.00  0.00    -0.353 N 
HETATM   13  H   UNL     1      -6.197   4.309 -34.184  1.00  0.00     0.163 HD
HETATM   14  O   UNL     1      -6.772   4.472 -31.072  1.00  0.00    -0.268 OA
BRANCH  12  15
HETATM   15  C   UNL     1      -5.501   5.954 -33.051  1.00  0.00     0.161 C 
BRANCH  15  16
HETATM   16  C   UNL     1      -4.048   5.935 -33.440  1.00  0.00    -0.038 A 
HETATM   17  C   UNL     1      -3.626   5.178 -34.544  1.00  0.00     0.009 A 
HETATM   18  C   UNL     1      -2.288   5.180 -34.928  1.00  0.00     0.003 A 
HETATM   19  C   UNL     1      -1.362   5.939 -34.213  1.00  0.00     0.037 A 
HETATM   20  C   UNL     1      -1.761   6.703 -33.114  1.00  0.00     0.068 A 
HETATM   21  C   UNL     1      -3.106   6.701 -32.733  1.00  0.00     0.045 A 
BRANCH  20  22
HETATM   22  O   UNL     1      -0.753   7.401 -32.508  1.00  0.00    -0.356 OA
HETATM   23  C   UNL     1       0.025   6.705 -31.543  1.00  0.00     0.210 C 
ENDBRANCH  20  22
ENDBRANCH  15  16
ENDBRANCH  12  15
ENDBRANCH   1  11
BRANCH   7  24
HETATM   24  C   UNL     1      -5.820  -2.470 -34.117  1.00  0.00    -0.005 A 
HETATM   25  C   UNL     1      -6.818  -3.254 -34.714  1.00  0.00     0.033 A 
HETATM   26  C   UNL     1      -6.527  -4.560 -35.084  1.00  0.00     0.117 A 
HETATM   27  N   UNL     1      -5.325  -5.143 -34.904  1.00  0.00    -0.273 NA
HETATM   28  C   UNL     1      -4.375  -4.388 -34.318  1.00  0.00     0.117 A 
HETATM   29  C   UNL     1      -4.572  -3.076 -33.916  1.00  0.00     0.033 A 
ENDBRANCH   7  24
TORSDOF 5
ENDMDL
MODEL 5
REMARK VINA RESULT:      -8.4      4.211      7.396
REMARK  5 active torsions:
REMARK  status: ('A' for Active; 'I' for Inactive)
REMARK    1  A    between atoms: O_2  and  C_3 
REMARK    2  A    between atoms: C_7  and  C_8 
REMARK    3  A    between atoms: C_8  and  N_9 
REMARK       I    between atoms: N_9  and  C_10 
REMARK    4  A    between atoms: C_10  and  C_12 
REMARK    5  A    between atoms: C_18  and  C_22 
ROOT
HETATM    1  C   UNL     1      -6.611   2.995 -33.525  1.00  0.00     0.061 A 
HETATM    2  C   UNL     1      -7.134   4.227 -33.905  1.00  0.00     0.108 A 
HETATM    3  N   UNL     1      -6.192   5.194 -33.660  1.00  0.00    -0.349 N 
HETATM    4  H   UNL     1      -6.286   6.186 -33.829  1.00  0.00     0.167 HD
HETATM    5  C   UNL     1      -5.071   4.625 -33.129  1.00  0.00     0.139 A 
HETATM    6  N   UNL     1      -3.970   5.313 -32.782  1.00  0.00    -0.230 NA
HETATM    7  C   UNL     1      -2.976   4.550 -32.260  1.00  0.00     0.069 A 
HETATM    8  C   UNL     1      -3.076   3.162 -32.109  1.00  0.00     0.033 A 
HETATM    9  C   UNL     1      -4.244   2.494 -32.490  1.00  0.00     0.018 A 
HETATM   10  C   UNL     1      -5.292   3.260 -33.024  1.00  0.00     0.027 A 
ENDROOT
BRANCH   1  11
HETATM   11  C   UNL     1      -7.268   1.690 -33.597  1.00  0.00     0.254 C 
HETATM   12  N   UNL     1      -6.673   0.779 -34.438  1.00  0.00    -0.353 N 
HETATM   13  H   UNL     1      -5.772   0.986 -34.842  1.00  0.00     0.163 HD
HETATM   14  O   UNL     1      -8.273   1.421 -32.947  1.00  0.00    -0.268 OA
BRANCH  12  15
HETATM   15  C   UNL     1      -7.190  -0.560 -34.568  1.00  0.00     0.161 C 
BRANCH  15  16
HETATM   16  C   UNL     1      -6.120  -1.574 -34.266  1.00  0.00    -0.038 A 
HETATM   17  C   UNL     1      -6.076  -2.782 -34.979  1.00  0.00     0.009 A 
HETATM   18  C   UNL     1      -5.072  -3.712 -34.725  1.00  0.00     0.003 A 
HETATM   19  C   UNL     1      -4.102  -3.440 -33.760  1.00  0.00     0.037 A 
HETATM   20  C   UNL     1      -4.124  -2.242 -33.043  1.00  0.00     0.068 A 
HETATM   21  C   UNL     1      -5.133  -1.310 -33.301  1.00  0.00     0.045 A 
BRANCH  20  22
HETATM   22  O   UNL     1      -3.114  -2.104 -32.131  1.00  0.00    -0.356 OA
HETATM   23  C   UNL     1      -2.677  -0.781 -31.847  1.00  0.00     0.210 C 
ENDBRANCH  20  22
ENDBRANCH  15  16
ENDBRANCH  12  15
ENDBRANCH   1  11
BRANCH   7  24
HETATM   24  C   UNL     1      -1.761   5.300 -31.867  1.00  0.00    -0.005 A 
HETATM   25  C   UNL     1      -0.906   4.863 -30.846  1.00  0.00     0.033 A 
HETATM   26  C   UNL     1       0.217   5.616 -30.530  1.00  0.00     0.117 A 
HETATM   27  N   UNL     1       0.551   6.765 -31.149  1.00  0.00    -0.273 NA
HETATM   28  C   UNL     1      -0.282   7.185 -32.122  1.00  0.00     0.117 A 
HETATM   29  C   UNL     1      -1.424   6.502 -32.507  1.00  0.00     0.033 A 
ENDBRANCH   7  24
TORSDOF 5
ENDMDL
MODEL 6
REMARK VINA RESULT:      -8.3      4.034      6.626
REMARK  5 active torsions:
REMARK  status: ('A' for Active; 'I' for Inactive)
REMARK    1  A    between atoms: O_2  and  C_3 
REMARK    2  A    between atoms: C_7  and  C_8 
REMARK    3  A    between atoms: C_8  and  N_9 
REMARK       I    between atoms: N_9  and  C_10 
REMARK    4  A    between atoms: C_10  and  C_12 
REMARK    5  A    between atoms: C_18  and  C_22 
ROOT
HETATM    1  C   UNL     1      -6.153   1.475 -32.081  1.00  0.00     0.061 A 
HETATM    2  C   UNL     1      -5.847   1.303 -30.735  1.00  0.00     0.108 A 
HETATM    3  N   UNL     1      -5.121   2.388 -30.311  1.00  0.00    -0.349 N 
HETATM    4  H   UNL     1      -4.752   2.542 -29.383  1.00  0.00     0.167 HD
HETATM    5  C   UNL     1      -4.946   3.261 -31.345  1.00  0.00     0.139 A 
HETATM    6  N   UNL     1      -4.275   4.421 -31.244  1.00  0.00    -0.230 NA
HETATM    7  C   UNL     1      -4.210   5.131 -32.400  1.00  0.00     0.069 A 
HETATM    8  C   UNL     1      -4.803   4.704 -33.594  1.00  0.00     0.033 A 
HETATM    9  C   UNL     1      -5.493   3.488 -33.643  1.00  0.00     0.018 A 
HETATM   10  C   UNL     1      -5.567   2.729 -32.465  1.00  0.00     0.027 A 
ENDROOT
BRANCH   1  11
HETATM   11  C   UNL     1      -6.902   0.565 -32.947  1.00  0.00     0.254 C 
HETATM   12  N   UNL     1      -6.168  -0.031 -33.946  1.00  0.00    -0.353 N 
HETATM   13  H   UNL     1      -5.164   0.067 -33.956  1.00  0.00     0.163 HD
HETATM   14  O   UNL     1      -8.097   0.339 -32.789  1.00  0.00    -0.268 OA
BRANCH  12  15
HETATM   15  C   UNL     1      -6.772  -0.984 -34.842  1.00  0.00     0.161 C 
BRANCH  15  16
HETATM   16  C   UNL     1      -6.152  -2.344 -34.667  1.00  0.00    -0.038 A 
HETATM   17  C   UNL     1      -6.691  -3.454 -35.335  1.00  0.00     0.009 A 
HETATM   18  C   UNL     1      -6.104  -4.709 -35.200  1.00  0.00     0.003 A 
HETATM   19  C   UNL     1      -4.972  -4.864 -34.400  1.00  0.00     0.037 A 
HETATM   20  C   UNL     1      -4.416  -3.772 -33.731  1.00  0.00     0.068 A 
HETATM   21  C   UNL     1      -5.007  -2.513 -33.869  1.00  0.00     0.045 A 
BRANCH  20  22
HETATM   22  O   UNL     1      -3.308  -4.064 -32.985  1.00  0.00    -0.356 OA
HETATM   23  C   UNL     1      -2.961  -3.146 -31.956  1.00  0.00     0.210 C 
ENDBRANCH  20  22
ENDBRANCH  15  16
ENDBRANCH  12  15
ENDBRANCH   1  11
BRANCH   7  24
HETATM   24  C   UNL     1      -3.467   6.407 -32.301  1.00  0.00    -0.005 A 
HETATM   25  C   UNL     1      -2.335   6.680 -33.081  1.00  0.00     0.033 A 
HETATM   26  C   UNL     1      -1.686   7.899 -32.938  1.00  0.00     0.117 A 
HETATM   27  N   UNL     1      -2.077   8.863 -32.080  1.00  0.00    -0.273 NA
HETATM   28  C   UNL     1      -3.159   8.589 -31.324  1.00  0.00     0.117 A 
HETATM   29  C   UNL     1      -3.870   7.402 -31.398  1.00  0.00     0.033 A 
ENDBRANCH   7  24
TORSDOF 5
ENDMDL
MODEL 7
REMARK VINA RESULT:      -8.2      3.367      8.468
REMARK  5 active torsions:
REMARK  status: ('A' for Active; 'I' for Inactive)
REMARK    1  A    between atoms: O_2  and  C_3 
REMARK    2  A    between atoms: C_7  and  C_8 
REMARK    3  A    between atoms: C_8  and  N_9 
REMARK       I    between atoms: N_9  and  C_10 
REMARK    4  A    between atoms: C_10  and  C_12 
REMARK    5  A    between atoms: C_18  and  C_22 
ROOT
HETATM    1  C   UNL     1      -9.473   2.688 -31.889  1.00  0.00     0.061 A 
HETATM    2  C   UNL     1      -8.781   2.727 -30.683  1.00  0.00     0.108 A 
HETATM    3  N   UNL     1      -7.806   1.762 -30.708  1.00  0.00    -0.349 N 
HETATM    4  H   UNL     1      -7.149   1.548 -29.972  1.00  0.00     0.167 HD
HETATM    5  C   UNL     1      -7.847   1.094 -31.898  1.00  0.00     0.139 A 
HETATM    6  N   UNL     1      -7.016   0.090 -32.225  1.00  0.00    -0.230 NA
HETATM    7  C   UNL     1      -7.241  -0.443 -33.454  1.00  0.00     0.069 A 
HETATM    8  C   UNL     1      -8.239   0.021 -34.318  1.00  0.00     0.033 A 
HETATM    9  C   UNL     1      -9.075   1.073 -33.929  1.00  0.00     0.018 A 
HETATM   10  C   UNL     1      -8.872   1.636 -32.659  1.00  0.00     0.027 A 
ENDROOT
BRANCH   1  11
HETATM   11  C   UNL     1     -10.599   3.529 -32.297  1.00  0.00     0.254 C 
HETATM   12  N   UNL     1     -11.629   3.610 -31.390  1.00  0.00    -0.353 N 
HETATM   13  H   UNL     1     -11.514   3.222 -30.466  1.00  0.00     0.163 HD
HETATM   14  O   UNL     1     -10.620   4.128 -33.367  1.00  0.00    -0.268 OA
BRANCH  12  15
HETATM   15  C   UNL     1     -12.780   4.440 -31.646  1.00  0.00     0.161 C 
BRANCH  15  16
HETATM   16  C   UNL     1     -13.970   3.598 -32.020  1.00  0.00    -0.038 A 
HETATM   17  C   UNL     1     -15.266   4.036 -31.710  1.00  0.00     0.009 A 
HETATM   18  C   UNL     1     -16.372   3.276 -32.079  1.00  0.00     0.003 A 
HETATM   19  C   UNL     1     -16.192   2.074 -32.763  1.00  0.00     0.037 A 
HETATM   20  C   UNL     1     -14.910   1.622 -33.086  1.00  0.00     0.068 A 
HETATM   21  C   UNL     1     -13.802   2.388 -32.716  1.00  0.00     0.045 A 
BRANCH  20  22
HETATM   22  O   UNL     1     -14.879   0.432 -33.760  1.00  0.00    -0.356 OA
HETATM   23  C   UNL     1     -13.666  -0.308 -33.707  1.00  0.00     0.210 C 
ENDBRANCH  20  22
ENDBRANCH  15  16
ENDBRANCH  12  15
ENDBRANCH   1  11
BRANCH   7  24
HETATM   24  C   UNL     1      -6.335  -1.554 -33.822  1.00  0.00    -0.005 A 
HETATM   25  C   UNL     1      -4.985  -1.580 -33.442  1.00  0.00     0.033 A 
HETATM   26  C   UNL     1      -4.192  -2.654 -33.821  1.00  0.00     0.117 A 
HETATM   27  N   UNL     1      -4.637  -3.700 -34.545  1.00  0.00    -0.273 NA
HETATM   28  C   UNL     1      -5.932  -3.663 -34.917  1.00  0.00     0.117 A 
HETATM   29  C   UNL     1      -6.800  -2.634 -34.586  1.00  0.00     0.033 A 
ENDBRANCH   7  24
TORSDOF 5
ENDMDL
MODEL 8
REMARK VINA RESULT:      -8.2      3.972      8.215
REMARK  5 active torsions:
REMARK  status: ('A' for Active; 'I' for Inactive)
REMARK    1  A    between atoms: O_2  and  C_3 
REMARK    2  A    between atoms: C_7  and  C_8 
REMARK    3  A    between atoms: C_8  and  N_9 
REMARK       I    between atoms: N_9  and  C_10 
REMARK    4  A    between atoms: C_10  and  C_12 
REMARK    5  A    between atoms: C_18  and  C_22 
ROOT
HETATM    1  C   UNL     1      -5.780   0.250 -32.430  1.00  0.00     0.061 A 
HETATM    2  C   UNL     1      -4.750  -0.439 -31.798  1.00  0.00     0.108 A 
HETATM    3  N   UNL     1      -3.668   0.397 -31.691  1.00  0.00    -0.349 N 
HETATM    4  H   UNL     1      -2.771   0.176 -31.282  1.00  0.00     0.167 HD
HETATM    5  C   UNL     1      -3.966   1.612 -32.237  1.00  0.00     0.139 A 
HETATM    6  N   UNL     1      -3.108   2.646 -32.285  1.00  0.00    -0.230 NA
HETATM    7  C   UNL     1      -3.607   3.757 -32.886  1.00  0.00     0.069 A 
HETATM    8  C   UNL     1      -4.907   3.832 -33.398  1.00  0.00     0.033 A 
HETATM    9  C   UNL     1      -5.760   2.727 -33.320  1.00  0.00     0.018 A 
HETATM   10  C   UNL     1      -5.267   1.560 -32.713  1.00  0.00     0.027 A 
ENDROOT
BRANCH   1  11
HETATM   11  C   UNL     1      -7.114  -0.252 -32.762  1.00  0.00     0.254 C 
HETATM   12  N   UNL     1      -8.156   0.400 -32.149  1.00  0.00    -0.353 N 
HETATM   13  H   UNL     1      -7.981   1.248 -31.630  1.00  0.00     0.163 HD
HETATM   14  O   UNL     1      -7.292  -1.184 -33.541  1.00  0.00    -0.268 OA
BRANCH  12  15
HETATM   15  C   UNL     1      -9.524   0.037 -32.422  1.00  0.00     0.161 C 
BRANCH  15  16
HETATM   16  C   UNL     1     -10.185   1.073 -33.290  1.00  0.00    -0.038 A 
HETATM   17  C   UNL     1      -9.487   2.234 -33.655  1.00  0.00     0.009 A 
HETATM   18  C   UNL     1     -10.082   3.182 -34.482  1.00  0.00     0.003 A 
HETATM   19  C   UNL     1     -11.379   2.977 -34.953  1.00  0.00     0.037 A 
HETATM   20  C   UNL     1     -12.090   1.826 -34.606  1.00  0.00     0.068 A 
HETATM   21  C   UNL     1     -11.489   0.875 -33.778  1.00  0.00     0.045 A 
BRANCH  20  22
HETATM   22  O   UNL     1     -13.347   1.750 -35.140  1.00  0.00    -0.356 OA
HETATM   23  C   UNL     1     -14.355   1.150 -34.336  1.00  0.00     0.210 C 
ENDBRANCH  20  22
ENDBRANCH  15  16
ENDBRANCH  12  15
ENDBRANCH   1  11
BRANCH   7  24
HETATM   24  C   UNL     1      -2.668   4.900 -32.949  1.00  0.00    -0.005 A 
HETATM   25  C   UNL     1      -1.541   4.992 -32.120  1.00  0.00     0.033 A 
HETATM   26  C   UNL     1      -0.701   6.092 -32.233  1.00  0.00     0.117 A 
HETATM   27  N   UNL     1      -0.897   7.103 -33.103  1.00  0.00    -0.273 NA
HETATM   28  C   UNL     1      -1.989   7.013 -33.888  1.00  0.00     0.117 A 
HETATM   29  C   UNL     1      -2.883   5.955 -33.847  1.00  0.00     0.033 A 
ENDBRANCH   7  24
TORSDOF 5
ENDMDL
MODEL 9
REMARK VINA RESULT:      -8.0      4.363      8.448
REMARK  5 active torsions:
REMARK  status: ('A' for Active; 'I' for Inactive)
REMARK    1  A    between atoms: O_2  and  C_3 
REMARK    2  A    between atoms: C_7  and  C_8 
REMARK    3  A    between atoms: C_8  and  N_9 
REMARK       I    between atoms: N_9  and  C_10 
REMARK    4  A    between atoms: C_10  and  C_12 
REMARK    5  A    between atoms: C_18  and  C_22 
ROOT
HETATM    1  C   UNL     1      -4.758   2.700 -32.284  1.00  0.00     0.061 A 
HETATM    2  C   UNL     1      -3.614   2.384 -31.558  1.00  0.00     0.108 A 
HETATM    3  N   UNL     1      -3.342   1.050 -31.730  1.00  0.00    -0.349 N 
HETATM    4  H   UNL     1      -2.578   0.532 -31.322  1.00  0.00     0.167 HD
HETATM    5  C   UNL     1      -4.280   0.489 -32.547  1.00  0.00     0.139 A 
HETATM    6  N   UNL     1      -4.287  -0.806 -32.906  1.00  0.00    -0.230 NA
HETATM    7  C   UNL     1      -5.320  -1.156 -33.715  1.00  0.00     0.069 A 
HETATM    8  C   UNL     1      -6.289  -0.247 -34.156  1.00  0.00     0.033 A 
HETATM    9  C   UNL     1      -6.233   1.091 -33.755  1.00  0.00     0.018 A 
HETATM   10  C   UNL     1      -5.181   1.479 -32.909  1.00  0.00     0.027 A 
ENDROOT
BRANCH   1  11
HETATM   11  C   UNL     1      -5.418   4.002 -32.383  1.00  0.00     0.254 C 
HETATM   12  N   UNL     1      -5.139   4.880 -31.363  1.00  0.00    -0.353 N 
HETATM   13  H   UNL     1      -4.416   4.659 -30.695  1.00  0.00     0.163 HD
HETATM   14  O   UNL     1      -6.161   4.295 -33.314  1.00  0.00    -0.268 OA
BRANCH  12  15
HETATM   15  C   UNL     1      -5.687   6.214 -31.361  1.00  0.00     0.161 C 
BRANCH  15  16
HETATM   16  C   UNL     1      -4.586   7.240 -31.356  1.00  0.00    -0.038 A 
HETATM   17  C   UNL     1      -4.721   8.411 -30.596  1.00  0.00     0.009 A 
HETATM   18  C   UNL     1      -3.695   9.351 -30.563  1.00  0.00     0.003 A 
HETATM   19  C   UNL     1      -2.524   9.126 -31.288  1.00  0.00     0.037 A 
HETATM   20  C   UNL     1      -2.367   7.964 -32.047  1.00  0.00     0.068 A 
HETATM   21  C   UNL     1      -3.399   7.022 -32.075  1.00  0.00     0.045 A 
BRANCH  20  22
HETATM   22  O   UNL     1      -1.171   7.869 -32.703  1.00  0.00    -0.356 OA
HETATM   23  C   UNL     1      -1.110   6.979 -33.810  1.00  0.00     0.210 C 
ENDBRANCH  20  22
ENDBRANCH  15  16
ENDBRANCH  12  15
ENDBRANCH   1  11
BRANCH   7  24
HETATM   24  C   UNL     1      -5.339  -2.583 -34.111  1.00  0.00    -0.005 A 
HETATM   25  C   UNL     1      -4.257  -3.442 -33.876  1.00  0.00     0.033 A 
HETATM   26  C   UNL     1      -4.343  -4.770 -34.273  1.00  0.00     0.117 A 
HETATM   27  N   UNL     1      -5.419  -5.305 -34.883  1.00  0.00    -0.273 NA
HETATM   28  C   UNL     1      -6.452  -4.470 -35.116  1.00  0.00     0.117 A 
HETATM   29  C   UNL     1      -6.457  -3.131 -34.756  1.00  0.00     0.033 A 
ENDBRANCH   7  24
TORSDOF 5
ENDMDL
MODEL 10
REMARK VINA RESULT:      -8.0      3.549      8.241
REMARK  5 active torsions:
REMARK  status: ('A' for Active; 'I' for Inactive)
REMARK    1  A    between atoms: O_2  and  C_3 
REMARK    2  A    between atoms: C_7  and  C_8 
REMARK    3  A    between atoms: C_8  and  N_9 
REMARK       I    between atoms: N_9  and  C_10 
REMARK    4  A    between atoms: C_10  and  C_12 
REMARK    5  A    between atoms: C_18  and  C_22 
ROOT
HETATM    1  C   UNL     1      -5.896   3.007 -33.193  1.00  0.00     0.061 A 
HETATM    2  C   UNL     1      -4.815   2.910 -32.323  1.00  0.00     0.108 A 
HETATM    3  N   UNL     1      -4.391   1.606 -32.299  1.00  0.00    -0.349 N 
HETATM    4  H   UNL     1      -3.628   1.229 -31.754  1.00  0.00     0.167 HD
HETATM    5  C   UNL     1      -5.167   0.851 -33.129  1.00  0.00     0.139 A 
HETATM    6  N   UNL     1      -5.000  -0.468 -33.322  1.00  0.00    -0.230 NA
HETATM    7  C   UNL     1      -5.893  -1.025 -34.181  1.00  0.00     0.069 A 
HETATM    8  C   UNL     1      -6.894  -0.290 -34.826  1.00  0.00     0.033 A 
HETATM    9  C   UNL     1      -7.022   1.083 -34.592  1.00  0.00     0.018 A 
HETATM   10  C   UNL     1      -6.118   1.683 -33.700  1.00  0.00     0.027 A 
ENDROOT
BRANCH   1  11
HETATM   11  C   UNL     1      -6.671   4.205 -33.520  1.00  0.00     0.254 C 
HETATM   12  N   UNL     1      -7.831   4.367 -32.800  1.00  0.00    -0.353 N 
HETATM   13  H   UNL     1      -8.022   3.763 -32.015  1.00  0.00     0.163 HD
HETATM   14  O   UNL     1      -6.308   5.013 -34.369  1.00  0.00    -0.268 OA
BRANCH  12  15
HETATM   15  C   UNL     1      -8.666   5.527 -32.989  1.00  0.00     0.161 C 
BRANCH  15  16
HETATM   16  C   UNL     1      -9.817   5.208 -33.904  1.00  0.00    -0.038 A 
HETATM   17  C   UNL     1     -10.212   3.877 -34.100  1.00  0.00     0.009 A 
HETATM   18  C   UNL     1     -11.295   3.577 -34.921  1.00  0.00     0.003 A 
HETATM   19  C   UNL     1     -11.995   4.607 -35.551  1.00  0.00     0.037 A 
HETATM   20  C   UNL     1     -11.622   5.940 -35.365  1.00  0.00     0.068 A 
HETATM   21  C   UNL     1     -10.535   6.237 -34.539  1.00  0.00     0.045 A 
BRANCH  20  22
HETATM   22  O   UNL     1     -12.394   6.847 -36.038  1.00  0.00    -0.356 OA
HETATM   23  C   UNL     1     -12.620   8.099 -35.403  1.00  0.00     0.210 C 
ENDBRANCH  20  22
ENDBRANCH  15  16
ENDBRANCH  12  15
ENDBRANCH   1  11
BRANCH   7  24
HETATM   24  C   UNL     1      -5.721  -2.480 -34.394  1.00  0.00    -0.005 A 
HETATM   25  C   UNL     1      -6.741  -3.288 -34.916  1.00  0.00     0.033 A 
HETATM   26  C   UNL     1      -6.512  -4.646 -35.091  1.00  0.00     0.117 A 
HETATM   27  N   UNL     1      -5.350  -5.258 -34.788  1.00  0.00    -0.273 NA
HETATM   28  C   UNL     1      -4.378  -4.477 -34.276  1.00  0.00     0.117 A 
HETATM   29  C   UNL     1      -4.515  -3.114 -34.065  1.00  0.00     0.033 A 
ENDBRANCH   7  24
TORSDOF 5
ENDMDL
