MODEL 1
REMARK VINA RESULT:      -9.0      0.000      0.000
REMARK  5 active torsions:
REMARK  status: ('A' for Active; 'I' for Inactive)
REMARK    1  A    between atoms: O_2  and  C_3 
REMARK    2  A    between atoms: C_6  and  C_7 
REMARK    3  A    between atoms: C_11  and  N_12 
REMARK       I    between atoms: N_15  and  C_16 
REMARK    4  A    between atoms: C_16  and  C_17 
REMARK    5  A    between atoms: C_17  and  C_18 
ROOT
HETATM    1  N   UNL     1      -3.915   4.046 -32.091  1.00  0.00    -0.363 N 
HETATM    2  C   UNL     1      -4.531   5.384 -32.200  1.00  0.00     0.144 C 
HETATM    3  C   UNL     1      -3.976   6.326 -31.123  1.00  0.00     0.145 C 
HETATM    4  N   UNL     1      -2.508   6.362 -31.086  1.00  0.00    -0.349 N 
HETATM    5  C   UNL     1      -1.928   7.497 -30.527  1.00  0.00     0.224 C 
HETATM    6  O   UNL     1      -2.602   8.482 -30.210  1.00  0.00    -0.273 OA
HETATM    7  C   UNL     1      -1.867   5.039 -31.090  1.00  0.00     0.145 C 
HETATM    8  C   UNL     1      -2.444   4.079 -32.154  1.00  0.00     0.144 C 
ENDROOT
BRANCH   1   9
HETATM    9  C   UNL     1      -4.650   2.941 -32.416  1.00  0.00     0.122 A 
HETATM   10  N   UNL     1      -6.012   2.938 -32.576  1.00  0.00    -0.262 N 
HETATM   11  N   UNL     1      -6.527   1.762 -32.968  1.00  0.00    -0.173 NA
HETATM   12  H   UNL     1      -6.652   3.708 -32.443  1.00  0.00     0.191 HD
HETATM   13  C   UNL     1      -5.463   0.948 -33.070  1.00  0.00     0.090 A 
HETATM   14  C   UNL     1      -4.278   1.645 -32.704  1.00  0.00     0.084 A 
BRANCH  13  15
HETATM   15  C   UNL     1      -5.582  -0.434 -33.545  1.00  0.00    -0.005 A 
HETATM   16  C   UNL     1      -6.809  -0.921 -34.017  1.00  0.00     0.016 A 
HETATM   17  C   UNL     1      -6.921  -2.217 -34.539  1.00  0.00     0.037 A 
HETATM   18  C   UNL     1      -5.803  -3.048 -34.596  1.00  0.00     0.068 A 
HETATM   19  C   UNL     1      -4.585  -2.583 -34.096  1.00  0.00     0.037 A 
HETATM   20  C   UNL     1      -4.472  -1.288 -33.579  1.00  0.00     0.016 A 
BRANCH  18  21
HETATM   21  O   UNL     1      -5.771  -4.319 -35.097  1.00  0.00    -0.356 OA
HETATM   22  C   UNL     1      -4.884  -5.230 -34.458  1.00  0.00     0.210 C 
ENDBRANCH  18  21
ENDBRANCH  13  15
ENDBRANCH   1   9
BRANCH   5  23
HETATM   23  C   UNL     1      -0.420   7.527 -30.330  1.00  0.00     0.141 C 
BRANCH  23  24
HETATM   24  C   UNL     1       0.037   7.500 -28.889  1.00  0.00    -0.048 A 
HETATM   25  C   UNL     1      -0.593   6.636 -27.977  1.00  0.00     0.031 A 
HETATM   26  C   UNL     1      -0.144   6.550 -26.659  1.00  0.00     0.034 A 
HETATM   27 CL   UNL     1      -0.929   5.482 -25.560  1.00  0.00    -0.084 Cl
HETATM   28  C   UNL     1       0.938   7.312 -26.227  1.00  0.00     0.024 A 
HETATM   29  C   UNL     1       1.581   8.163 -27.126  1.00  0.00     0.002 A 
HETATM   30  C   UNL     1       1.139   8.249 -28.449  1.00  0.00     0.007 A 
ENDBRANCH  23  24
ENDBRANCH   5  23
TORSDOF 5
ENDMDL
MODEL 2
REMARK VINA RESULT:      -8.8      6.879     10.311
REMARK  5 active torsions:
REMARK  status: ('A' for Active; 'I' for Inactive)
REMARK    1  A    between atoms: O_2  and  C_3 
REMARK    2  A    between atoms: C_6  and  C_7 
REMARK    3  A    between atoms: C_11  and  N_12 
REMARK       I    between atoms: N_15  and  C_16 
REMARK    4  A    between atoms: C_16  and  C_17 
REMARK    5  A    between atoms: C_17  and  C_18 
ROOT
HETATM    1  N   UNL     1      -8.394   1.701 -33.157  1.00  0.00    -0.363 N 
HETATM    2  C   UNL     1      -7.583   2.079 -31.981  1.00  0.00     0.144 C 
HETATM    3  C   UNL     1      -6.652   0.930 -31.573  1.00  0.00     0.145 C 
HETATM    4  N   UNL     1      -5.851   0.409 -32.688  1.00  0.00    -0.349 N 
HETATM    5  C   UNL     1      -4.672  -0.250 -32.353  1.00  0.00     0.224 C 
HETATM    6  O   UNL     1      -4.247  -0.273 -31.194  1.00  0.00    -0.273 OA
HETATM    7  C   UNL     1      -6.620   0.129 -33.909  1.00  0.00     0.145 C 
HETATM    8  C   UNL     1      -7.581   1.272 -34.308  1.00  0.00     0.144 C 
ENDROOT
BRANCH   1   9
HETATM    9  C   UNL     1      -9.662   2.192 -33.283  1.00  0.00     0.122 A 
HETATM   10  N   UNL     1     -10.006   3.249 -34.086  1.00  0.00    -0.262 N 
HETATM   11  N   UNL     1     -11.319   3.523 -34.121  1.00  0.00    -0.173 NA
HETATM   12  H   UNL     1      -9.393   3.824 -34.647  1.00  0.00     0.191 HD
HETATM   13  C   UNL     1     -11.872   2.611 -33.303  1.00  0.00     0.090 A 
HETATM   14  C   UNL     1     -10.862   1.782 -32.742  1.00  0.00     0.084 A 
BRANCH  13  15
HETATM   15  C   UNL     1     -13.322   2.516 -33.110  1.00  0.00    -0.005 A 
HETATM   16  C   UNL     1     -14.057   1.493 -33.729  1.00  0.00     0.016 A 
HETATM   17  C   UNL     1     -15.431   1.348 -33.498  1.00  0.00     0.037 A 
HETATM   18  C   UNL     1     -16.095   2.227 -32.644  1.00  0.00     0.068 A 
HETATM   19  C   UNL     1     -15.378   3.269 -32.051  1.00  0.00     0.037 A 
HETATM   20  C   UNL     1     -14.005   3.412 -32.277  1.00  0.00     0.016 A 
BRANCH  18  21
HETATM   21  O   UNL     1     -17.421   2.185 -32.318  1.00  0.00    -0.356 OA
HETATM   22  C   UNL     1     -18.138   3.410 -32.416  1.00  0.00     0.210 C 
ENDBRANCH  18  21
ENDBRANCH  13  15
ENDBRANCH   1   9
BRANCH   5  23
HETATM   23  C   UNL     1      -3.878  -0.936 -33.454  1.00  0.00     0.141 C 
BRANCH  23  24
HETATM   24  C   UNL     1      -4.143  -2.417 -33.606  1.00  0.00    -0.048 A 
HETATM   25  C   UNL     1      -5.141  -2.856 -34.492  1.00  0.00     0.031 A 
HETATM   26  C   UNL     1      -5.357  -4.220 -34.693  1.00  0.00     0.034 A 
HETATM   27 CL   UNL     1      -6.583  -4.735 -35.787  1.00  0.00    -0.084 Cl
HETATM   28  C   UNL     1      -4.584  -5.167 -34.026  1.00  0.00     0.024 A 
HETATM   29  C   UNL     1      -3.581  -4.744 -33.155  1.00  0.00     0.002 A 
HETATM   30  C   UNL     1      -3.356  -3.379 -32.954  1.00  0.00     0.007 A 
ENDBRANCH  23  24
ENDBRANCH   5  23
TORSDOF 5
ENDMDL
MODEL 3
REMARK VINA RESULT:      -8.7      3.432     10.632
REMARK  5 active torsions:
REMARK  status: ('A' for Active; 'I' for Inactive)
REMARK    1  A    between atoms: O_2  and  C_3 
REMARK    2  A    between atoms: C_6  and  C_7 
REMARK    3  A    between atoms: C_11  and  N_12 
REMARK       I    between atoms: N_15  and  C_16 
REMARK    4  A    between atoms: C_16  and  C_17 
REMARK    5  A    between atoms: C_17  and  C_18 
ROOT
HETATM    1  N   UNL     1      -5.030   4.500 -31.889  1.00  0.00    -0.363 N 
HETATM    2  C   UNL     1      -5.818   4.736 -33.116  1.00  0.00     0.144 C 
HETATM    3  C   UNL     1      -5.883   3.464 -33.972  1.00  0.00     0.145 C 
HETATM    4  N   UNL     1      -6.319   2.281 -33.220  1.00  0.00    -0.349 N 
HETATM    5  C   UNL     1      -6.873   1.242 -33.961  1.00  0.00     0.224 C 
HETATM    6  O   UNL     1      -7.117   1.361 -35.166  1.00  0.00    -0.273 OA
HETATM    7  C   UNL     1      -5.625   2.086 -31.938  1.00  0.00     0.145 C 
HETATM    8  C   UNL     1      -5.533   3.372 -31.087  1.00  0.00     0.144 C 
ENDROOT
BRANCH   1   9
HETATM    9  C   UNL     1      -4.291   5.519 -31.360  1.00  0.00     0.122 A 
HETATM   10  N   UNL     1      -4.774   6.780 -31.118  1.00  0.00    -0.262 N 
HETATM   11  N   UNL     1      -3.902   7.610 -30.525  1.00  0.00    -0.173 NA
HETATM   12  H   UNL     1      -5.695   7.140 -31.325  1.00  0.00     0.191 HD
HETATM   13  C   UNL     1      -2.791   6.871 -30.369  1.00  0.00     0.090 A 
HETATM   14  C   UNL     1      -2.990   5.569 -30.905  1.00  0.00     0.084 A 
BRANCH  13  15
HETATM   15  C   UNL     1      -1.600   7.388 -29.687  1.00  0.00    -0.005 A 
HETATM   16  C   UNL     1      -1.704   8.460 -28.789  1.00  0.00     0.016 A 
HETATM   17  C   UNL     1      -0.587   8.920 -28.078  1.00  0.00     0.037 A 
HETATM   18  C   UNL     1       0.655   8.312 -28.257  1.00  0.00     0.068 A 
HETATM   19  C   UNL     1       0.774   7.267 -29.175  1.00  0.00     0.037 A 
HETATM   20  C   UNL     1      -0.341   6.805 -29.881  1.00  0.00     0.016 A 
BRANCH  18  21
HETATM   21  O   UNL     1       1.814   8.647 -27.614  1.00  0.00    -0.356 OA
HETATM   22  C   UNL     1       1.929   8.234 -26.258  1.00  0.00     0.210 C 
ENDBRANCH  18  21
ENDBRANCH  13  15
ENDBRANCH   1   9
BRANCH   5  23
HETATM   23  C   UNL     1      -7.209  -0.063 -33.256  1.00  0.00     0.141 C 
BRANCH  23  24
HETATM   24  C   UNL     1      -6.318  -1.232 -33.615  1.00  0.00    -0.048 A 
HETATM   25  C   UNL     1      -6.846  -2.307 -34.348  1.00  0.00     0.031 A 
HETATM   26  C   UNL     1      -6.025  -3.365 -34.744  1.00  0.00     0.034 A 
HETATM   27 CL   UNL     1      -6.694  -4.670 -35.645  1.00  0.00    -0.084 Cl
HETATM   28  C   UNL     1      -4.670  -3.367 -34.425  1.00  0.00     0.024 A 
HETATM   29  C   UNL     1      -4.131  -2.299 -33.710  1.00  0.00     0.002 A 
HETATM   30  C   UNL     1      -4.947  -1.235 -33.316  1.00  0.00     0.007 A 
ENDBRANCH  23  24
ENDBRANCH   5  23
TORSDOF 5
ENDMDL
MODEL 4
REMARK VINA RESULT:      -8.6      1.455      1.970
REMARK  5 active torsions:
REMARK  status: ('A' for Active; 'I' for Inactive)
REMARK    1  A    between atoms: O_2  and  C_3 
REMARK    2  A    between atoms: C_6  and  C_7 
REMARK    3  A    between atoms: C_11  and  N_12 
REMARK       I    between atoms: N_15  and  C_16 
REMARK    4  A    between atoms: C_16  and  C_17 
REMARK    5  A    between atoms: C_17  and  C_18 
ROOT
HETATM    1  N   UNL     1      -4.233   4.536 -32.184  1.00  0.00    -0.363 N 
HETATM    2  C   UNL     1      -3.115   5.000 -33.031  1.00  0.00     0.144 C 
HETATM    3  C   UNL     1      -3.008   6.531 -32.995  1.00  0.00     0.145 C 
HETATM    4  N   UNL     1      -2.971   7.077 -31.633  1.00  0.00    -0.349 N 
HETATM    5  C   UNL     1      -2.395   8.336 -31.482  1.00  0.00     0.224 C 
HETATM    6  O   UNL     1      -1.818   8.901 -32.416  1.00  0.00    -0.273 OA
HETATM    7  C   UNL     1      -4.009   6.545 -30.737  1.00  0.00     0.145 C 
HETATM    8  C   UNL     1      -4.139   5.007 -30.792  1.00  0.00     0.144 C 
ENDROOT
BRANCH   1   9
HETATM    9  C   UNL     1      -4.931   3.419 -32.547  1.00  0.00     0.122 A 
HETATM   10  N   UNL     1      -6.278   3.397 -32.803  1.00  0.00    -0.262 N 
HETATM   11  N   UNL     1      -6.750   2.211 -33.217  1.00  0.00    -0.173 NA
HETATM   12  H   UNL     1      -6.935   4.160 -32.723  1.00  0.00     0.191 HD
HETATM   13  C   UNL     1      -5.672   1.410 -33.235  1.00  0.00     0.090 A 
HETATM   14  C   UNL     1      -4.524   2.125 -32.795  1.00  0.00     0.084 A 
BRANCH  13  15
HETATM   15  C   UNL     1      -5.740   0.022 -33.703  1.00  0.00    -0.005 A 
HETATM   16  C   UNL     1      -4.696  -0.874 -33.428  1.00  0.00     0.016 A 
HETATM   17  C   UNL     1      -4.779  -2.220 -33.808  1.00  0.00     0.037 A 
HETATM   18  C   UNL     1      -5.909  -2.691 -34.474  1.00  0.00     0.068 A 
HETATM   19  C   UNL     1      -6.937  -1.798 -34.783  1.00  0.00     0.037 A 
HETATM   20  C   UNL     1      -6.858  -0.456 -34.399  1.00  0.00     0.016 A 
BRANCH  18  21
HETATM   21  O   UNL     1      -6.124  -3.979 -34.881  1.00  0.00    -0.356 OA
HETATM   22  C   UNL     1      -5.126  -4.929 -34.529  1.00  0.00     0.210 C 
ENDBRANCH  18  21
ENDBRANCH  13  15
ENDBRANCH   1   9
BRANCH   5  23
HETATM   23  C   UNL     1      -2.460   9.013 -30.122  1.00  0.00     0.141 C 
BRANCH  23  24
HETATM   24  C   UNL     1      -1.266   8.766 -29.227  1.00  0.00    -0.048 A 
HETATM   25  C   UNL     1      -1.130   9.494 -28.034  1.00  0.00     0.031 A 
HETATM   26  C   UNL     1      -0.069   9.236 -27.165  1.00  0.00     0.034 A 
HETATM   27 CL   UNL     1       0.074  10.138 -25.705  1.00  0.00    -0.084 Cl
HETATM   28  C   UNL     1       0.866   8.249 -27.462  1.00  0.00     0.024 A 
HETATM   29  C   UNL     1       0.735   7.509 -28.637  1.00  0.00     0.002 A 
HETATM   30  C   UNL     1      -0.328   7.760 -29.508  1.00  0.00     0.007 A 
ENDBRANCH  23  24
ENDBRANCH   5  23
TORSDOF 5
ENDMDL
MODEL 5
REMARK VINA RESULT:      -8.6      3.264      4.094
REMARK  5 active torsions:
REMARK  status: ('A' for Active; 'I' for Inactive)
REMARK    1  A    between atoms: O_2  and  C_3 
REMARK    2  A    between atoms: C_6  and  C_7 
REMARK    3  A    between atoms: C_11  and  N_12 
REMARK       I    between atoms: N_15  and  C_16 
REMARK    4  A    between atoms: C_16  and  C_17 
REMARK    5  A    between atoms: C_17  and  C_18 
ROOT
HETATM    1  N   UNL     1      -4.201   3.779 -33.056  1.00  0.00    -0.363 N 
HETATM    2  C   UNL     1      -3.972   4.713 -34.178  1.00  0.00     0.144 C 
HETATM    3  C   UNL     1      -3.375   6.033 -33.670  1.00  0.00     0.145 C 
HETATM    4  N   UNL     1      -2.193   5.844 -32.819  1.00  0.00    -0.349 N 
HETATM    5  C   UNL     1      -1.316   6.921 -32.724  1.00  0.00     0.224 C 
HETATM    6  O   UNL     1      -1.446   7.929 -33.426  1.00  0.00    -0.273 OA
HETATM    7  C   UNL     1      -2.360   4.836 -31.762  1.00  0.00     0.145 C 
HETATM    8  C   UNL     1      -2.988   3.517 -32.264  1.00  0.00     0.144 C 
ENDROOT
BRANCH   1   9
HETATM    9  C   UNL     1      -5.258   2.915 -33.109  1.00  0.00     0.122 A 
HETATM   10  N   UNL     1      -5.224   1.622 -32.653  1.00  0.00    -0.262 N 
HETATM   11  N   UNL     1      -6.393   0.969 -32.731  1.00  0.00    -0.173 NA
HETATM   12  H   UNL     1      -4.435   1.124 -32.265  1.00  0.00     0.191 HD
HETATM   13  C   UNL     1      -7.241   1.865 -33.265  1.00  0.00     0.090 A 
HETATM   14  C   UNL     1      -6.557   3.081 -33.539  1.00  0.00     0.084 A 
BRANCH  13  15
HETATM   15  C   UNL     1      -8.664   1.571 -33.459  1.00  0.00    -0.005 A 
HETATM   16  C   UNL     1      -9.239   0.425 -32.890  1.00  0.00     0.016 A 
HETATM   17  C   UNL     1     -10.611   0.168 -33.009  1.00  0.00     0.037 A 
HETATM   18  C   UNL     1     -11.432   1.057 -33.702  1.00  0.00     0.068 A 
HETATM   19  C   UNL     1     -10.863   2.182 -34.301  1.00  0.00     0.037 A 
HETATM   20  C   UNL     1      -9.494   2.441 -34.179  1.00  0.00     0.016 A 
BRANCH  18  21
HETATM   21  O   UNL     1     -12.783   0.936 -33.874  1.00  0.00    -0.356 OA
HETATM   22  C   UNL     1     -13.339  -0.352 -33.638  1.00  0.00     0.210 C 
ENDBRANCH  18  21
ENDBRANCH  13  15
ENDBRANCH   1   9
BRANCH   5  23
HETATM   23  C   UNL     1      -0.155   6.836 -31.745  1.00  0.00     0.141 C 
BRANCH  23  24
HETATM   24  C   UNL     1      -0.402   7.486 -30.402  1.00  0.00    -0.048 A 
HETATM   25  C   UNL     1       0.641   7.557 -29.464  1.00  0.00     0.031 A 
HETATM   26  C   UNL     1       0.452   8.208 -28.244  1.00  0.00     0.034 A 
HETATM   27 CL   UNL     1       1.745   8.285 -27.110  1.00  0.00    -0.084 Cl
HETATM   28  C   UNL     1      -0.769   8.804 -27.941  1.00  0.00     0.024 A 
HETATM   29  C   UNL     1      -1.808   8.754 -28.870  1.00  0.00     0.002 A 
HETATM   30  C   UNL     1      -1.622   8.107 -30.095  1.00  0.00     0.007 A 
ENDBRANCH  23  24
ENDBRANCH   5  23
TORSDOF 5
ENDMDL
MODEL 6
REMARK VINA RESULT:      -8.3      4.054      4.907
REMARK  5 active torsions:
REMARK  status: ('A' for Active; 'I' for Inactive)
REMARK    1  A    between atoms: O_2  and  C_3 
REMARK    2  A    between atoms: C_6  and  C_7 
REMARK    3  A    between atoms: C_11  and  N_12 
REMARK       I    between atoms: N_15  and  C_16 
REMARK    4  A    between atoms: C_16  and  C_17 
REMARK    5  A    between atoms: C_17  and  C_18 
ROOT
HETATM    1  N   UNL     1      -5.396   4.626 -32.830  1.00  0.00    -0.363 N 
HETATM    2  C   UNL     1      -4.351   4.492 -33.867  1.00  0.00     0.144 C 
HETATM    3  C   UNL     1      -3.686   5.847 -34.144  1.00  0.00     0.145 C 
HETATM    4  N   UNL     1      -3.215   6.521 -32.928  1.00  0.00    -0.349 N 
HETATM    5  C   UNL     1      -2.202   7.462 -33.090  1.00  0.00     0.224 C 
HETATM    6  O   UNL     1      -1.629   7.619 -34.172  1.00  0.00    -0.273 OA
HETATM    7  C   UNL     1      -4.202   6.569 -31.839  1.00  0.00     0.145 C 
HETATM    8  C   UNL     1      -4.895   5.213 -31.576  1.00  0.00     0.144 C 
ENDROOT
BRANCH   1   9
HETATM    9  C   UNL     1      -6.505   3.832 -32.890  1.00  0.00     0.122 A 
HETATM   10  N   UNL     1      -6.757   2.790 -32.035  1.00  0.00    -0.262 N 
HETATM   11  N   UNL     1      -7.941   2.186 -32.222  1.00  0.00    -0.173 NA
HETATM   12  H   UNL     1      -6.167   2.442 -31.292  1.00  0.00     0.191 HD
HETATM   13  C   UNL     1      -8.498   2.852 -33.247  1.00  0.00     0.090 A 
HETATM   14  C   UNL     1      -7.616   3.868 -33.706  1.00  0.00     0.084 A 
BRANCH  13  15
HETATM   15  C   UNL     1      -9.849   2.549 -33.732  1.00  0.00    -0.005 A 
HETATM   16  C   UNL     1     -10.482   3.399 -34.651  1.00  0.00     0.016 A 
HETATM   17  C   UNL     1     -11.743   3.086 -35.175  1.00  0.00     0.037 A 
HETATM   18  C   UNL     1     -12.393   1.916 -34.785  1.00  0.00     0.068 A 
HETATM   19  C   UNL     1     -11.785   1.082 -33.845  1.00  0.00     0.037 A 
HETATM   20  C   UNL     1     -10.524   1.392 -33.324  1.00  0.00     0.016 A 
BRANCH  18  21
HETATM   21  O   UNL     1     -13.610   1.484 -35.234  1.00  0.00    -0.356 OA
HETATM   22  C   UNL     1     -14.424   0.795 -34.293  1.00  0.00     0.210 C 
ENDBRANCH  18  21
ENDBRANCH  13  15
ENDBRANCH   1   9
BRANCH   5  23
HETATM   23  C   UNL     1      -1.776   8.294 -31.890  1.00  0.00     0.141 C 
BRANCH  23  24
HETATM   24  C   UNL     1      -1.016   7.537 -30.824  1.00  0.00    -0.048 A 
HETATM   25  C   UNL     1      -0.175   6.474 -31.193  1.00  0.00     0.031 A 
HETATM   26  C   UNL     1       0.582   5.804 -30.232  1.00  0.00     0.034 A 
HETATM   27 CL   UNL     1       1.609   4.507 -30.708  1.00  0.00    -0.084 Cl
HETATM   28  C   UNL     1       0.523   6.182 -28.893  1.00  0.00     0.024 A 
HETATM   29  C   UNL     1      -0.297   7.245 -28.515  1.00  0.00     0.002 A 
HETATM   30  C   UNL     1      -1.053   7.923 -29.475  1.00  0.00     0.007 A 
ENDBRANCH  23  24
ENDBRANCH   5  23
TORSDOF 5
ENDMDL
MODEL 7
REMARK VINA RESULT:      -8.3      7.454     11.565
REMARK  5 active torsions:
REMARK  status: ('A' for Active; 'I' for Inactive)
REMARK    1  A    between atoms: O_2  and  C_3 
REMARK    2  A    between atoms: C_6  and  C_7 
REMARK    3  A    between atoms: C_11  and  N_12 
REMARK       I    between atoms: N_15  and  C_16 
REMARK    4  A    between atoms: C_16  and  C_17 
REMARK    5  A    between atoms: C_17  and  C_18 
ROOT
HETATM    1  N   UNL     1     -10.196   1.983 -33.017  1.00  0.00    -0.363 N 
HETATM    2  C   UNL     1      -9.395   2.063 -31.779  1.00  0.00     0.144 C 
HETATM    3  C   UNL     1      -8.458   0.853 -31.661  1.00  0.00     0.145 C 
HETATM    4  N   UNL     1      -7.648   0.629 -32.865  1.00  0.00    -0.349 N 
HETATM    5  C   UNL     1      -6.466  -0.087 -32.696  1.00  0.00     0.224 C 
HETATM    6  O   UNL     1      -6.047  -0.394 -31.575  1.00  0.00    -0.273 OA
HETATM    7  C   UNL     1      -8.408   0.656 -34.123  1.00  0.00     0.145 C 
HETATM    8  C   UNL     1      -9.374   1.857 -34.232  1.00  0.00     0.144 C 
ENDROOT
BRANCH   1   9
HETATM    9  C   UNL     1     -11.467   2.484 -33.026  1.00  0.00     0.122 A 
HETATM   10  N   UNL     1     -12.596   1.726 -33.207  1.00  0.00    -0.262 N 
HETATM   11  N   UNL     1     -13.749   2.405 -33.106  1.00  0.00    -0.173 NA
HETATM   12  H   UNL     1     -12.652   0.735 -33.394  1.00  0.00     0.191 HD
HETATM   13  C   UNL     1     -13.371   3.669 -32.851  1.00  0.00     0.090 A 
HETATM   14  C   UNL     1     -11.952   3.758 -32.822  1.00  0.00     0.084 A 
BRANCH  13  15
HETATM   15  C   UNL     1     -14.343   4.738 -32.598  1.00  0.00    -0.005 A 
HETATM   16  C   UNL     1     -14.229   5.973 -33.254  1.00  0.00     0.016 A 
HETATM   17  C   UNL     1     -15.189   6.978 -33.075  1.00  0.00     0.037 A 
HETATM   18  C   UNL     1     -16.279   6.763 -32.233  1.00  0.00     0.068 A 
HETATM   19  C   UNL     1     -16.381   5.550 -31.550  1.00  0.00     0.037 A 
HETATM   20  C   UNL     1     -15.426   4.544 -31.732  1.00  0.00     0.016 A 
BRANCH  18  21
HETATM   21  O   UNL     1     -17.292   7.648 -31.989  1.00  0.00    -0.356 OA
HETATM   22  C   UNL     1     -17.452   8.070 -30.640  1.00  0.00     0.210 C 
ENDBRANCH  18  21
ENDBRANCH  13  15
ENDBRANCH   1   9
BRANCH   5  23
HETATM   23  C   UNL     1      -5.661  -0.474 -33.927  1.00  0.00     0.141 C 
BRANCH  23  24
HETATM   24  C   UNL     1      -5.655  -1.952 -34.248  1.00  0.00    -0.048 A 
HETATM   25  C   UNL     1      -4.507  -2.715 -33.981  1.00  0.00     0.031 A 
HETATM   26  C   UNL     1      -4.503  -4.092 -34.212  1.00  0.00     0.034 A 
HETATM   27 CL   UNL     1      -3.086  -5.008 -33.874  1.00  0.00    -0.084 Cl
HETATM   28  C   UNL     1      -5.638  -4.731 -34.703  1.00  0.00     0.024 A 
HETATM   29  C   UNL     1      -6.789  -3.986 -34.959  1.00  0.00     0.002 A 
HETATM   30  C   UNL     1      -6.800  -2.609 -34.725  1.00  0.00     0.007 A 
ENDBRANCH  23  24
ENDBRANCH   5  23
TORSDOF 5
ENDMDL
MODEL 8
REMARK VINA RESULT:      -8.2      4.126      5.099
REMARK  5 active torsions:
REMARK  status: ('A' for Active; 'I' for Inactive)
REMARK    1  A    between atoms: O_2  and  C_3 
REMARK    2  A    between atoms: C_6  and  C_7 
REMARK    3  A    between atoms: C_11  and  N_12 
REMARK       I    between atoms: N_15  and  C_16 
REMARK    4  A    between atoms: C_16  and  C_17 
REMARK    5  A    between atoms: C_17  and  C_18 
ROOT
HETATM    1  N   UNL     1      -5.860   5.018 -32.693  1.00  0.00    -0.363 N 
HETATM    2  C   UNL     1      -5.312   4.067 -31.702  1.00  0.00     0.144 C 
HETATM    3  C   UNL     1      -3.793   3.928 -31.868  1.00  0.00     0.145 C 
HETATM    4  N   UNL     1      -3.091   5.218 -31.887  1.00  0.00    -0.349 N 
HETATM    5  C   UNL     1      -1.743   5.198 -31.539  1.00  0.00     0.224 C 
HETATM    6  O   UNL     1      -1.200   4.179 -31.102  1.00  0.00    -0.273 OA
HETATM    7  C   UNL     1      -3.685   6.220 -32.783  1.00  0.00     0.145 C 
HETATM    8  C   UNL     1      -5.218   6.343 -32.640  1.00  0.00     0.144 C 
ENDROOT
BRANCH   1   9
HETATM    9  C   UNL     1      -7.116   4.817 -33.191  1.00  0.00     0.122 A 
HETATM   10  N   UNL     1      -7.802   5.731 -33.949  1.00  0.00    -0.262 N 
HETATM   11  N   UNL     1      -8.992   5.304 -34.400  1.00  0.00    -0.173 NA
HETATM   12  H   UNL     1      -7.512   6.664 -34.206  1.00  0.00     0.191 HD
HETATM   13  C   UNL     1      -9.103   4.055 -33.918  1.00  0.00     0.090 A 
HETATM   14  C   UNL     1      -7.961   3.729 -33.136  1.00  0.00     0.084 A 
BRANCH  13  15
HETATM   15  C   UNL     1     -10.245   3.194 -34.241  1.00  0.00    -0.005 A 
HETATM   16  C   UNL     1     -10.466   2.007 -33.526  1.00  0.00     0.016 A 
HETATM   17  C   UNL     1     -11.591   1.210 -33.777  1.00  0.00     0.037 A 
HETATM   18  C   UNL     1     -12.514   1.588 -34.751  1.00  0.00     0.068 A 
HETATM   19  C   UNL     1     -12.283   2.749 -35.491  1.00  0.00     0.037 A 
HETATM   20  C   UNL     1     -11.163   3.548 -35.238  1.00  0.00     0.016 A 
BRANCH  18  21
HETATM   21  O   UNL     1     -13.658   0.916 -35.078  1.00  0.00    -0.356 OA
HETATM   22  C   UNL     1     -14.513   0.557 -34.000  1.00  0.00     0.210 C 
ENDBRANCH  18  21
ENDBRANCH  13  15
ENDBRANCH   1   9
BRANCH   5  23
HETATM   23  C   UNL     1      -0.932   6.476 -31.680  1.00  0.00     0.141 C 
BRANCH  23  24
HETATM   24  C   UNL     1      -0.900   7.353 -30.448  1.00  0.00    -0.048 A 
HETATM   25  C   UNL     1       0.168   7.240 -29.543  1.00  0.00     0.031 A 
HETATM   26  C   UNL     1       0.248   8.084 -28.434  1.00  0.00     0.034 A 
HETATM   27 CL   UNL     1       1.569   7.931 -27.341  1.00  0.00    -0.084 Cl
HETATM   28  C   UNL     1      -0.726   9.053 -28.210  1.00  0.00     0.024 A 
HETATM   29  C   UNL     1      -1.784   9.185 -29.108  1.00  0.00     0.002 A 
HETATM   30  C   UNL     1      -1.866   8.347 -30.223  1.00  0.00     0.007 A 
ENDBRANCH  23  24
ENDBRANCH   5  23
TORSDOF 5
ENDMDL
MODEL 9
REMARK VINA RESULT:      -8.1      5.782      7.378
REMARK  5 active torsions:
REMARK  status: ('A' for Active; 'I' for Inactive)
REMARK    1  A    between atoms: O_2  and  C_3 
REMARK    2  A    between atoms: C_6  and  C_7 
REMARK    3  A    between atoms: C_11  and  N_12 
REMARK       I    between atoms: N_15  and  C_16 
REMARK    4  A    between atoms: C_16  and  C_17 
REMARK    5  A    between atoms: C_17  and  C_18 
ROOT
HETATM    1  N   UNL     1      -7.998   2.953 -33.155  1.00  0.00    -0.363 N 
HETATM    2  C   UNL     1      -7.517   2.695 -31.782  1.00  0.00     0.144 C 
HETATM    3  C   UNL     1      -6.057   2.224 -31.800  1.00  0.00     0.145 C 
HETATM    4  N   UNL     1      -5.172   3.108 -32.570  1.00  0.00    -0.349 N 
HETATM    5  C   UNL     1      -3.818   3.065 -32.251  1.00  0.00     0.224 C 
HETATM    6  O   UNL     1      -3.399   2.427 -31.280  1.00  0.00    -0.273 OA
HETATM    7  C   UNL     1      -5.683   3.470 -33.900  1.00  0.00     0.145 C 
HETATM    8  C   UNL     1      -7.162   3.917 -33.891  1.00  0.00     0.144 C 
ENDROOT
BRANCH   1   9
HETATM    9  C   UNL     1      -9.309   2.717 -33.462  1.00  0.00     0.122 A 
HETATM   10  N   UNL     1      -9.735   2.088 -34.603  1.00  0.00    -0.262 N 
HETATM   11  N   UNL     1     -11.061   1.892 -34.673  1.00  0.00    -0.173 NA
HETATM   12  H   UNL     1      -9.172   1.757 -35.374  1.00  0.00     0.191 HD
HETATM   13  C   UNL     1     -11.536   2.415 -33.530  1.00  0.00     0.090 A 
HETATM   14  C   UNL     1     -10.472   2.964 -32.764  1.00  0.00     0.084 A 
BRANCH  13  15
HETATM   15  C   UNL     1     -12.957   2.345 -33.173  1.00  0.00    -0.005 A 
HETATM   16  C   UNL     1     -13.790   1.378 -33.754  1.00  0.00     0.016 A 
HETATM   17  C   UNL     1     -15.132   1.254 -33.371  1.00  0.00     0.037 A 
HETATM   18  C   UNL     1     -15.663   2.100 -32.398  1.00  0.00     0.068 A 
HETATM   19  C   UNL     1     -14.850   3.088 -31.840  1.00  0.00     0.037 A 
HETATM   20  C   UNL     1     -13.509   3.209 -32.218  1.00  0.00     0.016 A 
BRANCH  18  21
HETATM   21  O   UNL     1     -16.944   2.072 -31.921  1.00  0.00    -0.356 OA
HETATM   22  C   UNL     1     -17.760   3.196 -32.230  1.00  0.00     0.210 C 
ENDBRANCH  18  21
ENDBRANCH  13  15
ENDBRANCH   1   9
BRANCH   5  23
HETATM   23  C   UNL     1      -2.838   3.848 -33.110  1.00  0.00     0.141 C 
BRANCH  23  24
HETATM   24  C   UNL     1      -2.436   5.196 -32.555  1.00  0.00    -0.048 A 
HETATM   25  C   UNL     1      -1.126   5.391 -32.087  1.00  0.00     0.031 A 
HETATM   26  C   UNL     1      -0.718   6.645 -31.630  1.00  0.00     0.034 A 
HETATM   27 CL   UNL     1       0.894   6.863 -31.065  1.00  0.00    -0.084 Cl
HETATM   28  C   UNL     1      -1.599   7.723 -31.636  1.00  0.00     0.024 A 
HETATM   29  C   UNL     1      -2.898   7.546 -32.111  1.00  0.00     0.002 A 
HETATM   30  C   UNL     1      -3.310   6.294 -32.575  1.00  0.00     0.007 A 
ENDBRANCH  23  24
ENDBRANCH   5  23
TORSDOF 5
ENDMDL
MODEL 10
REMARK VINA RESULT:      -8.0      2.396      2.727
REMARK  5 active torsions:
REMARK  status: ('A' for Active; 'I' for Inactive)
REMARK    1  A    between atoms: O_2  and  C_3 
REMARK    2  A    between atoms: C_6  and  C_7 
REMARK    3  A    between atoms: C_11  and  N_12 
REMARK       I    between atoms: N_15  and  C_16 
REMARK    4  A    between atoms: C_16  and  C_17 
REMARK    5  A    between atoms: C_17  and  C_18 
ROOT
HETATM    1  N   UNL     1      -3.468   4.085 -31.693  1.00  0.00    -0.363 N 
HETATM    2  C   UNL     1      -2.144   4.669 -31.993  1.00  0.00     0.144 C 
HETATM    3  C   UNL     1      -2.289   6.113 -32.491  1.00  0.00     0.145 C 
HETATM    4  N   UNL     1      -3.107   6.952 -31.605  1.00  0.00    -0.349 N 
HETATM    5  C   UNL     1      -2.898   8.326 -31.682  1.00  0.00     0.224 C 
HETATM    6  O   UNL     1      -1.978   8.807 -32.352  1.00  0.00    -0.273 OA
HETATM    7  C   UNL     1      -4.383   6.344 -31.201  1.00  0.00     0.145 C 
HETATM    8  C   UNL     1      -4.245   4.881 -30.727  1.00  0.00     0.144 C 
ENDROOT
BRANCH   1   9
HETATM    9  C   UNL     1      -3.674   2.750 -31.895  1.00  0.00     0.122 A 
HETATM   10  N   UNL     1      -3.139   1.758 -31.114  1.00  0.00    -0.262 N 
HETATM   11  N   UNL     1      -3.528   0.516 -31.442  1.00  0.00    -0.173 NA
HETATM   12  H   UNL     1      -2.507   1.859 -30.332  1.00  0.00     0.191 HD
HETATM   13  C   UNL     1      -4.353   0.690 -32.488  1.00  0.00     0.090 A 
HETATM   14  C   UNL     1      -4.444   2.071 -32.814  1.00  0.00     0.084 A 
BRANCH  13  15
HETATM   15  C   UNL     1      -5.062  -0.430 -33.116  1.00  0.00    -0.005 A 
HETATM   16  C   UNL     1      -6.423  -0.321 -33.437  1.00  0.00     0.016 A 
HETATM   17  C   UNL     1      -7.096  -1.356 -34.099  1.00  0.00     0.037 A 
HETATM   18  C   UNL     1      -6.416  -2.521 -34.450  1.00  0.00     0.068 A 
HETATM   19  C   UNL     1      -5.070  -2.652 -34.103  1.00  0.00     0.037 A 
HETATM   20  C   UNL     1      -4.396  -1.617 -33.446  1.00  0.00     0.016 A 
BRANCH  18  21
HETATM   21  O   UNL     1      -6.946  -3.592 -35.114  1.00  0.00    -0.356 OA
HETATM   22  C   UNL     1      -6.036  -4.620 -35.487  1.00  0.00     0.210 C 
ENDBRANCH  18  21
ENDBRANCH  13  15
ENDBRANCH   1   9
BRANCH   5  23
HETATM   23  C   UNL     1      -3.814   9.251 -30.897  1.00  0.00     0.141 C 
BRANCH  23  24
HETATM   24  C   UNL     1      -3.203   9.850 -29.650  1.00  0.00    -0.048 A 
HETATM   25  C   UNL     1      -3.247   9.134 -28.443  1.00  0.00     0.031 A 
HETATM   26  C   UNL     1      -2.633   9.641 -27.296  1.00  0.00     0.034 A 
HETATM   27 CL   UNL     1      -2.697   8.744 -25.828  1.00  0.00    -0.084 Cl
HETATM   28  C   UNL     1      -1.961  10.860 -27.333  1.00  0.00     0.024 A 
HETATM   29  C   UNL     1      -1.898  11.574 -28.529  1.00  0.00     0.002 A 
HETATM   30  C   UNL     1      -2.506  11.068 -29.681  1.00  0.00     0.007 A 
ENDBRANCH  23  24
ENDBRANCH   5  23
TORSDOF 5
ENDMDL
