MODEL 1
REMARK VINA RESULT:      -8.9      0.000      0.000
REMARK  11 active torsions:
REMARK  status: ('A' for Active; 'I' for Inactive)
REMARK    1  A    between atoms: O_2  and  C_3 
REMARK    2  A    between atoms: C_6  and  C_7 
REMARK    3  A    between atoms: C_7  and  S_8 
REMARK    4  A    between atoms: C_7  and  C_22 
REMARK    5  A    between atoms: S_8  and  C_9 
REMARK    6  A    between atoms: C_12  and  C_13 
REMARK    7  A    between atoms: C_22  and  C_23 
REMARK       I    between atoms: C_23  and  N_24 
REMARK    8  A    between atoms: N_24  and  C_25 
REMARK    9  A    between atoms: C_25  and  C_26 
REMARK   10  A    between atoms: C_26  and  C_27 
REMARK   11  A    between atoms: C_27  and  N_28 
ROOT
HETATM    1  C   UNL     1      -6.585   1.106 -32.589  1.00  0.00     0.097 C 
ENDROOT
BRANCH   1   2
HETATM    2  C   UNL     1      -6.216  -0.238 -33.216  1.00  0.00    -0.043 A 
HETATM    3  C   UNL     1      -4.875  -0.660 -33.212  1.00  0.00     0.011 A 
HETATM    4  C   UNL     1      -4.491  -1.862 -33.823  1.00  0.00     0.037 A 
HETATM    5  C   UNL     1      -5.440  -2.662 -34.454  1.00  0.00     0.068 A 
HETATM    6  C   UNL     1      -6.772  -2.251 -34.467  1.00  0.00     0.037 A 
HETATM    7  C   UNL     1      -7.160  -1.055 -33.858  1.00  0.00     0.011 A 
BRANCH   5   8
HETATM    8  O   UNL     1      -5.204  -3.844 -35.095  1.00  0.00    -0.356 OA
HETATM    9  C   UNL     1      -6.327  -4.680 -35.346  1.00  0.00     0.210 C 
ENDBRANCH   5   8
ENDBRANCH   1   2
BRANCH   1  10
HETATM   10  S   UNL     1      -7.366   2.200 -33.859  1.00  0.00    -0.080 SA
BRANCH  10  11
HETATM   11  C   UNL     1      -6.398   3.609 -33.713  1.00  0.00     0.190 A 
HETATM   12  N   UNL     1      -6.620   4.791 -34.221  1.00  0.00    -0.122 NA
HETATM   13  N   UNL     1      -5.517   5.565 -33.927  1.00  0.00    -0.129 NA
HETATM   14  C   UNL     1      -4.646   4.824 -33.259  1.00  0.00     0.162 A 
HETATM   15  N   UNL     1      -5.198   3.581 -33.079  1.00  0.00    -0.317 N 
HETATM   16  H   UNL     1      -4.784   2.787 -32.616  1.00  0.00     0.169 HD
BRANCH  14  17
HETATM   17  C   UNL     1      -3.327   5.232 -32.778  1.00  0.00     0.012 A 
HETATM   18  C   UNL     1      -2.696   4.479 -31.776  1.00  0.00     0.017 A 
HETATM   19  C   UNL     1      -1.433   4.839 -31.295  1.00  0.00     0.025 A 
HETATM   20  C   UNL     1      -0.794   5.963 -31.809  1.00  0.00     0.034 A 
HETATM   21 CL   UNL     1       0.759   6.411 -31.221  1.00  0.00    -0.084 Cl
HETATM   22  C   UNL     1      -1.407   6.731 -32.796  1.00  0.00     0.025 A 
HETATM   23  C   UNL     1      -2.670   6.368 -33.279  1.00  0.00     0.017 A 
ENDBRANCH  14  17
ENDBRANCH  10  11
ENDBRANCH   1  10
BRANCH   1  24
HETATM   24  C   UNL     1      -7.386   0.982 -31.282  1.00  0.00     0.123 C 
BRANCH  24  25
HETATM   25  C   UNL     1      -7.989   2.282 -30.793  1.00  0.00     0.219 C 
HETATM   26  N   UNL     1      -9.365   2.240 -30.691  1.00  0.00    -0.361 N 
HETATM   27  H   UNL     1      -9.833   1.450 -31.130  1.00  0.00     0.162 HD
HETATM   28  O   UNL     1      -7.349   3.276 -30.455  1.00  0.00    -0.274 OA
BRANCH  26  29
HETATM   29  C   UNL     1     -10.165   3.428 -30.471  1.00  0.00     0.124 C 
BRANCH  29  30
HETATM   30  C   UNL     1     -10.876   3.959 -31.716  1.00  0.00     0.047 C 
BRANCH  30  31
HETATM   31  C   UNL     1     -11.034   3.008 -32.903  1.00  0.00     0.236 C 
BRANCH  31  32
HETATM   32  N   UNL     1     -12.261   2.144 -32.836  1.00  0.00    -0.067 N 
HETATM   33  H   UNL     1     -12.165   1.589 -31.958  1.00  0.00     0.280 HD
HETATM   34  C   UNL     1     -13.585   2.884 -32.831  1.00  0.00     0.261 C 
HETATM   35  C   UNL     1     -14.741   1.883 -32.721  1.00  0.00     0.195 C 
HETATM   36  O   UNL     1     -14.697   0.924 -33.784  1.00  0.00    -0.388 OA
HETATM   37  C   UNL     1     -13.483   0.165 -33.750  1.00  0.00     0.195 C 
HETATM   38  C   UNL     1     -12.266   1.079 -33.931  1.00  0.00     0.261 C 
ENDBRANCH  31  32
ENDBRANCH  30  31
ENDBRANCH  29  30
ENDBRANCH  26  29
ENDBRANCH  24  25
ENDBRANCH   1  24
TORSDOF 11
ENDMDL
MODEL 2
REMARK VINA RESULT:      -8.6      2.311      3.133
REMARK  11 active torsions:
REMARK  status: ('A' for Active; 'I' for Inactive)
REMARK    1  A    between atoms: O_2  and  C_3 
REMARK    2  A    between atoms: C_6  and  C_7 
REMARK    3  A    between atoms: C_7  and  S_8 
REMARK    4  A    between atoms: C_7  and  C_22 
REMARK    5  A    between atoms: S_8  and  C_9 
REMARK    6  A    between atoms: C_12  and  C_13 
REMARK    7  A    between atoms: C_22  and  C_23 
REMARK       I    between atoms: C_23  and  N_24 
REMARK    8  A    between atoms: N_24  and  C_25 
REMARK    9  A    between atoms: C_25  and  C_26 
REMARK   10  A    between atoms: C_26  and  C_27 
REMARK   11  A    between atoms: C_27  and  N_28 
ROOT
HETATM    1  C   UNL     1      -4.618   1.524 -31.202  1.00  0.00     0.097 C 
ENDROOT
BRANCH   1   2
HETATM    2  C   UNL     1      -4.436   0.232 -31.999  1.00  0.00    -0.043 A 
HETATM    3  C   UNL     1      -5.216   0.009 -33.146  1.00  0.00     0.011 A 
HETATM    4  C   UNL     1      -5.114  -1.185 -33.873  1.00  0.00     0.037 A 
HETATM    5  C   UNL     1      -4.233  -2.182 -33.463  1.00  0.00     0.068 A 
HETATM    6  C   UNL     1      -3.456  -1.973 -32.323  1.00  0.00     0.037 A 
HETATM    7  C   UNL     1      -3.553  -0.783 -31.597  1.00  0.00     0.011 A 
BRANCH   5   8
HETATM    8  O   UNL     1      -4.041  -3.392 -34.066  1.00  0.00    -0.356 OA
HETATM    9  C   UNL     1      -3.501  -4.437 -33.266  1.00  0.00     0.210 C 
ENDBRANCH   5   8
ENDBRANCH   1   2
BRANCH   1  10
HETATM   10  S   UNL     1      -4.980   2.926 -32.352  1.00  0.00    -0.080 SA
BRANCH  10  11
HETATM   11  C   UNL     1      -3.494   3.780 -32.300  1.00  0.00     0.190 A 
HETATM   12  N   UNL     1      -2.539   3.784 -33.190  1.00  0.00    -0.122 NA
HETATM   13  N   UNL     1      -1.504   4.526 -32.662  1.00  0.00    -0.129 NA
HETATM   14  C   UNL     1      -1.854   4.942 -31.454  1.00  0.00     0.162 A 
HETATM   15  N   UNL     1      -3.133   4.508 -31.212  1.00  0.00    -0.317 N 
HETATM   16  H   UNL     1      -3.682   4.652 -30.380  1.00  0.00     0.169 HD
BRANCH  14  17
HETATM   17  C   UNL     1      -1.048   5.731 -30.524  1.00  0.00     0.012 A 
HETATM   18  C   UNL     1      -1.354   7.086 -30.326  1.00  0.00     0.017 A 
HETATM   19  C   UNL     1      -0.606   7.869 -29.441  1.00  0.00     0.025 A 
HETATM   20  C   UNL     1       0.462   7.303 -28.752  1.00  0.00     0.034 A 
HETATM   21 CL   UNL     1       1.387   8.261 -27.664  1.00  0.00    -0.084 Cl
HETATM   22  C   UNL     1       0.790   5.962 -28.943  1.00  0.00     0.025 A 
HETATM   23  C   UNL     1       0.039   5.178 -29.827  1.00  0.00     0.017 A 
ENDBRANCH  14  17
ENDBRANCH  10  11
ENDBRANCH   1  10
BRANCH   1  24
HETATM   24  C   UNL     1      -5.604   1.396 -30.030  1.00  0.00     0.123 C 
BRANCH  24  25
HETATM   25  C   UNL     1      -6.994   1.922 -30.322  1.00  0.00     0.219 C 
HETATM   26  N   UNL     1      -7.788   1.017 -30.998  1.00  0.00    -0.361 N 
HETATM   27  H   UNL     1      -7.321   0.206 -31.398  1.00  0.00     0.162 HD
HETATM   28  O   UNL     1      -7.429   3.014 -29.960  1.00  0.00    -0.274 OA
BRANCH  26  29
HETATM   29  C   UNL     1      -9.061   1.385 -31.583  1.00  0.00     0.124 C 
BRANCH  29  30
HETATM   30  C   UNL     1      -9.465   0.561 -32.805  1.00  0.00     0.047 C 
BRANCH  30  31
HETATM   31  C   UNL     1      -9.291   1.202 -34.183  1.00  0.00     0.236 C 
BRANCH  31  32
HETATM   32  N   UNL     1     -10.557   1.770 -34.758  1.00  0.00    -0.067 N 
HETATM   33  H   UNL     1     -10.551   1.501 -35.767  1.00  0.00     0.280 HD
HETATM   34  C   UNL     1     -11.844   1.296 -34.110  1.00  0.00     0.261 C 
HETATM   35  C   UNL     1     -13.048   1.923 -34.821  1.00  0.00     0.195 C 
HETATM   36  O   UNL     1     -12.968   3.353 -34.809  1.00  0.00    -0.388 OA
HETATM   37  C   UNL     1     -11.794   3.815 -35.488  1.00  0.00     0.195 C 
HETATM   38  C   UNL     1     -10.527   3.297 -34.797  1.00  0.00     0.261 C 
ENDBRANCH  31  32
ENDBRANCH  30  31
ENDBRANCH  29  30
ENDBRANCH  26  29
ENDBRANCH  24  25
ENDBRANCH   1  24
TORSDOF 11
ENDMDL
MODEL 3
REMARK VINA RESULT:      -8.5      3.777      8.019
REMARK  11 active torsions:
REMARK  status: ('A' for Active; 'I' for Inactive)
REMARK    1  A    between atoms: O_2  and  C_3 
REMARK    2  A    between atoms: C_6  and  C_7 
REMARK    3  A    between atoms: C_7  and  S_8 
REMARK    4  A    between atoms: C_7  and  C_22 
REMARK    5  A    between atoms: S_8  and  C_9 
REMARK    6  A    between atoms: C_12  and  C_13 
REMARK    7  A    between atoms: C_22  and  C_23 
REMARK       I    between atoms: C_23  and  N_24 
REMARK    8  A    between atoms: N_24  and  C_25 
REMARK    9  A    between atoms: C_25  and  C_26 
REMARK   10  A    between atoms: C_26  and  C_27 
REMARK   11  A    between atoms: C_27  and  N_28 
ROOT
HETATM    1  C   UNL     1      -7.029   0.356 -33.462  1.00  0.00     0.097 C 
ENDROOT
BRANCH   1   2
HETATM    2  C   UNL     1      -6.146  -0.857 -33.755  1.00  0.00    -0.043 A 
HETATM    3  C   UNL     1      -6.596  -1.842 -34.650  1.00  0.00     0.011 A 
HETATM    4  C   UNL     1      -5.838  -2.993 -34.906  1.00  0.00     0.037 A 
HETATM    5  C   UNL     1      -4.616  -3.182 -34.266  1.00  0.00     0.068 A 
HETATM    6  C   UNL     1      -4.161  -2.213 -33.373  1.00  0.00     0.037 A 
HETATM    7  C   UNL     1      -4.913  -1.063 -33.117  1.00  0.00     0.011 A 
BRANCH   5   8
HETATM    8  O   UNL     1      -3.784  -4.256 -34.411  1.00  0.00    -0.356 OA
HETATM    9  C   UNL     1      -3.327  -4.887 -33.220  1.00  0.00     0.210 C 
ENDBRANCH   5   8
ENDBRANCH   1   2
BRANCH   1  10
HETATM   10  S   UNL     1      -8.097   0.725 -34.925  1.00  0.00    -0.080 SA
BRANCH  10  11
HETATM   11  C   UNL     1      -9.269   1.759 -34.218  1.00  0.00     0.190 A 
HETATM   12  N   UNL     1      -9.073   2.901 -33.614  1.00  0.00    -0.122 NA
HETATM   13  N   UNL     1     -10.295   3.305 -33.120  1.00  0.00    -0.129 NA
HETATM   14  C   UNL     1     -11.200   2.388 -33.424  1.00  0.00     0.162 A 
HETATM   15  N   UNL     1     -10.578   1.407 -34.155  1.00  0.00    -0.317 N 
HETATM   16  H   UNL     1     -10.990   0.567 -34.529  1.00  0.00     0.169 HD
BRANCH  14  17
HETATM   17  C   UNL     1     -12.618   2.395 -33.068  1.00  0.00     0.012 A 
HETATM   18  C   UNL     1     -13.124   3.435 -32.273  1.00  0.00     0.017 A 
HETATM   19  C   UNL     1     -14.476   3.474 -31.918  1.00  0.00     0.025 A 
HETATM   20  C   UNL     1     -15.333   2.467 -32.350  1.00  0.00     0.034 A 
HETATM   21 CL   UNL     1     -16.996   2.510 -31.914  1.00  0.00    -0.084 Cl
HETATM   22  C   UNL     1     -14.849   1.419 -33.130  1.00  0.00     0.025 A 
HETATM   23  C   UNL     1     -13.496   1.382 -33.488  1.00  0.00     0.017 A 
ENDBRANCH  14  17
ENDBRANCH  10  11
ENDBRANCH   1  10
BRANCH   1  24
HETATM   24  C   UNL     1      -7.791   0.261 -32.130  1.00  0.00     0.123 C 
BRANCH  24  25
HETATM   25  C   UNL     1      -7.222   1.121 -31.021  1.00  0.00     0.219 C 
HETATM   26  N   UNL     1      -7.729   2.405 -31.014  1.00  0.00    -0.361 N 
HETATM   27  H   UNL     1      -8.252   2.697 -31.837  1.00  0.00     0.162 HD
HETATM   28  O   UNL     1      -6.433   0.736 -30.161  1.00  0.00    -0.274 OA
BRANCH  26  29
HETATM   29  C   UNL     1      -7.162   3.460 -30.198  1.00  0.00     0.124 C 
BRANCH  29  30
HETATM   30  C   UNL     1      -5.943   4.153 -30.808  1.00  0.00     0.047 C 
BRANCH  30  31
HETATM   31  C   UNL     1      -5.957   4.419 -32.314  1.00  0.00     0.236 C 
BRANCH  31  32
HETATM   32  N   UNL     1      -4.624   4.826 -32.875  1.00  0.00    -0.067 N 
HETATM   33  H   UNL     1      -4.486   5.817 -32.577  1.00  0.00     0.280 HD
HETATM   34  C   UNL     1      -3.440   3.988 -32.431  1.00  0.00     0.261 C 
HETATM   35  C   UNL     1      -2.150   4.541 -33.048  1.00  0.00     0.195 C 
HETATM   36  O   UNL     1      -2.237   4.582 -34.477  1.00  0.00    -0.388 OA
HETATM   37  C   UNL     1      -3.305   5.434 -34.909  1.00  0.00     0.195 C 
HETATM   38  C   UNL     1      -4.655   4.915 -34.400  1.00  0.00     0.261 C 
ENDBRANCH  31  32
ENDBRANCH  30  31
ENDBRANCH  29  30
ENDBRANCH  26  29
ENDBRANCH  24  25
ENDBRANCH   1  24
TORSDOF 11
ENDMDL
MODEL 4
REMARK VINA RESULT:      -8.4      1.140      1.511
REMARK  11 active torsions:
REMARK  status: ('A' for Active; 'I' for Inactive)
REMARK    1  A    between atoms: O_2  and  C_3 
REMARK    2  A    between atoms: C_6  and  C_7 
REMARK    3  A    between atoms: C_7  and  S_8 
REMARK    4  A    between atoms: C_7  and  C_22 
REMARK    5  A    between atoms: S_8  and  C_9 
REMARK    6  A    between atoms: C_12  and  C_13 
REMARK    7  A    between atoms: C_22  and  C_23 
REMARK       I    between atoms: C_23  and  N_24 
REMARK    8  A    between atoms: N_24  and  C_25 
REMARK    9  A    between atoms: C_25  and  C_26 
REMARK   10  A    between atoms: C_26  and  C_27 
REMARK   11  A    between atoms: C_27  and  N_28 
ROOT
HETATM    1  C   UNL     1      -5.639   1.422 -32.710  1.00  0.00     0.097 C 
ENDROOT
BRANCH   1   2
HETATM    2  C   UNL     1      -5.514   0.038 -33.344  1.00  0.00    -0.043 A 
HETATM    3  C   UNL     1      -6.489  -0.397 -34.258  1.00  0.00     0.011 A 
HETATM    4  C   UNL     1      -6.436  -1.679 -34.821  1.00  0.00     0.037 A 
HETATM    5  C   UNL     1      -5.409  -2.554 -34.477  1.00  0.00     0.068 A 
HETATM    6  C   UNL     1      -4.438  -2.135 -33.569  1.00  0.00     0.037 A 
HETATM    7  C   UNL     1      -4.486  -0.856 -33.007  1.00  0.00     0.011 A 
BRANCH   5   8
HETATM    8  O   UNL     1      -5.243  -3.829 -34.938  1.00  0.00    -0.356 OA
HETATM    9  C   UNL     1      -6.417  -4.544 -35.304  1.00  0.00     0.210 C 
ENDBRANCH   5   8
ENDBRANCH   1   2
BRANCH   1  10
HETATM   10  S   UNL     1      -6.428   2.592 -33.903  1.00  0.00    -0.080 SA
BRANCH  10  11
HETATM   11  C   UNL     1      -5.354   3.926 -33.809  1.00  0.00     0.190 A 
HETATM   12  N   UNL     1      -5.087   4.808 -34.735  1.00  0.00    -0.122 NA
HETATM   13  N   UNL     1      -4.087   5.618 -34.237  1.00  0.00    -0.129 NA
HETATM   14  C   UNL     1      -3.763   5.194 -33.025  1.00  0.00     0.162 A 
HETATM   15  N   UNL     1      -4.580   4.137 -32.714  1.00  0.00    -0.317 N 
HETATM   16  H   UNL     1      -4.580   3.589 -31.868  1.00  0.00     0.169 HD
BRANCH  14  17
HETATM   17  C   UNL     1      -2.730   5.741 -32.146  1.00  0.00     0.012 A 
HETATM   18  C   UNL     1      -1.401   5.792 -32.593  1.00  0.00     0.017 A 
HETATM   19  C   UNL     1      -0.390   6.312 -31.780  1.00  0.00     0.025 A 
HETATM   20  C   UNL     1      -0.700   6.779 -30.506  1.00  0.00     0.034 A 
HETATM   21 CL   UNL     1       0.541   7.419 -29.501  1.00  0.00    -0.084 Cl
HETATM   22  C   UNL     1      -2.011   6.727 -30.038  1.00  0.00     0.025 A 
HETATM   23  C   UNL     1      -3.023   6.209 -30.854  1.00  0.00     0.017 A 
ENDBRANCH  14  17
ENDBRANCH  10  11
ENDBRANCH   1  10
BRANCH   1  24
HETATM   24  C   UNL     1      -6.285   1.410 -31.314  1.00  0.00     0.123 C 
BRANCH  24  25
HETATM   25  C   UNL     1      -7.797   1.494 -31.326  1.00  0.00     0.219 C 
HETATM   26  N   UNL     1      -8.275   2.753 -31.017  1.00  0.00    -0.361 N 
HETATM   27  H   UNL     1      -7.606   3.414 -30.627  1.00  0.00     0.162 HD
HETATM   28  O   UNL     1      -8.555   0.576 -31.632  1.00  0.00    -0.274 OA
BRANCH  26  29
HETATM   29  C   UNL     1      -9.674   3.006 -30.742  1.00  0.00     0.124 C 
BRANCH  29  30
HETATM   30  C   UNL     1     -10.444   3.657 -31.891  1.00  0.00     0.047 C 
BRANCH  30  31
HETATM   31  C   UNL     1     -10.952   2.746 -33.010  1.00  0.00     0.236 C 
BRANCH  31  32
HETATM   32  N   UNL     1     -12.321   2.179 -32.763  1.00  0.00    -0.067 N 
HETATM   33  H   UNL     1     -12.211   1.524 -31.958  1.00  0.00     0.280 HD
HETATM   34  C   UNL     1     -13.406   3.193 -32.453  1.00  0.00     0.261 C 
HETATM   35  C   UNL     1     -14.732   2.473 -32.186  1.00  0.00     0.195 C 
HETATM   36  O   UNL     1     -15.106   1.650 -33.298  1.00  0.00    -0.388 OA
HETATM   37  C   UNL     1     -14.124   0.638 -33.551  1.00  0.00     0.195 C 
HETATM   38  C   UNL     1     -12.772   1.269 -33.904  1.00  0.00     0.261 C 
ENDBRANCH  31  32
ENDBRANCH  30  31
ENDBRANCH  29  30
ENDBRANCH  26  29
ENDBRANCH  24  25
ENDBRANCH   1  24
TORSDOF 11
ENDMDL
MODEL 5
REMARK VINA RESULT:      -8.3      3.326      7.000
REMARK  11 active torsions:
REMARK  status: ('A' for Active; 'I' for Inactive)
REMARK    1  A    between atoms: O_2  and  C_3 
REMARK    2  A    between atoms: C_6  and  C_7 
REMARK    3  A    between atoms: C_7  and  S_8 
REMARK    4  A    between atoms: C_7  and  C_22 
REMARK    5  A    between atoms: S_8  and  C_9 
REMARK    6  A    between atoms: C_12  and  C_13 
REMARK    7  A    between atoms: C_22  and  C_23 
REMARK       I    between atoms: C_23  and  N_24 
REMARK    8  A    between atoms: N_24  and  C_25 
REMARK    9  A    between atoms: C_25  and  C_26 
REMARK   10  A    between atoms: C_26  and  C_27 
REMARK   11  A    between atoms: C_27  and  N_28 
ROOT
HETATM    1  C   UNL     1      -5.163   5.104 -32.699  1.00  0.00     0.097 C 
ENDROOT
BRANCH   1   2
HETATM    2  C   UNL     1      -3.693   5.300 -32.328  1.00  0.00    -0.043 A 
HETATM    3  C   UNL     1      -2.691   4.862 -33.210  1.00  0.00     0.011 A 
HETATM    4  C   UNL     1      -1.333   4.978 -32.881  1.00  0.00     0.037 A 
HETATM    5  C   UNL     1      -0.952   5.529 -31.661  1.00  0.00     0.068 A 
HETATM    6  C   UNL     1      -1.938   5.964 -30.776  1.00  0.00     0.037 A 
HETATM    7  C   UNL     1      -3.293   5.852 -31.101  1.00  0.00     0.011 A 
BRANCH   5   8
HETATM    8  O   UNL     1       0.326   5.690 -31.209  1.00  0.00    -0.356 OA
HETATM    9  C   UNL     1       0.663   5.059 -29.979  1.00  0.00     0.210 C 
ENDBRANCH   5   8
ENDBRANCH   1   2
BRANCH   1  10
HETATM   10  S   UNL     1      -5.877   3.704 -31.726  1.00  0.00    -0.080 SA
BRANCH  10  11
HETATM   11  C   UNL     1      -6.068   2.521 -32.953  1.00  0.00     0.190 A 
HETATM   12  N   UNL     1      -6.672   2.648 -34.104  1.00  0.00    -0.122 NA
HETATM   13  N   UNL     1      -6.663   1.404 -34.699  1.00  0.00    -0.129 NA
HETATM   14  C   UNL     1      -6.065   0.548 -33.883  1.00  0.00     0.162 A 
HETATM   15  N   UNL     1      -5.645   1.243 -32.777  1.00  0.00    -0.317 N 
HETATM   16  H   UNL     1      -5.165   0.878 -31.969  1.00  0.00     0.169 HD
BRANCH  14  17
HETATM   17  C   UNL     1      -5.865  -0.883 -34.099  1.00  0.00     0.012 A 
HETATM   18  C   UNL     1      -4.614  -1.454 -33.818  1.00  0.00     0.017 A 
HETATM   19  C   UNL     1      -4.389  -2.821 -34.009  1.00  0.00     0.025 A 
HETATM   20  C   UNL     1      -5.415  -3.628 -34.492  1.00  0.00     0.034 A 
HETATM   21 CL   UNL     1      -5.143  -5.309 -34.731  1.00  0.00    -0.084 Cl
HETATM   22  C   UNL     1      -6.660  -3.080 -34.789  1.00  0.00     0.025 A 
HETATM   23  C   UNL     1      -6.886  -1.712 -34.594  1.00  0.00     0.017 A 
ENDBRANCH  14  17
ENDBRANCH  10  11
ENDBRANCH   1  10
BRANCH   1  24
HETATM   24  C   UNL     1      -5.993   6.398 -32.649  1.00  0.00     0.123 C 
BRANCH  24  25
HETATM   25  C   UNL     1      -7.492   6.178 -32.646  1.00  0.00     0.219 C 
HETATM   26  N   UNL     1      -7.978   5.726 -33.856  1.00  0.00    -0.361 N 
HETATM   27  H   UNL     1      -7.347   5.780 -34.653  1.00  0.00     0.162 HD
HETATM   28  O   UNL     1      -8.226   6.320 -31.670  1.00  0.00    -0.274 OA
BRANCH  26  29
HETATM   29  C   UNL     1      -9.395   5.672 -34.152  1.00  0.00     0.124 C 
BRANCH  29  30
HETATM   30  C   UNL     1      -9.889   4.320 -34.669  1.00  0.00     0.047 C 
BRANCH  30  31
HETATM   31  C   UNL     1     -11.028   3.642 -33.906  1.00  0.00     0.236 C 
BRANCH  31  32
HETATM   32  N   UNL     1     -10.596   2.467 -33.076  1.00  0.00    -0.067 N 
HETATM   33  H   UNL     1     -11.430   2.204 -32.508  1.00  0.00     0.280 HD
HETATM   34  C   UNL     1     -10.103   1.261 -33.852  1.00  0.00     0.261 C 
HETATM   35  C   UNL     1      -9.735   0.132 -32.882  1.00  0.00     0.195 C 
HETATM   36  O   UNL     1      -8.752   0.565 -31.934  1.00  0.00    -0.388 OA
HETATM   37  C   UNL     1      -9.237   1.656 -31.142  1.00  0.00     0.195 C 
HETATM   38  C   UNL     1      -9.562   2.866 -32.025  1.00  0.00     0.261 C 
ENDBRANCH  31  32
ENDBRANCH  30  31
ENDBRANCH  29  30
ENDBRANCH  26  29
ENDBRANCH  24  25
ENDBRANCH   1  24
TORSDOF 11
ENDMDL
MODEL 6
REMARK VINA RESULT:      -8.3      3.916      7.775
REMARK  11 active torsions:
REMARK  status: ('A' for Active; 'I' for Inactive)
REMARK    1  A    between atoms: O_2  and  C_3 
REMARK    2  A    between atoms: C_6  and  C_7 
REMARK    3  A    between atoms: C_7  and  S_8 
REMARK    4  A    between atoms: C_7  and  C_22 
REMARK    5  A    between atoms: S_8  and  C_9 
REMARK    6  A    between atoms: C_12  and  C_13 
REMARK    7  A    between atoms: C_22  and  C_23 
REMARK       I    between atoms: C_23  and  N_24 
REMARK    8  A    between atoms: N_24  and  C_25 
REMARK    9  A    between atoms: C_25  and  C_26 
REMARK   10  A    between atoms: C_26  and  C_27 
REMARK   11  A    between atoms: C_27  and  N_28 
ROOT
HETATM    1  C   UNL     1      -5.602   1.168 -32.597  1.00  0.00     0.097 C 
ENDROOT
BRANCH   1   2
HETATM    2  C   UNL     1      -5.585  -0.180 -33.316  1.00  0.00    -0.043 A 
HETATM    3  C   UNL     1      -6.737  -0.622 -33.990  1.00  0.00     0.011 A 
HETATM    4  C   UNL     1      -6.776  -1.875 -34.617  1.00  0.00     0.037 A 
HETATM    5  C   UNL     1      -5.665  -2.712 -34.578  1.00  0.00     0.068 A 
HETATM    6  C   UNL     1      -4.517  -2.287 -33.910  1.00  0.00     0.037 A 
HETATM    7  C   UNL     1      -4.474  -1.037 -33.286  1.00  0.00     0.011 A 
BRANCH   5   8
HETATM    8  O   UNL     1      -5.569  -3.957 -35.133  1.00  0.00    -0.356 OA
HETATM    9  C   UNL     1      -4.841  -4.937 -34.404  1.00  0.00     0.210 C 
ENDBRANCH   5   8
ENDBRANCH   1   2
BRANCH   1  10
HETATM   10  S   UNL     1      -7.302   1.522 -31.963  1.00  0.00    -0.080 SA
BRANCH  10  11
HETATM   11  C   UNL     1      -7.783   2.789 -33.014  1.00  0.00     0.190 A 
HETATM   12  N   UNL     1      -7.043   3.743 -33.512  1.00  0.00    -0.122 NA
HETATM   13  N   UNL     1      -7.889   4.582 -34.207  1.00  0.00    -0.129 NA
HETATM   14  C   UNL     1      -9.126   4.122 -34.098  1.00  0.00     0.162 A 
HETATM   15  N   UNL     1      -9.082   2.959 -33.371  1.00  0.00    -0.317 N 
HETATM   16  H   UNL     1      -9.856   2.371 -33.106  1.00  0.00     0.169 HD
BRANCH  14  17
HETATM   17  C   UNL     1     -10.341   4.717 -34.652  1.00  0.00     0.012 A 
HETATM   18  C   UNL     1     -10.372   6.094 -34.921  1.00  0.00     0.017 A 
HETATM   19  C   UNL     1     -11.517   6.695 -35.454  1.00  0.00     0.025 A 
HETATM   20  C   UNL     1     -12.644   5.923 -35.716  1.00  0.00     0.034 A 
HETATM   21 CL   UNL     1     -14.055   6.658 -36.370  1.00  0.00    -0.084 Cl
HETATM   22  C   UNL     1     -12.638   4.557 -35.445  1.00  0.00     0.025 A 
HETATM   23  C   UNL     1     -11.491   3.955 -34.914  1.00  0.00     0.017 A 
ENDBRANCH  14  17
ENDBRANCH  10  11
ENDBRANCH   1  10
BRANCH   1  24
HETATM   24  C   UNL     1      -4.490   1.325 -31.547  1.00  0.00     0.123 C 
BRANCH  24  25
HETATM   25  C   UNL     1      -3.836   2.692 -31.530  1.00  0.00     0.219 C 
HETATM   26  N   UNL     1      -4.434   3.570 -30.647  1.00  0.00    -0.361 N 
HETATM   27  H   UNL     1      -5.337   3.294 -30.268  1.00  0.00     0.162 HD
HETATM   28  O   UNL     1      -2.839   3.008 -32.175  1.00  0.00    -0.274 OA
BRANCH  26  29
HETATM   29  C   UNL     1      -4.128   4.985 -30.634  1.00  0.00     0.124 C 
BRANCH  29  30
HETATM   30  C   UNL     1      -5.127   5.862 -31.390  1.00  0.00     0.047 C 
BRANCH  30  31
HETATM   31  C   UNL     1      -4.786   6.247 -32.830  1.00  0.00     0.236 C 
BRANCH  31  32
HETATM   32  N   UNL     1      -3.348   6.016 -33.201  1.00  0.00    -0.067 N 
HETATM   33  H   UNL     1      -2.993   5.313 -32.516  1.00  0.00     0.280 HD
HETATM   34  C   UNL     1      -3.107   5.520 -34.614  1.00  0.00     0.261 C 
HETATM   35  C   UNL     1      -1.607   5.292 -34.837  1.00  0.00     0.195 C 
HETATM   36  O   UNL     1      -0.859   6.486 -34.581  1.00  0.00    -0.388 OA
HETATM   37  C   UNL     1      -1.019   6.920 -33.224  1.00  0.00     0.195 C 
HETATM   38  C   UNL     1      -2.487   7.247 -32.928  1.00  0.00     0.261 C 
ENDBRANCH  31  32
ENDBRANCH  30  31
ENDBRANCH  29  30
ENDBRANCH  26  29
ENDBRANCH  24  25
ENDBRANCH   1  24
TORSDOF 11
ENDMDL
MODEL 7
REMARK VINA RESULT:      -8.2      3.497      7.404
REMARK  11 active torsions:
REMARK  status: ('A' for Active; 'I' for Inactive)
REMARK    1  A    between atoms: O_2  and  C_3 
REMARK    2  A    between atoms: C_6  and  C_7 
REMARK    3  A    between atoms: C_7  and  S_8 
REMARK    4  A    between atoms: C_7  and  C_22 
REMARK    5  A    between atoms: S_8  and  C_9 
REMARK    6  A    between atoms: C_12  and  C_13 
REMARK    7  A    between atoms: C_22  and  C_23 
REMARK       I    between atoms: C_23  and  N_24 
REMARK    8  A    between atoms: N_24  and  C_25 
REMARK    9  A    between atoms: C_25  and  C_26 
REMARK   10  A    between atoms: C_26  and  C_27 
REMARK   11  A    between atoms: C_27  and  N_28 
ROOT
HETATM    1  C   UNL     1      -4.089   4.819 -32.174  1.00  0.00     0.097 C 
ENDROOT
BRANCH   1   2
HETATM    2  C   UNL     1      -2.821   5.396 -31.545  1.00  0.00    -0.043 A 
HETATM    3  C   UNL     1      -2.919   6.474 -30.649  1.00  0.00     0.011 A 
HETATM    4  C   UNL     1      -1.775   7.062 -30.092  1.00  0.00     0.037 A 
HETATM    5  C   UNL     1      -0.510   6.585 -30.424  1.00  0.00     0.068 A 
HETATM    6  C   UNL     1      -0.400   5.518 -31.315  1.00  0.00     0.037 A 
HETATM    7  C   UNL     1      -1.538   4.927 -31.871  1.00  0.00     0.011 A 
BRANCH   5   8
HETATM    8  O   UNL     1       0.683   7.069 -29.968  1.00  0.00    -0.356 OA
HETATM    9  C   UNL     1       0.766   7.389 -28.585  1.00  0.00     0.210 C 
ENDBRANCH   5   8
ENDBRANCH   1   2
BRANCH   1  10
HETATM   10  S   UNL     1      -4.931   3.694 -30.973  1.00  0.00    -0.080 SA
BRANCH  10  11
HETATM   11  C   UNL     1      -4.382   2.164 -31.522  1.00  0.00     0.190 A 
HETATM   12  N   UNL     1      -3.159   1.705 -31.525  1.00  0.00    -0.122 NA
HETATM   13  N   UNL     1      -3.195   0.481 -32.159  1.00  0.00    -0.129 NA
HETATM   14  C   UNL     1      -4.441   0.236 -32.538  1.00  0.00     0.162 A 
HETATM   15  N   UNL     1      -5.224   1.280 -32.113  1.00  0.00    -0.317 N 
HETATM   16  H   UNL     1      -6.215   1.398 -32.252  1.00  0.00     0.169 HD
BRANCH  14  17
HETATM   17  C   UNL     1      -4.927  -0.932 -33.270  1.00  0.00     0.012 A 
HETATM   18  C   UNL     1      -6.248  -0.948 -33.742  1.00  0.00     0.017 A 
HETATM   19  C   UNL     1      -6.745  -2.048 -34.450  1.00  0.00     0.025 A 
HETATM   20  C   UNL     1      -5.923  -3.146 -34.684  1.00  0.00     0.034 A 
HETATM   21 CL   UNL     1      -6.528  -4.501 -35.553  1.00  0.00    -0.084 Cl
HETATM   22  C   UNL     1      -4.611  -3.155 -34.215  1.00  0.00     0.025 A 
HETATM   23  C   UNL     1      -4.114  -2.053 -33.509  1.00  0.00     0.017 A 
ENDBRANCH  14  17
ENDBRANCH  10  11
ENDBRANCH   1  10
BRANCH   1  24
HETATM   24  C   UNL     1      -5.009   5.881 -32.798  1.00  0.00     0.123 C 
BRANCH  24  25
HETATM   25  C   UNL     1      -6.249   5.319 -33.463  1.00  0.00     0.219 C 
HETATM   26  N   UNL     1      -7.395   6.031 -33.169  1.00  0.00    -0.361 N 
HETATM   27  H   UNL     1      -7.334   6.703 -32.407  1.00  0.00     0.162 HD
HETATM   28  O   UNL     1      -6.265   4.366 -34.240  1.00  0.00    -0.274 OA
BRANCH  26  29
HETATM   29  C   UNL     1      -8.718   5.544 -33.501  1.00  0.00     0.124 C 
BRANCH  29  30
HETATM   30  C   UNL     1      -9.488   4.936 -32.328  1.00  0.00     0.047 C 
BRANCH  30  31
HETATM   31  C   UNL     1      -9.018   3.581 -31.797  1.00  0.00     0.236 C 
BRANCH  31  32
HETATM   32  N   UNL     1      -9.927   2.437 -32.148  1.00  0.00    -0.067 N 
HETATM   33  H   UNL     1     -10.424   2.193 -31.264  1.00  0.00     0.280 HD
HETATM   34  C   UNL     1     -10.937   2.714 -33.245  1.00  0.00     0.261 C 
HETATM   35  C   UNL     1     -11.816   1.478 -33.468  1.00  0.00     0.195 C 
HETATM   36  O   UNL     1     -11.021   0.330 -33.786  1.00  0.00    -0.388 OA
HETATM   37  C   UNL     1     -10.116   0.013 -32.722  1.00  0.00     0.195 C 
HETATM   38  C   UNL     1      -9.141   1.169 -32.475  1.00  0.00     0.261 C 
ENDBRANCH  31  32
ENDBRANCH  30  31
ENDBRANCH  29  30
ENDBRANCH  26  29
ENDBRANCH  24  25
ENDBRANCH   1  24
TORSDOF 11
ENDMDL
MODEL 8
REMARK VINA RESULT:      -8.2      1.829      2.347
REMARK  11 active torsions:
REMARK  status: ('A' for Active; 'I' for Inactive)
REMARK    1  A    between atoms: O_2  and  C_3 
REMARK    2  A    between atoms: C_6  and  C_7 
REMARK    3  A    between atoms: C_7  and  S_8 
REMARK    4  A    between atoms: C_7  and  C_22 
REMARK    5  A    between atoms: S_8  and  C_9 
REMARK    6  A    between atoms: C_12  and  C_13 
REMARK    7  A    between atoms: C_22  and  C_23 
REMARK       I    between atoms: C_23  and  N_24 
REMARK    8  A    between atoms: N_24  and  C_25 
REMARK    9  A    between atoms: C_25  and  C_26 
REMARK   10  A    between atoms: C_26  and  C_27 
REMARK   11  A    between atoms: C_27  and  N_28 
ROOT
HETATM    1  C   UNL     1      -5.942   0.889 -31.762  1.00  0.00     0.097 C 
ENDROOT
BRANCH   1   2
HETATM    2  C   UNL     1      -5.832  -0.244 -32.782  1.00  0.00    -0.043 A 
HETATM    3  C   UNL     1      -6.922  -0.529 -33.623  1.00  0.00     0.011 A 
HETATM    4  C   UNL     1      -6.878  -1.592 -34.535  1.00  0.00     0.037 A 
HETATM    5  C   UNL     1      -5.743  -2.395 -34.620  1.00  0.00     0.068 A 
HETATM    6  C   UNL     1      -4.657  -2.124 -33.789  1.00  0.00     0.037 A 
HETATM    7  C   UNL     1      -4.697  -1.064 -32.880  1.00  0.00     0.011 A 
BRANCH   5   8
HETATM    8  O   UNL     1      -5.570  -3.465 -35.450  1.00  0.00    -0.356 OA
HETATM    9  C   UNL     1      -6.487  -4.544 -35.317  1.00  0.00     0.210 C 
ENDBRANCH   5   8
ENDBRANCH   1   2
BRANCH   1  10
HETATM   10  S   UNL     1      -4.359   1.041 -30.820  1.00  0.00    -0.080 SA
BRANCH  10  11
HETATM   11  C   UNL     1      -3.708   2.471 -31.508  1.00  0.00     0.190 A 
HETATM   12  N   UNL     1      -2.960   2.581 -32.573  1.00  0.00    -0.122 NA
HETATM   13  N   UNL     1      -2.594   3.907 -32.669  1.00  0.00    -0.129 NA
HETATM   14  C   UNL     1      -3.120   4.566 -31.648  1.00  0.00     0.162 A 
HETATM   15  N   UNL     1      -3.864   3.680 -30.910  1.00  0.00    -0.317 N 
HETATM   16  H   UNL     1      -4.383   3.867 -30.067  1.00  0.00     0.169 HD
BRANCH  14  17
HETATM   17  C   UNL     1      -2.963   5.987 -31.340  1.00  0.00     0.012 A 
HETATM   18  C   UNL     1      -2.132   6.779 -32.147  1.00  0.00     0.017 A 
HETATM   19  C   UNL     1      -1.962   8.142 -31.883  1.00  0.00     0.025 A 
HETATM   20  C   UNL     1      -2.618   8.722 -30.801  1.00  0.00     0.034 A 
HETATM   21 CL   UNL     1      -2.411  10.397 -30.471  1.00  0.00    -0.084 Cl
HETATM   22  C   UNL     1      -3.438   7.951 -29.980  1.00  0.00     0.025 A 
HETATM   23  C   UNL     1      -3.610   6.588 -30.247  1.00  0.00     0.017 A 
ENDBRANCH  14  17
ENDBRANCH  10  11
ENDBRANCH   1  10
BRANCH   1  24
HETATM   24  C   UNL     1      -6.454   2.211 -32.357  1.00  0.00     0.123 C 
BRANCH  24  25
HETATM   25  C   UNL     1      -7.342   3.011 -31.426  1.00  0.00     0.219 C 
HETATM   26  N   UNL     1      -8.595   2.456 -31.257  1.00  0.00    -0.361 N 
HETATM   27  H   UNL     1      -8.859   1.715 -31.903  1.00  0.00     0.162 HD
HETATM   28  O   UNL     1      -7.000   4.023 -30.818  1.00  0.00    -0.274 OA
BRANCH  26  29
HETATM   29  C   UNL     1      -9.677   3.164 -30.605  1.00  0.00     0.124 C 
BRANCH  29  30
HETATM   30  C   UNL     1     -10.772   3.665 -31.547  1.00  0.00     0.047 C 
BRANCH  30  31
HETATM   31  C   UNL     1     -11.005   2.886 -32.842  1.00  0.00     0.236 C 
BRANCH  31  32
HETATM   32  N   UNL     1     -12.251   2.046 -32.836  1.00  0.00    -0.067 N 
HETATM   33  H   UNL     1     -12.279   1.596 -31.895  1.00  0.00     0.280 HD
HETATM   34  C   UNL     1     -13.548   2.793 -33.084  1.00  0.00     0.261 C 
HETATM   35  C   UNL     1     -14.731   1.822 -33.010  1.00  0.00     0.195 C 
HETATM   36  O   UNL     1     -14.576   0.746 -33.942  1.00  0.00    -0.388 OA
HETATM   37  C   UNL     1     -13.393  -0.014 -33.668  1.00  0.00     0.195 C 
HETATM   38  C   UNL     1     -12.142   0.863 -33.794  1.00  0.00     0.261 C 
ENDBRANCH  31  32
ENDBRANCH  30  31
ENDBRANCH  29  30
ENDBRANCH  26  29
ENDBRANCH  24  25
ENDBRANCH   1  24
TORSDOF 11
ENDMDL
MODEL 9
REMARK VINA RESULT:      -8.1      1.600      2.188
REMARK  11 active torsions:
REMARK  status: ('A' for Active; 'I' for Inactive)
REMARK    1  A    between atoms: O_2  and  C_3 
REMARK    2  A    between atoms: C_6  and  C_7 
REMARK    3  A    between atoms: C_7  and  S_8 
REMARK    4  A    between atoms: C_7  and  C_22 
REMARK    5  A    between atoms: S_8  and  C_9 
REMARK    6  A    between atoms: C_12  and  C_13 
REMARK    7  A    between atoms: C_22  and  C_23 
REMARK       I    between atoms: C_23  and  N_24 
REMARK    8  A    between atoms: N_24  and  C_25 
REMARK    9  A    between atoms: C_25  and  C_26 
REMARK   10  A    between atoms: C_26  and  C_27 
REMARK   11  A    between atoms: C_27  and  N_28 
ROOT
HETATM    1  C   UNL     1      -5.633   1.387 -32.604  1.00  0.00     0.097 C 
ENDROOT
BRANCH   1   2
HETATM    2  C   UNL     1      -5.602   0.041 -33.328  1.00  0.00    -0.043 A 
HETATM    3  C   UNL     1      -6.769  -0.444 -33.942  1.00  0.00     0.011 A 
HETATM    4  C   UNL     1      -6.792  -1.696 -34.571  1.00  0.00     0.037 A 
HETATM    5  C   UNL     1      -5.649  -2.490 -34.594  1.00  0.00     0.068 A 
HETATM    6  C   UNL     1      -4.485  -2.021 -33.985  1.00  0.00     0.037 A 
HETATM    7  C   UNL     1      -4.457  -0.771 -33.359  1.00  0.00     0.011 A 
BRANCH   5   8
HETATM    8  O   UNL     1      -5.534  -3.728 -35.157  1.00  0.00    -0.356 OA
HETATM    9  C   UNL     1      -6.731  -4.479 -35.321  1.00  0.00     0.210 C 
ENDBRANCH   5   8
ENDBRANCH   1   2
BRANCH   1  10
HETATM   10  S   UNL     1      -6.537   2.632 -33.630  1.00  0.00    -0.080 SA
BRANCH  10  11
HETATM   11  C   UNL     1      -5.418   3.932 -33.621  1.00  0.00     0.190 A 
HETATM   12  N   UNL     1      -5.113   4.735 -34.605  1.00  0.00    -0.122 NA
HETATM   13  N   UNL     1      -4.091   5.545 -34.157  1.00  0.00    -0.129 NA
HETATM   14  C   UNL     1      -3.791   5.200 -32.914  1.00  0.00     0.162 A 
HETATM   15  N   UNL     1      -4.647   4.196 -32.536  1.00  0.00    -0.317 N 
HETATM   16  H   UNL     1      -4.672   3.712 -31.653  1.00  0.00     0.169 HD
BRANCH  14  17
HETATM   17  C   UNL     1      -2.748   5.775 -32.067  1.00  0.00     0.012 A 
HETATM   18  C   UNL     1      -1.407   5.695 -32.474  1.00  0.00     0.017 A 
HETATM   19  C   UNL     1      -0.385   6.238 -31.690  1.00  0.00     0.025 A 
HETATM   20  C   UNL     1      -0.695   6.858 -30.484  1.00  0.00     0.034 A 
HETATM   21 CL   UNL     1       0.558   7.525 -29.514  1.00  0.00    -0.084 Cl
HETATM   22  C   UNL     1      -2.018   6.938 -30.055  1.00  0.00     0.025 A 
HETATM   23  C   UNL     1      -3.042   6.397 -30.842  1.00  0.00     0.017 A 
ENDBRANCH  14  17
ENDBRANCH  10  11
ENDBRANCH   1  10
BRANCH   1  24
HETATM   24  C   UNL     1      -6.117   1.297 -31.147  1.00  0.00     0.123 C 
BRANCH  24  25
HETATM   25  C   UNL     1      -7.009   2.441 -30.713  1.00  0.00     0.219 C 
HETATM   26  N   UNL     1      -8.344   2.097 -30.650  1.00  0.00    -0.361 N 
HETATM   27  H   UNL     1      -8.611   1.214 -31.079  1.00  0.00     0.162 HD
HETATM   28  O   UNL     1      -6.616   3.559 -30.385  1.00  0.00    -0.274 OA
BRANCH  26  29
HETATM   29  C   UNL     1      -9.393   3.082 -30.487  1.00  0.00     0.124 C 
BRANCH  29  30
HETATM   30  C   UNL     1      -9.960   3.635 -31.795  1.00  0.00     0.047 C 
BRANCH  30  31
HETATM   31  C   UNL     1     -10.278   2.636 -32.909  1.00  0.00     0.236 C 
BRANCH  31  32
HETATM   32  N   UNL     1     -10.826   3.266 -34.158  1.00  0.00    -0.067 N 
HETATM   33  H   UNL     1     -10.011   3.361 -34.803  1.00  0.00     0.280 HD
HETATM   34  C   UNL     1     -11.937   2.499 -34.847  1.00  0.00     0.261 C 
HETATM   35  C   UNL     1     -12.368   3.236 -36.121  1.00  0.00     0.195 C 
HETATM   36  O   UNL     1     -12.779   4.576 -35.827  1.00  0.00    -0.388 OA
HETATM   37  C   UNL     1     -11.711   5.334 -35.246  1.00  0.00     0.195 C 
HETATM   38  C   UNL     1     -11.261   4.710 -33.920  1.00  0.00     0.261 C 
ENDBRANCH  31  32
ENDBRANCH  30  31
ENDBRANCH  29  30
ENDBRANCH  26  29
ENDBRANCH  24  25
ENDBRANCH   1  24
TORSDOF 11
ENDMDL
MODEL 10
REMARK VINA RESULT:      -8.1      3.377      8.249
REMARK  11 active torsions:
REMARK  status: ('A' for Active; 'I' for Inactive)
REMARK    1  A    between atoms: O_2  and  C_3 
REMARK    2  A    between atoms: C_6  and  C_7 
REMARK    3  A    between atoms: C_7  and  S_8 
REMARK    4  A    between atoms: C_7  and  C_22 
REMARK    5  A    between atoms: S_8  and  C_9 
REMARK    6  A    between atoms: C_12  and  C_13 
REMARK    7  A    between atoms: C_22  and  C_23 
REMARK       I    between atoms: C_23  and  N_24 
REMARK    8  A    between atoms: N_24  and  C_25 
REMARK    9  A    between atoms: C_25  and  C_26 
REMARK   10  A    between atoms: C_26  and  C_27 
REMARK   11  A    between atoms: C_27  and  N_28 
ROOT
HETATM    1  C   UNL     1      -8.974   3.669 -32.958  1.00  0.00     0.097 C 
ENDROOT
BRANCH   1   2
HETATM    2  C   UNL     1     -10.235   3.083 -33.592  1.00  0.00    -0.043 A 
HETATM    3  C   UNL     1     -10.926   3.820 -34.570  1.00  0.00     0.011 A 
HETATM    4  C   UNL     1     -12.114   3.338 -35.136  1.00  0.00     0.037 A 
HETATM    5  C   UNL     1     -12.637   2.113 -34.732  1.00  0.00     0.068 A 
HETATM    6  C   UNL     1     -11.963   1.375 -33.759  1.00  0.00     0.037 A 
HETATM    7  C   UNL     1     -10.776   1.851 -33.194  1.00  0.00     0.011 A 
BRANCH   5   8
HETATM    8  O   UNL     1     -13.786   1.533 -35.188  1.00  0.00    -0.356 OA
HETATM    9  C   UNL     1     -14.512   0.722 -34.272  1.00  0.00     0.210 C 
ENDBRANCH   5   8
ENDBRANCH   1   2
BRANCH   1  10
HETATM   10  S   UNL     1      -8.652   2.855 -31.330  1.00  0.00    -0.080 SA
BRANCH  10  11
HETATM   11  C   UNL     1      -7.357   1.808 -31.741  1.00  0.00     0.190 A 
HETATM   12  N   UNL     1      -6.076   2.029 -31.616  1.00  0.00    -0.122 NA
HETATM   13  N   UNL     1      -5.429   0.949 -32.177  1.00  0.00    -0.129 NA
HETATM   14  C   UNL     1      -6.337   0.105 -32.643  1.00  0.00     0.162 A 
HETATM   15  N   UNL     1      -7.577   0.613 -32.347  1.00  0.00    -0.317 N 
HETATM   16  H   UNL     1      -8.474   0.214 -32.574  1.00  0.00     0.169 HD
BRANCH  14  17
HETATM   17  C   UNL     1      -6.095  -1.155 -33.344  1.00  0.00     0.012 A 
HETATM   18  C   UNL     1      -4.797  -1.686 -33.378  1.00  0.00     0.017 A 
HETATM   19  C   UNL     1      -4.530  -2.891 -34.035  1.00  0.00     0.025 A 
HETATM   20  C   UNL     1      -5.563  -3.572 -34.673  1.00  0.00     0.034 A 
HETATM   21 CL   UNL     1      -5.241  -5.054 -35.484  1.00  0.00    -0.084 Cl
HETATM   22  C   UNL     1      -6.857  -3.057 -34.661  1.00  0.00     0.025 A 
HETATM   23  C   UNL     1      -7.123  -1.852 -33.999  1.00  0.00     0.017 A 
ENDBRANCH  14  17
ENDBRANCH  10  11
ENDBRANCH   1  10
BRANCH   1  24
HETATM   24  C   UNL     1      -7.760   3.696 -33.903  1.00  0.00     0.123 C 
BRANCH  24  25
HETATM   25  C   UNL     1      -6.827   4.869 -33.686  1.00  0.00     0.219 C 
HETATM   26  N   UNL     1      -7.156   5.631 -32.583  1.00  0.00    -0.361 N 
HETATM   27  H   UNL     1      -8.069   5.462 -32.165  1.00  0.00     0.162 HD
HETATM   28  O   UNL     1      -5.832   5.116 -34.365  1.00  0.00    -0.274 OA
BRANCH  26  29
HETATM   29  C   UNL     1      -6.551   6.920 -32.321  1.00  0.00     0.124 C 
BRANCH  29  30
HETATM   30  C   UNL     1      -5.581   6.943 -31.139  1.00  0.00     0.047 C 
BRANCH  30  31
HETATM   31  C   UNL     1      -4.433   5.932 -31.143  1.00  0.00     0.236 C 
BRANCH  31  32
HETATM   32  N   UNL     1      -3.621   5.933 -32.407  1.00  0.00    -0.067 N 
HETATM   33  H   UNL     1      -4.314   5.876 -33.185  1.00  0.00     0.280 HD
HETATM   34  C   UNL     1      -2.723   7.139 -32.609  1.00  0.00     0.261 C 
HETATM   35  C   UNL     1      -1.989   7.023 -33.950  1.00  0.00     0.195 C 
HETATM   36  O   UNL     1      -1.235   5.808 -34.024  1.00  0.00    -0.388 OA
HETATM   37  C   UNL     1      -2.085   4.660 -33.912  1.00  0.00     0.195 C 
HETATM   38  C   UNL     1      -2.809   4.649 -32.560  1.00  0.00     0.261 C 
ENDBRANCH  31  32
ENDBRANCH  30  31
ENDBRANCH  29  30
ENDBRANCH  26  29
ENDBRANCH  24  25
ENDBRANCH   1  24
TORSDOF 11
ENDMDL
