MODEL 1
REMARK VINA RESULT:     -10.1      0.000      0.000
REMARK  7 active torsions:
REMARK  status: ('A' for Active; 'I' for Inactive)
REMARK    1  A    between atoms: C_2  and  C_3 
REMARK    2  A    between atoms: N_10  and  C_11 
REMARK    3  A    between atoms: C_11  and  C_12 
REMARK       I    between atoms: C_12  and  N_13 
REMARK    4  A    between atoms: N_13  and  C_14 
REMARK    5  A    between atoms: C_17  and  C_18 
REMARK       I    between atoms: C_18  and  N_19 
REMARK    6  A    between atoms: N_19  and  C_20 
REMARK    7  A    between atoms: C_21  and  O_22 
ROOT
HETATM    1  C   UNL     1      -2.656   5.711 -31.896  1.00  0.00     0.240 C 
HETATM    2  N   UNL     1      -3.359   4.727 -31.231  1.00  0.00    -0.326 N 
HETATM    3  O   UNL     1      -2.451   5.747 -33.110  1.00  0.00    -0.271 OA
HETATM    4  H   UNL     1      -3.425   4.813 -30.225  1.00  0.00     0.169 HD
ENDROOT
BRANCH   2   5
HETATM    5  C   UNL     1      -4.020   3.619 -31.817  1.00  0.00     0.034 A 
HETATM    6  C   UNL     1      -5.314   3.670 -32.345  1.00  0.00     0.030 A 
HETATM    7  C   UNL     1      -5.930   2.526 -32.872  1.00  0.00     0.019 A 
HETATM    8  C   UNL     1      -5.251   1.306 -32.885  1.00  0.00     0.032 A 
HETATM    9  C   UNL     1      -3.950   1.247 -32.367  1.00  0.00     0.019 A 
HETATM   10  C   UNL     1      -3.338   2.397 -31.845  1.00  0.00     0.030 A 
BRANCH   8  11
HETATM   11  C   UNL     1      -5.902   0.046 -33.351  1.00  0.00     0.256 C 
HETATM   12  N   UNL     1      -5.093  -1.075 -33.366  1.00  0.00    -0.321 N 
HETATM   13  H   UNL     1      -4.197  -1.036 -32.894  1.00  0.00     0.169 HD
HETATM   14  O   UNL     1      -7.088   0.092 -33.663  1.00  0.00    -0.267 OA
BRANCH  12  15
HETATM   15  C   UNL     1      -5.387  -2.347 -33.913  1.00  0.00     0.068 A 
HETATM   16  C   UNL     1      -4.426  -3.367 -33.736  1.00  0.00     0.095 A 
HETATM   17  C   UNL     1      -4.648  -4.633 -34.286  1.00  0.00     0.039 A 
HETATM   18  C   UNL     1      -5.816  -4.891 -35.008  1.00  0.00     0.003 A 
HETATM   19  C   UNL     1      -6.763  -3.887 -35.182  1.00  0.00     0.002 A 
HETATM   20  C   UNL     1      -6.550  -2.619 -34.638  1.00  0.00     0.032 A 
BRANCH  16  21
HETATM   21  O   UNL     1      -3.306  -3.011 -33.017  1.00  0.00    -0.354 OA
HETATM   22  C   UNL     1      -3.038  -3.764 -31.838  1.00  0.00     0.210 C 
ENDBRANCH  16  21
ENDBRANCH  12  15
ENDBRANCH   8  11
ENDBRANCH   2   5
BRANCH   1  23
HETATM   23  C   UNL     1      -2.028   6.802 -31.030  1.00  0.00     0.240 C 
BRANCH  23  24
HETATM   24  N   UNL     1      -1.314   6.435 -29.825  1.00  0.00    -0.259 N 
HETATM   25  C   UNL     1      -0.393   5.439 -29.762  1.00  0.00     0.326 C 
HETATM   26  N   UNL     1       0.296   5.556 -28.576  1.00  0.00    -0.324 N 
HETATM   27  O   UNL     1      -0.176   4.582 -30.599  1.00  0.00    -0.247 OA
HETATM   28  C   UNL     1       0.067   6.845 -27.946  1.00  0.00     0.116 C 
HETATM   29  H   UNL     1       1.124   4.990 -28.435  1.00  0.00     0.165 HD
HETATM   30  C   UNL     1       1.196   7.819 -28.327  1.00  0.00     0.041 C 
HETATM   31  C   UNL     1      -1.209   7.245 -28.724  1.00  0.00     0.256 C 
HETATM   32  C   UNL     1      -0.114   6.712 -26.437  1.00  0.00     0.041 C 
HETATM   33  C   UNL     1       1.081   9.160 -27.602  1.00  0.00     0.007 C 
HETATM   34  C   UNL     1       0.997   9.010 -26.077  1.00  0.00    -0.015 C 
HETATM   35  C   UNL     1      -0.152   8.057 -25.704  1.00  0.00     0.007 C 
HETATM   36  O   UNL     1      -1.925   8.205 -28.479  1.00  0.00    -0.270 OA
BRANCH  34  37
HETATM   37  C   UNL     1       2.365   8.596 -25.496  1.00  0.00     0.000 C 
HETATM   38  C   UNL     1       2.919   9.594 -24.488  1.00  0.00     0.005 C 
ENDBRANCH  34  37
ENDBRANCH  23  24
ENDBRANCH   1  23
TORSDOF 7
ENDMDL
MODEL 2
REMARK VINA RESULT:     -10.0      1.678      2.193
REMARK  7 active torsions:
REMARK  status: ('A' for Active; 'I' for Inactive)
REMARK    1  A    between atoms: C_2  and  C_3 
REMARK    2  A    between atoms: N_10  and  C_11 
REMARK    3  A    between atoms: C_11  and  C_12 
REMARK       I    between atoms: C_12  and  N_13 
REMARK    4  A    between atoms: N_13  and  C_14 
REMARK    5  A    between atoms: C_17  and  C_18 
REMARK       I    between atoms: C_18  and  N_19 
REMARK    6  A    between atoms: N_19  and  C_20 
REMARK    7  A    between atoms: C_21  and  O_22 
ROOT
HETATM    1  C   UNL     1      -4.285   6.206 -31.761  1.00  0.00     0.240 C 
HETATM    2  N   UNL     1      -5.453   5.479 -31.644  1.00  0.00    -0.326 N 
HETATM    3  O   UNL     1      -3.263   5.828 -32.334  1.00  0.00    -0.271 OA
HETATM    4  H   UNL     1      -6.207   5.906 -31.121  1.00  0.00     0.169 HD
ENDROOT
BRANCH   2   5
HETATM    5  C   UNL     1      -5.713   4.203 -32.202  1.00  0.00     0.034 A 
HETATM    6  C   UNL     1      -5.590   3.001 -31.497  1.00  0.00     0.030 A 
HETATM    7  C   UNL     1      -5.820   1.766 -32.120  1.00  0.00     0.019 A 
HETATM    8  C   UNL     1      -6.186   1.716 -33.466  1.00  0.00     0.032 A 
HETATM    9  C   UNL     1      -6.320   2.915 -34.178  1.00  0.00     0.019 A 
HETATM   10  C   UNL     1      -6.093   4.148 -33.547  1.00  0.00     0.030 A 
BRANCH   8  11
HETATM   11  C   UNL     1      -6.349   0.421 -34.191  1.00  0.00     0.256 C 
HETATM   12  N   UNL     1      -6.033  -0.713 -33.467  1.00  0.00    -0.321 N 
HETATM   13  H   UNL     1      -5.905  -0.631 -32.465  1.00  0.00     0.169 HD
HETATM   14  O   UNL     1      -6.760   0.456 -35.346  1.00  0.00    -0.267 OA
BRANCH  12  15
HETATM   15  C   UNL     1      -5.931  -2.043 -33.942  1.00  0.00     0.068 A 
HETATM   16  C   UNL     1      -4.659  -2.656 -33.883  1.00  0.00     0.095 A 
HETATM   17  C   UNL     1      -4.492  -3.956 -34.372  1.00  0.00     0.039 A 
HETATM   18  C   UNL     1      -5.577  -4.647 -34.914  1.00  0.00     0.003 A 
HETATM   19  C   UNL     1      -6.830  -4.044 -34.971  1.00  0.00     0.002 A 
HETATM   20  C   UNL     1      -7.007  -2.747 -34.487  1.00  0.00     0.032 A 
BRANCH  16  21
HETATM   21  O   UNL     1      -3.652  -1.889 -33.339  1.00  0.00    -0.354 OA
HETATM   22  C   UNL     1      -3.205  -2.252 -32.037  1.00  0.00     0.210 C 
ENDBRANCH  16  21
ENDBRANCH  12  15
ENDBRANCH   8  11
ENDBRANCH   2   5
BRANCH   1  23
HETATM   23  C   UNL     1      -4.254   7.561 -31.057  1.00  0.00     0.240 C 
BRANCH  23  24
HETATM   24  N   UNL     1      -3.672   7.667 -29.736  1.00  0.00    -0.259 N 
HETATM   25  C   UNL     1      -3.995   6.855 -28.697  1.00  0.00     0.326 C 
HETATM   26  N   UNL     1      -3.059   7.026 -27.702  1.00  0.00    -0.324 N 
HETATM   27  O   UNL     1      -4.934   6.083 -28.628  1.00  0.00    -0.247 OA
HETATM   28  C   UNL     1      -1.886   7.735 -28.183  1.00  0.00     0.116 C 
HETATM   29  H   UNL     1      -3.057   6.384 -26.918  1.00  0.00     0.165 HD
HETATM   30  C   UNL     1      -0.797   6.726 -28.590  1.00  0.00     0.041 C 
HETATM   31  C   UNL     1      -2.505   8.335 -29.468  1.00  0.00     0.256 C 
HETATM   32  C   UNL     1      -1.389   8.762 -27.168  1.00  0.00     0.041 C 
HETATM   33  C   UNL     1       0.510   7.407 -28.995  1.00  0.00     0.007 C 
HETATM   34  C   UNL     1       1.044   8.363 -27.919  1.00  0.00    -0.015 C 
HETATM   35  C   UNL     1      -0.041   9.386 -27.539  1.00  0.00     0.007 C 
HETATM   36  O   UNL     1      -1.978   9.163 -30.197  1.00  0.00    -0.270 OA
BRANCH  34  37
HETATM   37  C   UNL     1       1.605   7.573 -26.719  1.00  0.00     0.000 C 
HETATM   38  C   UNL     1       2.181   8.462 -25.627  1.00  0.00     0.005 C 
ENDBRANCH  34  37
ENDBRANCH  23  24
ENDBRANCH   1  23
TORSDOF 7
ENDMDL
MODEL 3
REMARK VINA RESULT:      -9.6      1.608      2.568
REMARK  7 active torsions:
REMARK  status: ('A' for Active; 'I' for Inactive)
REMARK    1  A    between atoms: C_2  and  C_3 
REMARK    2  A    between atoms: N_10  and  C_11 
REMARK    3  A    between atoms: C_11  and  C_12 
REMARK       I    between atoms: C_12  and  N_13 
REMARK    4  A    between atoms: N_13  and  C_14 
REMARK    5  A    between atoms: C_17  and  C_18 
REMARK       I    between atoms: C_18  and  N_19 
REMARK    6  A    between atoms: N_19  and  C_20 
REMARK    7  A    between atoms: C_21  and  O_22 
ROOT
HETATM    1  C   UNL     1      -2.841   5.619 -33.690  1.00  0.00     0.240 C 
HETATM    2  N   UNL     1      -3.544   5.034 -32.656  1.00  0.00    -0.326 N 
HETATM    3  O   UNL     1      -2.444   5.039 -34.702  1.00  0.00    -0.271 OA
HETATM    4  H   UNL     1      -3.782   5.628 -31.872  1.00  0.00     0.169 HD
ENDROOT
BRANCH   2   5
HETATM    5  C   UNL     1      -3.989   3.691 -32.591  1.00  0.00     0.034 A 
HETATM    6  C   UNL     1      -3.247   2.647 -32.026  1.00  0.00     0.030 A 
HETATM    7  C   UNL     1      -3.725   1.330 -32.032  1.00  0.00     0.019 A 
HETATM    8  C   UNL     1      -4.965   1.035 -32.602  1.00  0.00     0.032 A 
HETATM    9  C   UNL     1      -5.719   2.074 -33.162  1.00  0.00     0.019 A 
HETATM   10  C   UNL     1      -5.237   3.392 -33.148  1.00  0.00     0.030 A 
BRANCH   8  11
HETATM   11  C   UNL     1      -5.469  -0.366 -32.712  1.00  0.00     0.256 C 
HETATM   12  N   UNL     1      -4.828  -1.161 -33.644  1.00  0.00    -0.321 N 
HETATM   13  H   UNL     1      -3.958  -0.833 -34.047  1.00  0.00     0.169 HD
HETATM   14  O   UNL     1      -6.385  -0.709 -31.970  1.00  0.00    -0.267 OA
BRANCH  12  15
HETATM   15  C   UNL     1      -5.199  -2.456 -34.078  1.00  0.00     0.068 A 
HETATM   16  C   UNL     1      -4.314  -3.517 -33.782  1.00  0.00     0.095 A 
HETATM   17  C   UNL     1      -4.613  -4.812 -34.219  1.00  0.00     0.039 A 
HETATM   18  C   UNL     1      -5.781  -5.057 -34.944  1.00  0.00     0.003 A 
HETATM   19  C   UNL     1      -6.653  -4.012 -35.235  1.00  0.00     0.002 A 
HETATM   20  C   UNL     1      -6.363  -2.716 -34.805  1.00  0.00     0.032 A 
BRANCH  16  21
HETATM   21  O   UNL     1      -3.187  -3.172 -33.070  1.00  0.00    -0.354 OA
HETATM   22  C   UNL     1      -3.040  -3.760 -31.781  1.00  0.00     0.210 C 
ENDBRANCH  16  21
ENDBRANCH  12  15
ENDBRANCH   8  11
ENDBRANCH   2   5
BRANCH   1  23
HETATM   23  C   UNL     1      -2.472   7.091 -33.515  1.00  0.00     0.240 C 
BRANCH  23  24
HETATM   24  N   UNL     1      -2.297   7.630 -32.183  1.00  0.00    -0.259 N 
HETATM   25  C   UNL     1      -3.323   7.949 -31.352  1.00  0.00     0.326 C 
HETATM   26  N   UNL     1      -2.817   8.140 -30.087  1.00  0.00    -0.324 N 
HETATM   27  O   UNL     1      -4.503   8.042 -31.639  1.00  0.00    -0.247 OA
HETATM   28  C   UNL     1      -1.459   7.636 -29.968  1.00  0.00     0.116 C 
HETATM   29  H   UNL     1      -3.462   8.231 -29.311  1.00  0.00     0.165 HD
HETATM   30  C   UNL     1      -1.482   6.208 -29.395  1.00  0.00     0.041 C 
HETATM   31  C   UNL     1      -1.125   7.554 -31.477  1.00  0.00     0.256 C 
HETATM   32  C   UNL     1      -0.573   8.582 -29.163  1.00  0.00     0.041 C 
HETATM   33  C   UNL     1      -0.079   5.660 -29.133  1.00  0.00     0.007 C 
HETATM   34  C   UNL     1       0.765   6.581 -28.240  1.00  0.00    -0.015 C 
HETATM   35  C   UNL     1       0.805   7.999 -28.836  1.00  0.00     0.007 C 
HETATM   36  O   UNL     1      -0.023   7.321 -31.953  1.00  0.00    -0.270 OA
BRANCH  34  37
HETATM   37  C   UNL     1       0.266   6.531 -26.782  1.00  0.00     0.000 C 
HETATM   38  C   UNL     1       0.927   7.564 -25.881  1.00  0.00     0.005 C 
ENDBRANCH  34  37
ENDBRANCH  23  24
ENDBRANCH   1  23
TORSDOF 7
ENDMDL
MODEL 4
REMARK VINA RESULT:      -9.4      2.164     11.751
REMARK  7 active torsions:
REMARK  status: ('A' for Active; 'I' for Inactive)
REMARK    1  A    between atoms: C_2  and  C_3 
REMARK    2  A    between atoms: N_10  and  C_11 
REMARK    3  A    between atoms: C_11  and  C_12 
REMARK       I    between atoms: C_12  and  N_13 
REMARK    4  A    between atoms: N_13  and  C_14 
REMARK    5  A    between atoms: C_17  and  C_18 
REMARK       I    between atoms: C_18  and  N_19 
REMARK    6  A    between atoms: N_19  and  C_20 
REMARK    7  A    between atoms: C_21  and  O_22 
ROOT
HETATM    1  C   UNL     1      -6.269   4.975 -32.291  1.00  0.00     0.240 C 
HETATM    2  N   UNL     1      -5.235   4.431 -31.556  1.00  0.00    -0.326 N 
HETATM    3  O   UNL     1      -6.364   6.158 -32.624  1.00  0.00    -0.271 OA
HETATM    4  H   UNL     1      -5.302   3.446 -31.333  1.00  0.00     0.169 HD
ENDROOT
BRANCH   2   5
HETATM    5  C   UNL     1      -4.076   5.106 -31.101  1.00  0.00     0.034 A 
HETATM    6  C   UNL     1      -2.781   4.831 -31.555  1.00  0.00     0.030 A 
HETATM    7  C   UNL     1      -1.669   5.505 -31.033  1.00  0.00     0.019 A 
HETATM    8  C   UNL     1      -1.837   6.478 -30.045  1.00  0.00     0.032 A 
HETATM    9  C   UNL     1      -3.131   6.767 -29.591  1.00  0.00     0.019 A 
HETATM   10  C   UNL     1      -4.240   6.092 -30.122  1.00  0.00     0.030 A 
BRANCH   8  11
HETATM   11  C   UNL     1      -0.674   7.153 -29.397  1.00  0.00     0.256 C 
HETATM   12  N   UNL     1      -0.762   7.310 -28.026  1.00  0.00    -0.321 N 
HETATM   13  H   UNL     1      -1.483   6.806 -27.523  1.00  0.00     0.169 HD
HETATM   14  O   UNL     1       0.263   7.496 -30.110  1.00  0.00    -0.267 OA
BRANCH  12  15
HETATM   15  C   UNL     1       0.098   8.054 -27.184  1.00  0.00     0.068 A 
HETATM   16  C   UNL     1      -0.332   9.341 -26.792  1.00  0.00     0.095 A 
HETATM   17  C   UNL     1       0.494  10.135 -25.989  1.00  0.00     0.039 A 
HETATM   18  C   UNL     1       1.739   9.657 -25.573  1.00  0.00     0.003 A 
HETATM   19  C   UNL     1       2.162   8.389 -25.958  1.00  0.00     0.002 A 
HETATM   20  C   UNL     1       1.346   7.590 -26.761  1.00  0.00     0.032 A 
BRANCH  16  21
HETATM   21  O   UNL     1      -1.570   9.724 -27.260  1.00  0.00    -0.354 OA
HETATM   22  C   UNL     1      -1.618  10.912 -28.042  1.00  0.00     0.210 C 
ENDBRANCH  16  21
ENDBRANCH  12  15
ENDBRANCH   8  11
ENDBRANCH   2   5
BRANCH   1  23
HETATM   23  C   UNL     1      -7.415   4.033 -32.656  1.00  0.00     0.240 C 
BRANCH  23  24
HETATM   24  N   UNL     1      -7.345   2.640 -32.268  1.00  0.00    -0.259 N 
HETATM   25  C   UNL     1      -8.275   2.019 -31.498  1.00  0.00     0.326 C 
HETATM   26  N   UNL     1      -8.069   0.660 -31.574  1.00  0.00    -0.324 N 
HETATM   27  O   UNL     1      -9.165   2.541 -30.851  1.00  0.00    -0.247 OA
HETATM   28  C   UNL     1      -7.178   0.312 -32.667  1.00  0.00     0.116 C 
HETATM   29  H   UNL     1      -8.768   0.038 -31.187  1.00  0.00     0.165 HD
HETATM   30  C   UNL     1      -8.001  -0.068 -33.911  1.00  0.00     0.041 C 
HETATM   31  C   UNL     1      -6.558   1.711 -32.897  1.00  0.00     0.256 C 
HETATM   32  C   UNL     1      -6.184  -0.774 -32.263  1.00  0.00     0.041 C 
HETATM   33  C   UNL     1      -7.126  -0.560 -35.063  1.00  0.00     0.007 C 
HETATM   34  C   UNL     1      -6.203  -1.718 -34.661  1.00  0.00    -0.015 C 
HETATM   35  C   UNL     1      -5.363  -1.320 -33.434  1.00  0.00     0.007 C 
HETATM   36  O   UNL     1      -5.611   1.962 -33.629  1.00  0.00    -0.270 OA
BRANCH  34  37
HETATM   37  C   UNL     1      -7.011  -3.017 -34.468  1.00  0.00     0.000 C 
HETATM   38  C   UNL     1      -6.410  -4.215 -35.189  1.00  0.00     0.005 C 
ENDBRANCH  34  37
ENDBRANCH  23  24
ENDBRANCH   1  23
TORSDOF 7
ENDMDL
MODEL 5
REMARK VINA RESULT:      -9.4      2.785      3.592
REMARK  7 active torsions:
REMARK  status: ('A' for Active; 'I' for Inactive)
REMARK    1  A    between atoms: C_2  and  C_3 
REMARK    2  A    between atoms: N_10  and  C_11 
REMARK    3  A    between atoms: C_11  and  C_12 
REMARK       I    between atoms: C_12  and  N_13 
REMARK    4  A    between atoms: N_13  and  C_14 
REMARK    5  A    between atoms: C_17  and  C_18 
REMARK       I    between atoms: C_18  and  N_19 
REMARK    6  A    between atoms: N_19  and  C_20 
REMARK    7  A    between atoms: C_21  and  O_22 
ROOT
HETATM    1  C   UNL     1      -5.639   6.432 -27.793  1.00  0.00     0.240 C 
HETATM    2  N   UNL     1      -5.892   6.107 -29.110  1.00  0.00    -0.326 N 
HETATM    3  O   UNL     1      -5.550   5.629 -26.864  1.00  0.00    -0.271 OA
HETATM    4  H   UNL     1      -5.965   6.876 -29.765  1.00  0.00     0.169 HD
ENDROOT
BRANCH   2   5
HETATM    5  C   UNL     1      -6.037   4.804 -29.646  1.00  0.00     0.034 A 
HETATM    6  C   UNL     1      -7.176   4.010 -29.475  1.00  0.00     0.030 A 
HETATM    7  C   UNL     1      -7.241   2.709 -29.994  1.00  0.00     0.019 A 
HETATM    8  C   UNL     1      -6.161   2.182 -30.704  1.00  0.00     0.032 A 
HETATM    9  C   UNL     1      -5.019   2.973 -30.888  1.00  0.00     0.019 A 
HETATM   10  C   UNL     1      -4.963   4.276 -30.371  1.00  0.00     0.030 A 
BRANCH   8  11
HETATM   11  C   UNL     1      -6.152   0.771 -31.193  1.00  0.00     0.256 C 
HETATM   12  N   UNL     1      -5.703   0.591 -32.487  1.00  0.00    -0.321 N 
HETATM   13  H   UNL     1      -5.235   1.360 -32.953  1.00  0.00     0.169 HD
HETATM   14  O   UNL     1      -6.519  -0.108 -30.420  1.00  0.00    -0.267 OA
BRANCH  12  15
HETATM   15  C   UNL     1      -5.746  -0.594 -33.261  1.00  0.00     0.068 A 
HETATM   16  C   UNL     1      -4.524  -1.266 -33.486  1.00  0.00     0.095 A 
HETATM   17  C   UNL     1      -4.502  -2.422 -34.273  1.00  0.00     0.039 A 
HETATM   18  C   UNL     1      -5.683  -2.913 -34.834  1.00  0.00     0.003 A 
HETATM   19  C   UNL     1      -6.887  -2.252 -34.612  1.00  0.00     0.002 A 
HETATM   20  C   UNL     1      -6.919  -1.096 -33.829  1.00  0.00     0.032 A 
BRANCH  16  21
HETATM   21  O   UNL     1      -3.415  -0.699 -32.897  1.00  0.00    -0.354 OA
HETATM   22  C   UNL     1      -2.791  -1.447 -31.858  1.00  0.00     0.210 C 
ENDBRANCH  16  21
ENDBRANCH  12  15
ENDBRANCH   8  11
ENDBRANCH   2   5
BRANCH   1  23
HETATM   23  C   UNL     1      -5.531   7.921 -27.468  1.00  0.00     0.240 C 
BRANCH  23  24
HETATM   24  N   UNL     1      -4.349   8.422 -26.800  1.00  0.00    -0.259 N 
HETATM   25  C   UNL     1      -4.214   8.499 -25.450  1.00  0.00     0.326 C 
HETATM   26  N   UNL     1      -2.890   8.726 -25.156  1.00  0.00    -0.324 N 
HETATM   27  O   UNL     1      -5.091   8.375 -24.614  1.00  0.00    -0.247 OA
HETATM   28  C   UNL     1      -2.034   8.489 -26.305  1.00  0.00     0.116 C 
HETATM   29  H   UNL     1      -2.585   8.654 -24.192  1.00  0.00     0.165 HD
HETATM   30  C   UNL     1      -1.468   7.058 -26.248  1.00  0.00     0.041 C 
HETATM   31  C   UNL     1      -3.124   8.542 -27.403  1.00  0.00     0.256 C 
HETATM   32  C   UNL     1      -0.944   9.550 -26.429  1.00  0.00     0.041 C 
HETATM   33  C   UNL     1      -0.465   6.781 -27.367  1.00  0.00     0.007 C 
HETATM   34  C   UNL     1       0.678   7.805 -27.413  1.00  0.00    -0.015 C 
HETATM   35  C   UNL     1       0.104   9.230 -27.499  1.00  0.00     0.007 C 
HETATM   36  O   UNL     1      -2.924   8.548 -28.609  1.00  0.00    -0.270 OA
BRANCH  34  37
HETATM   37  C   UNL     1       1.646   7.593 -26.231  1.00  0.00     0.000 C 
HETATM   38  C   UNL     1       2.434   8.843 -25.864  1.00  0.00     0.005 C 
ENDBRANCH  34  37
ENDBRANCH  23  24
ENDBRANCH   1  23
TORSDOF 7
ENDMDL
MODEL 6
REMARK VINA RESULT:      -9.3      1.740      2.802
REMARK  7 active torsions:
REMARK  status: ('A' for Active; 'I' for Inactive)
REMARK    1  A    between atoms: C_2  and  C_3 
REMARK    2  A    between atoms: N_10  and  C_11 
REMARK    3  A    between atoms: C_11  and  C_12 
REMARK       I    between atoms: C_12  and  N_13 
REMARK    4  A    between atoms: N_13  and  C_14 
REMARK    5  A    between atoms: C_17  and  C_18 
REMARK       I    between atoms: C_18  and  N_19 
REMARK    6  A    between atoms: N_19  and  C_20 
REMARK    7  A    between atoms: C_21  and  O_22 
ROOT
HETATM    1  C   UNL     1      -4.155   6.126 -31.012  1.00  0.00     0.240 C 
HETATM    2  N   UNL     1      -4.065   5.408 -32.187  1.00  0.00    -0.326 N 
HETATM    3  O   UNL     1      -4.500   5.669 -29.921  1.00  0.00    -0.271 OA
HETATM    4  H   UNL     1      -3.792   5.922 -33.016  1.00  0.00     0.169 HD
ENDROOT
BRANCH   2   5
HETATM    5  C   UNL     1      -4.291   4.019 -32.348  1.00  0.00     0.034 A 
HETATM    6  C   UNL     1      -5.525   3.464 -32.704  1.00  0.00     0.030 A 
HETATM    7  C   UNL     1      -5.696   2.076 -32.805  1.00  0.00     0.019 A 
HETATM    8  C   UNL     1      -4.624   1.217 -32.557  1.00  0.00     0.032 A 
HETATM    9  C   UNL     1      -3.382   1.764 -32.209  1.00  0.00     0.019 A 
HETATM   10  C   UNL     1      -3.217   3.154 -32.114  1.00  0.00     0.030 A 
BRANCH   8  11
HETATM   11  C   UNL     1      -4.785  -0.267 -32.563  1.00  0.00     0.256 C 
HETATM   12  N   UNL     1      -4.722  -0.870 -33.805  1.00  0.00    -0.321 N 
HETATM   13  H   UNL     1      -4.384  -0.329 -34.592  1.00  0.00     0.169 HD
HETATM   14  O   UNL     1      -4.942  -0.834 -31.486  1.00  0.00    -0.267 OA
BRANCH  12  15
HETATM   15  C   UNL     1      -5.007  -2.219 -34.128  1.00  0.00     0.068 A 
HETATM   16  C   UNL     1      -6.271  -2.496 -34.695  1.00  0.00     0.095 A 
HETATM   17  C   UNL     1      -6.620  -3.815 -35.001  1.00  0.00     0.039 A 
HETATM   18  C   UNL     1      -5.724  -4.856 -34.749  1.00  0.00     0.003 A 
HETATM   19  C   UNL     1      -4.479  -4.583 -34.191  1.00  0.00     0.002 A 
HETATM   20  C   UNL     1      -4.121  -3.270 -33.881  1.00  0.00     0.032 A 
BRANCH  16  21
HETATM   21  O   UNL     1      -7.086  -1.403 -34.897  1.00  0.00    -0.354 OA
HETATM   22  C   UNL     1      -7.983  -1.072 -33.843  1.00  0.00     0.210 C 
ENDBRANCH  16  21
ENDBRANCH  12  15
ENDBRANCH   8  11
ENDBRANCH   2   5
BRANCH   1  23
HETATM   23  C   UNL     1      -3.866   7.623 -31.104  1.00  0.00     0.240 C 
BRANCH  23  24
HETATM   24  N   UNL     1      -3.140   8.277 -30.036  1.00  0.00    -0.259 N 
HETATM   25  C   UNL     1      -3.730   8.828 -28.944  1.00  0.00     0.326 C 
HETATM   26  N   UNL     1      -2.756   9.087 -28.006  1.00  0.00    -0.324 N 
HETATM   27  O   UNL     1      -4.915   9.053 -28.780  1.00  0.00    -0.247 OA
HETATM   28  C   UNL     1      -1.509   8.413 -28.324  1.00  0.00     0.116 C 
HETATM   29  H   UNL     1      -3.039   9.353 -27.070  1.00  0.00     0.165 HD
HETATM   30  C   UNL     1      -1.431   7.075 -27.567  1.00  0.00     0.041 C 
HETATM   31  C   UNL     1      -1.797   8.116 -29.816  1.00  0.00     0.256 C 
HETATM   32  C   UNL     1      -0.300   9.308 -28.067  1.00  0.00     0.041 C 
HETATM   33  C   UNL     1      -0.090   6.368 -27.765  1.00  0.00     0.007 C 
HETATM   34  C   UNL     1       1.111   7.255 -27.408  1.00  0.00    -0.015 C 
HETATM   35  C   UNL     1       1.040   8.578 -28.191  1.00  0.00     0.007 C 
HETATM   36  O   UNL     1      -0.992   7.679 -30.626  1.00  0.00    -0.270 OA
BRANCH  34  37
HETATM   37  C   UNL     1       1.216   7.438 -25.881  1.00  0.00     0.000 C 
HETATM   38  C   UNL     1       2.219   8.507 -25.469  1.00  0.00     0.005 C 
ENDBRANCH  34  37
ENDBRANCH  23  24
ENDBRANCH   1  23
TORSDOF 7
ENDMDL
MODEL 7
REMARK VINA RESULT:      -9.1      2.983     11.329
REMARK  7 active torsions:
REMARK  status: ('A' for Active; 'I' for Inactive)
REMARK    1  A    between atoms: C_2  and  C_3 
REMARK    2  A    between atoms: N_10  and  C_11 
REMARK    3  A    between atoms: C_11  and  C_12 
REMARK       I    between atoms: C_12  and  N_13 
REMARK    4  A    between atoms: N_13  and  C_14 
REMARK    5  A    between atoms: C_17  and  C_18 
REMARK       I    between atoms: C_18  and  N_19 
REMARK    6  A    between atoms: N_19  and  C_20 
REMARK    7  A    between atoms: C_21  and  O_22 
ROOT
HETATM    1  C   UNL     1      -4.553   0.968 -32.634  1.00  0.00     0.240 C 
HETATM    2  N   UNL     1      -4.800   2.313 -32.818  1.00  0.00    -0.326 N 
HETATM    3  O   UNL     1      -3.548   0.492 -32.105  1.00  0.00    -0.271 OA
HETATM    4  H   UNL     1      -5.659   2.560 -33.294  1.00  0.00     0.169 HD
ENDROOT
BRANCH   2   5
HETATM    5  C   UNL     1      -3.984   3.388 -32.387  1.00  0.00     0.034 A 
HETATM    6  C   UNL     1      -2.754   3.719 -32.966  1.00  0.00     0.030 A 
HETATM    7  C   UNL     1      -1.973   4.769 -32.464  1.00  0.00     0.019 A 
HETATM    8  C   UNL     1      -2.418   5.515 -31.371  1.00  0.00     0.032 A 
HETATM    9  C   UNL     1      -3.652   5.197 -30.789  1.00  0.00     0.019 A 
HETATM   10  C   UNL     1      -4.432   4.148 -31.300  1.00  0.00     0.030 A 
BRANCH   8  11
HETATM   11  C   UNL     1      -1.577   6.579 -30.748  1.00  0.00     0.256 C 
HETATM   12  N   UNL     1      -1.118   6.309 -29.472  1.00  0.00    -0.321 N 
HETATM   13  H   UNL     1      -1.202   5.364 -29.114  1.00  0.00     0.169 HD
HETATM   14  O   UNL     1      -1.343   7.587 -31.407  1.00  0.00    -0.267 OA
BRANCH  12  15
HETATM   15  C   UNL     1      -0.455   7.191 -28.586  1.00  0.00     0.068 A 
HETATM   16  C   UNL     1      -1.189   7.670 -27.478  1.00  0.00     0.095 A 
HETATM   17  C   UNL     1      -0.595   8.572 -26.589  1.00  0.00     0.039 A 
HETATM   18  C   UNL     1       0.720   8.997 -26.794  1.00  0.00     0.003 A 
HETATM   19  C   UNL     1       1.443   8.525 -27.885  1.00  0.00     0.002 A 
HETATM   20  C   UNL     1       0.859   7.625 -28.778  1.00  0.00     0.032 A 
BRANCH  16  21
HETATM   21  O   UNL     1      -2.479   7.198 -27.368  1.00  0.00    -0.354 OA
HETATM   22  C   UNL     1      -3.042   7.178 -26.061  1.00  0.00     0.210 C 
ENDBRANCH  16  21
ENDBRANCH  12  15
ENDBRANCH   8  11
ENDBRANCH   2   5
BRANCH   1  23
HETATM   23  C   UNL     1      -5.591   0.001 -33.202  1.00  0.00     0.240 C 
BRANCH  23  24
HETATM   24  N   UNL     1      -6.976   0.123 -32.799  1.00  0.00    -0.259 N 
HETATM   25  C   UNL     1      -7.391   0.151 -31.506  1.00  0.00     0.326 C 
HETATM   26  N   UNL     1      -8.700   0.572 -31.477  1.00  0.00    -0.324 N 
HETATM   27  O   UNL     1      -6.738  -0.126 -30.516  1.00  0.00    -0.247 OA
HETATM   28  C   UNL     1      -9.108   1.152 -32.745  1.00  0.00     0.116 C 
HETATM   29  H   UNL     1      -9.120   0.801 -30.583  1.00  0.00     0.165 HD
HETATM   30  C   UNL     1      -8.951   2.682 -32.694  1.00  0.00     0.041 C 
HETATM   31  C   UNL     1      -7.974   0.572 -33.624  1.00  0.00     0.256 C 
HETATM   32  C   UNL     1     -10.516   0.716 -33.140  1.00  0.00     0.041 C 
HETATM   33  C   UNL     1      -9.474   3.367 -33.956  1.00  0.00     0.007 C 
HETATM   34  C   UNL     1     -10.926   2.990 -34.283  1.00  0.00    -0.015 C 
HETATM   35  C   UNL     1     -11.068   1.459 -34.360  1.00  0.00     0.007 C 
HETATM   36  O   UNL     1      -7.914   0.629 -34.844  1.00  0.00    -0.270 OA
BRANCH  34  37
HETATM   37  C   UNL     1     -11.898   3.656 -33.288  1.00  0.00     0.000 C 
HETATM   38  C   UNL     1     -13.332   3.166 -33.424  1.00  0.00     0.005 C 
ENDBRANCH  34  37
ENDBRANCH  23  24
ENDBRANCH   1  23
TORSDOF 7
ENDMDL
MODEL 8
REMARK VINA RESULT:      -9.0      3.082      4.508
REMARK  7 active torsions:
REMARK  status: ('A' for Active; 'I' for Inactive)
REMARK    1  A    between atoms: C_2  and  C_3 
REMARK    2  A    between atoms: N_10  and  C_11 
REMARK    3  A    between atoms: C_11  and  C_12 
REMARK       I    between atoms: C_12  and  N_13 
REMARK    4  A    between atoms: N_13  and  C_14 
REMARK    5  A    between atoms: C_17  and  C_18 
REMARK       I    between atoms: C_18  and  N_19 
REMARK    6  A    between atoms: N_19  and  C_20 
REMARK    7  A    between atoms: C_21  and  O_22 
ROOT
HETATM    1  C   UNL     1      -1.798   5.426 -32.491  1.00  0.00     0.240 C 
HETATM    2  N   UNL     1      -2.662   4.681 -31.714  1.00  0.00    -0.326 N 
HETATM    3  O   UNL     1      -1.857   5.542 -33.716  1.00  0.00    -0.271 OA
HETATM    4  H   UNL     1      -2.476   4.655 -30.720  1.00  0.00     0.169 HD
ENDROOT
BRANCH   2   5
HETATM    5  C   UNL     1      -3.799   3.967 -32.165  1.00  0.00     0.034 A 
HETATM    6  C   UNL     1      -3.867   2.571 -32.242  1.00  0.00     0.030 A 
HETATM    7  C   UNL     1      -5.008   1.925 -32.738  1.00  0.00     0.019 A 
HETATM    8  C   UNL     1      -6.109   2.671 -33.162  1.00  0.00     0.032 A 
HETATM    9  C   UNL     1      -6.054   4.069 -33.080  1.00  0.00     0.019 A 
HETATM   10  C   UNL     1      -4.912   4.709 -32.578  1.00  0.00     0.030 A 
BRANCH   8  11
HETATM   11  C   UNL     1      -7.305   2.028 -33.782  1.00  0.00     0.256 C 
HETATM   12  N   UNL     1      -8.524   2.592 -33.455  1.00  0.00    -0.321 N 
HETATM   13  H   UNL     1      -8.535   3.494 -32.993  1.00  0.00     0.169 HD
HETATM   14  O   UNL     1      -7.122   1.077 -34.535  1.00  0.00    -0.267 OA
BRANCH  12  15
HETATM   15  C   UNL     1      -9.816   2.095 -33.752  1.00  0.00     0.068 A 
HETATM   16  C   UNL     1     -10.635   2.880 -34.594  1.00  0.00     0.095 A 
HETATM   17  C   UNL     1     -11.934   2.455 -34.892  1.00  0.00     0.039 A 
HETATM   18  C   UNL     1     -12.420   1.257 -34.362  1.00  0.00     0.003 A 
HETATM   19  C   UNL     1     -11.613   0.483 -33.533  1.00  0.00     0.002 A 
HETATM   20  C   UNL     1     -10.316   0.900 -33.229  1.00  0.00     0.032 A 
BRANCH  16  21
HETATM   21  O   UNL     1     -10.067   4.046 -35.059  1.00  0.00    -0.354 OA
HETATM   22  C   UNL     1     -10.882   5.213 -35.018  1.00  0.00     0.210 C 
ENDBRANCH  16  21
ENDBRANCH  12  15
ENDBRANCH   8  11
ENDBRANCH   2   5
BRANCH   1  23
HETATM   23  C   UNL     1      -0.637   6.100 -31.762  1.00  0.00     0.240 C 
BRANCH  23  24
HETATM   24  N   UNL     1      -0.505   5.942 -30.329  1.00  0.00    -0.259 N 
HETATM   25  C   UNL     1       0.341   5.059 -29.737  1.00  0.00     0.326 C 
HETATM   26  N   UNL     1       0.437   5.375 -28.401  1.00  0.00    -0.324 N 
HETATM   27  O   UNL     1       0.942   4.144 -30.270  1.00  0.00    -0.247 OA
HETATM   28  C   UNL     1      -0.104   6.694 -28.119  1.00  0.00     0.116 C 
HETATM   29  H   UNL     1       1.146   4.917 -27.841  1.00  0.00     0.165 HD
HETATM   30  C   UNL     1       1.031   7.733 -28.117  1.00  0.00     0.041 C 
HETATM   31  C   UNL     1      -0.929   6.872 -29.416  1.00  0.00     0.256 C 
HETATM   32  C   UNL     1      -0.920   6.707 -26.830  1.00  0.00     0.041 C 
HETATM   33  C   UNL     1       0.549   9.125 -27.710  1.00  0.00     0.007 C 
HETATM   34  C   UNL     1      -0.185   9.133 -26.362  1.00  0.00    -0.015 C 
HETATM   35  C   UNL     1      -1.336   8.112 -26.383  1.00  0.00     0.007 C 
HETATM   36  O   UNL     1      -1.724   7.774 -29.639  1.00  0.00    -0.270 OA
BRANCH  34  37
HETATM   37  C   UNL     1       0.809   8.929 -25.200  1.00  0.00     0.000 C 
HETATM   38  C   UNL     1       1.810  10.066 -25.056  1.00  0.00     0.005 C 
ENDBRANCH  34  37
ENDBRANCH  23  24
ENDBRANCH   1  23
TORSDOF 7
ENDMDL
MODEL 9
REMARK VINA RESULT:      -9.0      3.971      5.757
REMARK  7 active torsions:
REMARK  status: ('A' for Active; 'I' for Inactive)
REMARK    1  A    between atoms: C_2  and  C_3 
REMARK    2  A    between atoms: N_10  and  C_11 
REMARK    3  A    between atoms: C_11  and  C_12 
REMARK       I    between atoms: C_12  and  N_13 
REMARK    4  A    between atoms: N_13  and  C_14 
REMARK    5  A    between atoms: C_17  and  C_18 
REMARK       I    between atoms: C_18  and  N_19 
REMARK    6  A    between atoms: N_19  and  C_20 
REMARK    7  A    between atoms: C_21  and  O_22 
ROOT
HETATM    1  C   UNL     1      -3.628   4.514 -33.147  1.00  0.00     0.240 C 
HETATM    2  N   UNL     1      -4.126   3.233 -33.262  1.00  0.00    -0.326 N 
HETATM    3  O   UNL     1      -4.289   5.516 -32.868  1.00  0.00    -0.271 OA
HETATM    4  H   UNL     1      -3.470   2.508 -33.525  1.00  0.00     0.169 HD
ENDROOT
BRANCH   2   5
HETATM    5  C   UNL     1      -5.462   2.822 -33.027  1.00  0.00     0.034 A 
HETATM    6  C   UNL     1      -6.021   2.670 -31.754  1.00  0.00     0.030 A 
HETATM    7  C   UNL     1      -7.337   2.217 -31.587  1.00  0.00     0.019 A 
HETATM    8  C   UNL     1      -8.122   1.914 -32.701  1.00  0.00     0.032 A 
HETATM    9  C   UNL     1      -7.574   2.072 -33.981  1.00  0.00     0.019 A 
HETATM   10  C   UNL     1      -6.257   2.530 -34.141  1.00  0.00     0.030 A 
BRANCH   8  11
HETATM   11  C   UNL     1      -9.494   1.342 -32.566  1.00  0.00     0.256 C 
HETATM   12  N   UNL     1     -10.442   1.852 -33.434  1.00  0.00    -0.321 N 
HETATM   13  H   UNL     1     -10.132   2.416 -34.217  1.00  0.00     0.169 HD
HETATM   14  O   UNL     1      -9.674   0.468 -31.725  1.00  0.00    -0.267 OA
BRANCH  12  15
HETATM   15  C   UNL     1     -11.839   1.625 -33.420  1.00  0.00     0.068 A 
HETATM   16  C   UNL     1     -12.667   2.705 -33.041  1.00  0.00     0.095 A 
HETATM   17  C   UNL     1     -14.053   2.527 -32.975  1.00  0.00     0.039 A 
HETATM   18  C   UNL     1     -14.618   1.288 -33.284  1.00  0.00     0.003 A 
HETATM   19  C   UNL     1     -13.803   0.224 -33.658  1.00  0.00     0.002 A 
HETATM   20  C   UNL     1     -12.419   0.391 -33.725  1.00  0.00     0.032 A 
BRANCH  16  21
HETATM   21  O   UNL     1     -12.015   3.883 -32.749  1.00  0.00    -0.354 OA
HETATM   22  C   UNL     1     -12.217   4.966 -33.650  1.00  0.00     0.210 C 
ENDBRANCH  16  21
ENDBRANCH  12  15
ENDBRANCH   8  11
ENDBRANCH   2   5
BRANCH   1  23
HETATM   23  C   UNL     1      -2.145   4.698 -33.463  1.00  0.00     0.240 C 
BRANCH  23  24
HETATM   24  N   UNL     1      -1.395   5.740 -32.793  1.00  0.00    -0.259 N 
HETATM   25  C   UNL     1      -1.343   7.030 -33.216  1.00  0.00     0.326 C 
HETATM   26  N   UNL     1      -0.809   7.799 -32.208  1.00  0.00    -0.324 N 
HETATM   27  O   UNL     1      -1.712   7.469 -34.291  1.00  0.00    -0.247 OA
HETATM   28  C   UNL     1      -0.782   7.085 -30.943  1.00  0.00     0.116 C 
HETATM   29  H   UNL     1      -0.842   8.808 -32.294  1.00  0.00     0.165 HD
HETATM   30  C   UNL     1      -2.031   7.442 -30.116  1.00  0.00     0.041 C 
HETATM   31  C   UNL     1      -0.954   5.651 -31.498  1.00  0.00     0.256 C 
HETATM   32  C   UNL     1       0.519   7.329 -30.183  1.00  0.00     0.041 C 
HETATM   33  C   UNL     1      -2.007   6.816 -28.722  1.00  0.00     0.007 C 
HETATM   34  C   UNL     1      -0.733   7.153 -27.936  1.00  0.00    -0.015 C 
HETATM   35  C   UNL     1       0.510   6.768 -28.758  1.00  0.00     0.007 C 
HETATM   36  O   UNL     1      -0.850   4.617 -30.854  1.00  0.00    -0.270 OA
BRANCH  34  37
HETATM   37  C   UNL     1      -0.748   8.627 -27.483  1.00  0.00     0.000 C 
HETATM   38  C   UNL     1       0.626   9.152 -27.090  1.00  0.00     0.005 C 
ENDBRANCH  34  37
ENDBRANCH  23  24
ENDBRANCH   1  23
TORSDOF 7
ENDMDL
MODEL 10
REMARK VINA RESULT:      -8.7     18.195     21.066
REMARK  7 active torsions:
REMARK  status: ('A' for Active; 'I' for Inactive)
REMARK    1  A    between atoms: C_2  and  C_3 
REMARK    2  A    between atoms: N_10  and  C_11 
REMARK    3  A    between atoms: C_11  and  C_12 
REMARK       I    between atoms: C_12  and  N_13 
REMARK    4  A    between atoms: N_13  and  C_14 
REMARK    5  A    between atoms: C_17  and  C_18 
REMARK       I    between atoms: C_18  and  N_19 
REMARK    6  A    between atoms: N_19  and  C_20 
REMARK    7  A    between atoms: C_21  and  O_22 
ROOT
HETATM    1  C   UNL     1      -4.295 -13.293 -36.526  1.00  0.00     0.240 C 
HETATM    2  N   UNL     1      -5.528 -13.410 -35.919  1.00  0.00    -0.326 N 
HETATM    3  O   UNL     1      -3.244 -13.782 -36.110  1.00  0.00    -0.271 OA
HETATM    4  H   UNL     1      -6.303 -12.931 -36.361  1.00  0.00     0.169 HD
ENDROOT
BRANCH   2   5
HETATM    5  C   UNL     1      -5.827 -14.154 -34.750  1.00  0.00     0.034 A 
HETATM    6  C   UNL     1      -5.726 -13.644 -33.451  1.00  0.00     0.030 A 
HETATM    7  C   UNL     1      -5.994 -14.446 -32.333  1.00  0.00     0.019 A 
HETATM    8  C   UNL     1      -6.378 -15.778 -32.500  1.00  0.00     0.032 A 
HETATM    9  C   UNL     1      -6.491 -16.295 -33.797  1.00  0.00     0.019 A 
HETATM   10  C   UNL     1      -6.226 -15.485 -34.912  1.00  0.00     0.030 A 
BRANCH   8  11
HETATM   11  C   UNL     1      -6.583 -16.691 -31.336  1.00  0.00     0.256 C 
HETATM   12  N   UNL     1      -6.064 -16.251 -30.133  1.00  0.00    -0.321 N 
HETATM   13  H   UNL     1      -5.761 -15.287 -30.056  1.00  0.00     0.169 HD
HETATM   14  O   UNL     1      -7.199 -17.735 -31.525  1.00  0.00    -0.267 OA
BRANCH  12  15
HETATM   15  C   UNL     1      -5.960 -16.972 -28.919  1.00  0.00     0.068 A 
HETATM   16  C   UNL     1      -4.705 -16.972 -28.270  1.00  0.00     0.095 A 
HETATM   17  C   UNL     1      -4.535 -17.699 -27.087  1.00  0.00     0.039 A 
HETATM   18  C   UNL     1      -5.602 -18.420 -26.546  1.00  0.00     0.003 A 
HETATM   19  C   UNL     1      -6.838 -18.420 -27.185  1.00  0.00     0.002 A 
HETATM   20  C   UNL     1      -7.018 -17.699 -28.367  1.00  0.00     0.032 A 
BRANCH  16  21
HETATM   21  O   UNL     1      -3.716 -16.237 -28.887  1.00  0.00    -0.354 OA
HETATM   22  C   UNL     1      -2.374 -16.539 -28.519  1.00  0.00     0.210 C 
ENDBRANCH  16  21
ENDBRANCH  12  15
ENDBRANCH   8  11
ENDBRANCH   2   5
BRANCH   1  23
HETATM   23  C   UNL     1      -4.234 -12.423 -37.780  1.00  0.00     0.240 C 
BRANCH  23  24
HETATM   24  N   UNL     1      -5.079 -12.741 -38.912  1.00  0.00    -0.259 N 
HETATM   25  C   UNL     1      -4.668 -13.464 -39.986  1.00  0.00     0.326 C 
HETATM   26  N   UNL     1      -5.776 -13.832 -40.714  1.00  0.00    -0.324 N 
HETATM   27  O   UNL     1      -3.525 -13.769 -40.277  1.00  0.00    -0.247 OA
HETATM   28  C   UNL     1      -7.004 -13.632 -39.964  1.00  0.00     0.116 C 
HETATM   29  H   UNL     1      -5.667 -14.508 -41.461  1.00  0.00     0.165 HD
HETATM   30  C   UNL     1      -7.416 -14.947 -39.277  1.00  0.00     0.041 C 
HETATM   31  C   UNL     1      -6.447 -12.670 -38.887  1.00  0.00     0.256 C 
HETATM   32  C   UNL     1      -8.112 -13.049 -40.836  1.00  0.00     0.041 C 
HETATM   33  C   UNL     1      -8.765 -14.837 -38.566  1.00  0.00     0.007 C 
HETATM   34  C   UNL     1      -9.888 -14.341 -39.487  1.00  0.00    -0.015 C 
HETATM   35  C   UNL     1      -9.479 -13.012 -40.147  1.00  0.00     0.007 C 
HETATM   36  O   UNL     1      -7.110 -12.058 -38.063  1.00  0.00    -0.270 OA
BRANCH  34  37
HETATM   37  C   UNL     1     -10.291 -15.439 -40.493  1.00  0.00     0.000 C 
HETATM   38  C   UNL     1     -11.367 -14.994 -41.473  1.00  0.00     0.005 C 
ENDBRANCH  34  37
ENDBRANCH  23  24
ENDBRANCH   1  23
TORSDOF 7
ENDMDL
