MODEL 1
REMARK VINA RESULT:      -8.7      0.000      0.000
REMARK  7 active torsions:
REMARK  status: ('A' for Active; 'I' for Inactive)
REMARK       I    between atoms: N_2  and  C_3 
REMARK    1  A    between atoms: N_2  and  C_24 
REMARK    2  A    between atoms: C_3  and  C_4 
REMARK    3  A    between atoms: C_7  and  N_8 
REMARK    4  A    between atoms: C_11  and  N_12 
REMARK       I    between atoms: N_12  and  C_13 
REMARK    5  A    between atoms: C_13  and  C_14 
REMARK    6  A    between atoms: C_24  and  C_25 
REMARK    7  A    between atoms: C_27  and  O_28 
ROOT
HETATM    1  C   UNL     1      -5.864   1.756 -32.484  1.00  0.00     0.032 A 
HETATM    2  C   UNL     1      -5.791   2.988 -33.134  1.00  0.00     0.019 A 
HETATM    3  C   UNL     1      -4.617   3.744 -33.087  1.00  0.00     0.032 A 
HETATM    4  C   UNL     1      -3.514   3.300 -32.340  1.00  0.00     0.058 A 
HETATM    5  C   UNL     1      -3.587   2.068 -31.678  1.00  0.00     0.032 A 
HETATM    6  C   UNL     1      -4.759   1.303 -31.751  1.00  0.00     0.019 A 
ENDROOT
BRANCH   4   7
HETATM    7  N   UNL     1      -2.375   4.145 -32.224  1.00  0.00    -0.243 N 
HETATM    8  N   UNL     1      -1.858   4.761 -33.319  1.00  0.00    -0.178 NA
HETATM    9  C   UNL     1      -0.906   5.561 -32.838  1.00  0.00     0.170 A 
HETATM   10  C   UNL     1      -0.779   5.466 -31.442  1.00  0.00     0.071 A 
HETATM   11  C   UNL     1      -1.698   4.511 -31.078  1.00  0.00     0.149 A 
BRANCH  10  12
HETATM   12  N   UNL     1       0.021   6.147 -30.547  1.00  0.00    -0.324 N 
HETATM   13  C   UNL     1      -0.362   7.299 -29.887  1.00  0.00     0.228 C 
HETATM   14  O   UNL     1      -1.417   7.904 -30.074  1.00  0.00    -0.273 OA
HETATM   15  H   UNL     1       0.938   5.753 -30.352  1.00  0.00     0.169 HD
BRANCH  13  16
HETATM   16  C   UNL     1       0.601   7.762 -28.798  1.00  0.00     0.104 C 
HETATM   17  C   UNL     1       0.940   6.655 -27.828  1.00  0.00     0.181 C 
HETATM   18  O   UNL     1      -0.121   6.684 -26.858  1.00  0.00    -0.390 OA
HETATM   19  C   UNL     1      -0.516   8.055 -26.692  1.00  0.00     0.168 C 
HETATM   20  C   UNL     1      -0.023   8.819 -27.909  1.00  0.00     0.042 C 
ENDBRANCH  13  16
ENDBRANCH  10  12
ENDBRANCH   4   7
BRANCH   1  21
HETATM   21  C   UNL     1      -7.126   0.969 -32.425  1.00  0.00     0.253 C 
HETATM   22  N   UNL     1      -7.618   0.317 -33.560  1.00  0.00    -0.348 N 
HETATM   23  C   UNL     1      -8.902  -0.359 -33.430  1.00  0.00     0.153 C 
HETATM   24  O   UNL     1      -7.709   0.939 -31.341  1.00  0.00    -0.267 OA
BRANCH  22  25
HETATM   25  C   UNL     1      -6.795  -0.079 -34.704  1.00  0.00     0.164 C 
BRANCH  25  26
HETATM   26  C   UNL     1      -6.148  -1.445 -34.591  1.00  0.00    -0.038 A 
HETATM   27  C   UNL     1      -4.981  -1.682 -33.841  1.00  0.00     0.045 A 
HETATM   28  C   UNL     1      -4.469  -2.974 -33.693  1.00  0.00     0.068 A 
HETATM   29  C   UNL     1      -5.102  -4.037 -34.336  1.00  0.00     0.037 A 
HETATM   30  C   UNL     1      -6.251  -3.822 -35.095  1.00  0.00     0.003 A 
HETATM   31  C   UNL     1      -6.775  -2.535 -35.215  1.00  0.00     0.009 A 
BRANCH  28  32
HETATM   32  O   UNL     1      -3.369  -3.316 -32.957  1.00  0.00    -0.356 OA
HETATM   33  C   UNL     1      -3.034  -2.450 -31.877  1.00  0.00     0.210 C 
ENDBRANCH  28  32
ENDBRANCH  25  26
ENDBRANCH  22  25
ENDBRANCH   1  21
TORSDOF 7
ENDMDL
MODEL 2
REMARK VINA RESULT:      -8.6      1.922      2.806
REMARK  7 active torsions:
REMARK  status: ('A' for Active; 'I' for Inactive)
REMARK       I    between atoms: N_2  and  C_3 
REMARK    1  A    between atoms: N_2  and  C_24 
REMARK    2  A    between atoms: C_3  and  C_4 
REMARK    3  A    between atoms: C_7  and  N_8 
REMARK    4  A    between atoms: C_11  and  N_12 
REMARK       I    between atoms: N_12  and  C_13 
REMARK    5  A    between atoms: C_13  and  C_14 
REMARK    6  A    between atoms: C_24  and  C_25 
REMARK    7  A    between atoms: C_27  and  O_28 
ROOT
HETATM    1  C   UNL     1      -7.902   3.165 -33.275  1.00  0.00     0.032 A 
HETATM    2  C   UNL     1      -7.635   3.892 -32.114  1.00  0.00     0.019 A 
HETATM    3  C   UNL     1      -6.333   4.311 -31.825  1.00  0.00     0.032 A 
HETATM    4  C   UNL     1      -5.270   3.960 -32.671  1.00  0.00     0.058 A 
HETATM    5  C   UNL     1      -5.532   3.221 -33.832  1.00  0.00     0.032 A 
HETATM    6  C   UNL     1      -6.843   2.827 -34.128  1.00  0.00     0.019 A 
ENDROOT
BRANCH   4   7
HETATM    7  N   UNL     1      -3.943   4.309 -32.290  1.00  0.00    -0.243 N 
HETATM    8  N   UNL     1      -2.951   4.367 -33.215  1.00  0.00    -0.178 NA
HETATM    9  C   UNL     1      -1.897   4.844 -32.552  1.00  0.00     0.170 A 
HETATM   10  C   UNL     1      -2.180   5.083 -31.196  1.00  0.00     0.071 A 
HETATM   11  C   UNL     1      -3.485   4.681 -31.041  1.00  0.00     0.149 A 
BRANCH  10  12
HETATM   12  N   UNL     1      -1.413   5.622 -30.183  1.00  0.00    -0.324 N 
HETATM   13  C   UNL     1      -0.095   5.283 -29.945  1.00  0.00     0.228 C 
HETATM   14  O   UNL     1       0.529   4.408 -30.543  1.00  0.00    -0.273 OA
HETATM   15  H   UNL     1      -1.850   6.329 -29.597  1.00  0.00     0.169 HD
BRANCH  13  16
HETATM   16  C   UNL     1       0.610   6.150 -28.907  1.00  0.00     0.104 C 
HETATM   17  C   UNL     1      -0.133   6.186 -27.592  1.00  0.00     0.181 C 
HETATM   18  O   UNL     1      -1.109   7.229 -27.754  1.00  0.00    -0.390 OA
HETATM   19  C   UNL     1      -0.521   8.244 -28.583  1.00  0.00     0.168 C 
HETATM   20  C   UNL     1       0.643   7.608 -29.322  1.00  0.00     0.042 C 
ENDBRANCH  13  16
ENDBRANCH  10  12
ENDBRANCH   4   7
BRANCH   1  21
HETATM   21  C   UNL     1      -9.253   2.615 -33.567  1.00  0.00     0.253 C 
HETATM   22  N   UNL     1      -9.619   1.339 -33.126  1.00  0.00    -0.348 N 
HETATM   23  C   UNL     1     -10.931   0.851 -33.530  1.00  0.00     0.153 C 
HETATM   24  O   UNL     1     -10.012   3.331 -34.221  1.00  0.00    -0.267 OA
BRANCH  22  25
HETATM   25  C   UNL     1      -8.994   0.647 -31.999  1.00  0.00     0.164 C 
BRANCH  25  26
HETATM   26  C   UNL     1      -7.688  -0.054 -32.317  1.00  0.00    -0.038 A 
HETATM   27  C   UNL     1      -7.506  -0.857 -33.458  1.00  0.00     0.045 A 
HETATM   28  C   UNL     1      -6.259  -1.412 -33.757  1.00  0.00     0.068 A 
HETATM   29  C   UNL     1      -5.191  -1.203 -32.886  1.00  0.00     0.037 A 
HETATM   30  C   UNL     1      -5.354  -0.422 -31.743  1.00  0.00     0.003 A 
HETATM   31  C   UNL     1      -6.592   0.155 -31.465  1.00  0.00     0.009 A 
BRANCH  28  32
HETATM   32  O   UNL     1      -5.967  -2.171 -34.857  1.00  0.00    -0.356 OA
HETATM   33  C   UNL     1      -6.461  -3.506 -34.855  1.00  0.00     0.210 C 
ENDBRANCH  28  32
ENDBRANCH  25  26
ENDBRANCH  22  25
ENDBRANCH   1  21
TORSDOF 7
ENDMDL
MODEL 3
REMARK VINA RESULT:      -8.6      1.553      1.991
REMARK  7 active torsions:
REMARK  status: ('A' for Active; 'I' for Inactive)
REMARK       I    between atoms: N_2  and  C_3 
REMARK    1  A    between atoms: N_2  and  C_24 
REMARK    2  A    between atoms: C_3  and  C_4 
REMARK    3  A    between atoms: C_7  and  N_8 
REMARK    4  A    between atoms: C_11  and  N_12 
REMARK       I    between atoms: N_12  and  C_13 
REMARK    5  A    between atoms: C_13  and  C_14 
REMARK    6  A    between atoms: C_24  and  C_25 
REMARK    7  A    between atoms: C_27  and  O_28 
ROOT
HETATM    1  C   UNL     1      -7.463   3.084 -32.941  1.00  0.00     0.032 A 
HETATM    2  C   UNL     1      -6.971   3.500 -31.703  1.00  0.00     0.019 A 
HETATM    3  C   UNL     1      -5.654   3.951 -31.580  1.00  0.00     0.032 A 
HETATM    4  C   UNL     1      -4.793   3.941 -32.688  1.00  0.00     0.058 A 
HETATM    5  C   UNL     1      -5.280   3.516 -33.931  1.00  0.00     0.032 A 
HETATM    6  C   UNL     1      -6.609   3.089 -34.052  1.00  0.00     0.019 A 
ENDROOT
BRANCH   4   7
HETATM    7  N   UNL     1      -3.429   4.304 -32.503  1.00  0.00    -0.243 N 
HETATM    8  N   UNL     1      -2.595   4.421 -33.568  1.00  0.00    -0.178 NA
HETATM    9  C   UNL     1      -1.458   4.893 -33.057  1.00  0.00     0.170 A 
HETATM   10  C   UNL     1      -1.528   5.071 -31.665  1.00  0.00     0.071 A 
HETATM   11  C   UNL     1      -2.787   4.634 -31.326  1.00  0.00     0.149 A 
BRANCH  10  12
HETATM   12  N   UNL     1      -0.621   5.585 -30.760  1.00  0.00    -0.324 N 
HETATM   13  C   UNL     1      -0.478   6.931 -30.487  1.00  0.00     0.228 C 
HETATM   14  O   UNL     1      -1.073   7.838 -31.067  1.00  0.00    -0.273 OA
HETATM   15  H   UNL     1      -0.044   4.918 -30.253  1.00  0.00     0.169 HD
BRANCH  13  16
HETATM   16  C   UNL     1       0.439   7.250 -29.311  1.00  0.00     0.104 C 
HETATM   17  C   UNL     1       0.614   6.069 -28.386  1.00  0.00     0.181 C 
HETATM   18  O   UNL     1      -0.507   6.138 -27.490  1.00  0.00    -0.390 OA
HETATM   19  C   UNL     1      -0.798   7.528 -27.270  1.00  0.00     0.168 C 
HETATM   20  C   UNL     1      -0.157   8.309 -28.404  1.00  0.00     0.042 C 
ENDBRANCH  13  16
ENDBRANCH  10  12
ENDBRANCH   4   7
BRANCH   1  21
HETATM   21  C   UNL     1      -8.824   2.504 -33.094  1.00  0.00     0.253 C 
HETATM   22  N   UNL     1      -9.062   1.152 -32.826  1.00  0.00    -0.348 N 
HETATM   23  C   UNL     1     -10.406   0.653 -33.084  1.00  0.00     0.153 C 
HETATM   24  O   UNL     1      -9.711   3.267 -33.478  1.00  0.00    -0.267 OA
BRANCH  22  25
HETATM   25  C   UNL     1      -8.223   0.326 -31.956  1.00  0.00     0.164 C 
BRANCH  25  26
HETATM   26  C   UNL     1      -7.017  -0.299 -32.627  1.00  0.00    -0.038 A 
HETATM   27  C   UNL     1      -5.736  -0.313 -32.045  1.00  0.00     0.045 A 
HETATM   28  C   UNL     1      -4.672  -0.978 -32.660  1.00  0.00     0.068 A 
HETATM   29  C   UNL     1      -4.874  -1.599 -33.892  1.00  0.00     0.037 A 
HETATM   30  C   UNL     1      -6.132  -1.586 -34.492  1.00  0.00     0.003 A 
HETATM   31  C   UNL     1      -7.198  -0.947 -33.860  1.00  0.00     0.009 A 
BRANCH  28  32
HETATM   32  O   UNL     1      -3.403  -1.084 -32.161  1.00  0.00    -0.356 OA
HETATM   33  C   UNL     1      -3.003  -0.085 -31.229  1.00  0.00     0.210 C 
ENDBRANCH  28  32
ENDBRANCH  25  26
ENDBRANCH  22  25
ENDBRANCH   1  21
TORSDOF 7
ENDMDL
MODEL 4
REMARK VINA RESULT:      -8.0      2.464      3.138
REMARK  7 active torsions:
REMARK  status: ('A' for Active; 'I' for Inactive)
REMARK       I    between atoms: N_2  and  C_3 
REMARK    1  A    between atoms: N_2  and  C_24 
REMARK    2  A    between atoms: C_3  and  C_4 
REMARK    3  A    between atoms: C_7  and  N_8 
REMARK    4  A    between atoms: C_11  and  N_12 
REMARK       I    between atoms: N_12  and  C_13 
REMARK    5  A    between atoms: C_13  and  C_14 
REMARK    6  A    between atoms: C_24  and  C_25 
REMARK    7  A    between atoms: C_27  and  O_28 
ROOT
HETATM    1  C   UNL     1      -8.816   3.363 -32.356  1.00  0.00     0.032 A 
HETATM    2  C   UNL     1      -7.677   3.586 -33.132  1.00  0.00     0.019 A 
HETATM    3  C   UNL     1      -6.553   4.204 -32.578  1.00  0.00     0.032 A 
HETATM    4  C   UNL     1      -6.573   4.657 -31.250  1.00  0.00     0.058 A 
HETATM    5  C   UNL     1      -7.717   4.445 -30.470  1.00  0.00     0.032 A 
HETATM    6  C   UNL     1      -8.832   3.801 -31.025  1.00  0.00     0.019 A 
ENDROOT
BRANCH   4   7
HETATM    7  N   UNL     1      -5.452   5.379 -30.752  1.00  0.00    -0.243 N 
HETATM    8  N   UNL     1      -5.619   6.370 -29.840  1.00  0.00    -0.178 NA
HETATM    9  C   UNL     1      -4.380   6.731 -29.501  1.00  0.00     0.170 A 
HETATM   10  C   UNL     1      -3.401   6.000 -30.195  1.00  0.00     0.071 A 
HETATM   11  C   UNL     1      -4.115   5.175 -31.031  1.00  0.00     0.149 A 
BRANCH  10  12
HETATM   12  N   UNL     1      -2.023   6.005 -30.109  1.00  0.00    -0.324 N 
HETATM   13  C   UNL     1      -1.230   7.081 -30.456  1.00  0.00     0.228 C 
HETATM   14  O   UNL     1      -1.637   8.127 -30.958  1.00  0.00    -0.273 OA
HETATM   15  H   UNL     1      -1.578   5.167 -29.744  1.00  0.00     0.169 HD
BRANCH  13  16
HETATM   16  C   UNL     1       0.243   6.934 -30.087  1.00  0.00     0.104 C 
HETATM   17  C   UNL     1       0.560   5.564 -29.537  1.00  0.00     0.181 C 
HETATM   18  O   UNL     1       0.252   5.654 -28.136  1.00  0.00    -0.390 OA
HETATM   19  C   UNL     1       0.573   6.987 -27.708  1.00  0.00     0.168 C 
HETATM   20  C   UNL     1       0.633   7.859 -28.950  1.00  0.00     0.042 C 
ENDBRANCH  13  16
ENDBRANCH  10  12
ENDBRANCH   4   7
BRANCH   1  21
HETATM   21  C   UNL     1     -10.067   2.802 -32.933  1.00  0.00     0.253 C 
HETATM   22  N   UNL     1     -10.223   1.423 -33.105  1.00  0.00    -0.348 N 
HETATM   23  C   UNL     1     -11.445   0.971 -33.755  1.00  0.00     0.153 C 
HETATM   24  O   UNL     1     -10.937   3.610 -33.260  1.00  0.00    -0.267 OA
BRANCH  22  25
HETATM   25  C   UNL     1      -9.482   0.411 -32.349  1.00  0.00     0.164 C 
BRANCH  25  26
HETATM   26  C   UNL     1      -8.124   0.048 -32.916  1.00  0.00    -0.038 A 
HETATM   27  C   UNL     1      -6.985  -0.146 -32.114  1.00  0.00     0.045 A 
HETATM   28  C   UNL     1      -5.774  -0.567 -32.672  1.00  0.00     0.068 A 
HETATM   29  C   UNL     1      -5.685  -0.753 -34.051  1.00  0.00     0.037 A 
HETATM   30  C   UNL     1      -6.799  -0.552 -34.865  1.00  0.00     0.003 A 
HETATM   31  C   UNL     1      -8.013  -0.163 -34.300  1.00  0.00     0.009 A 
BRANCH  28  32
HETATM   32  O   UNL     1      -4.623  -0.821 -31.979  1.00  0.00    -0.356 OA
HETATM   33  C   UNL     1      -3.415  -0.815 -32.732  1.00  0.00     0.210 C 
ENDBRANCH  28  32
ENDBRANCH  25  26
ENDBRANCH  22  25
ENDBRANCH   1  21
TORSDOF 7
ENDMDL
MODEL 5
REMARK VINA RESULT:      -8.0      6.978     11.012
REMARK  7 active torsions:
REMARK  status: ('A' for Active; 'I' for Inactive)
REMARK       I    between atoms: N_2  and  C_3 
REMARK    1  A    between atoms: N_2  and  C_24 
REMARK    2  A    between atoms: C_3  and  C_4 
REMARK    3  A    between atoms: C_7  and  N_8 
REMARK    4  A    between atoms: C_11  and  N_12 
REMARK       I    between atoms: N_12  and  C_13 
REMARK    5  A    between atoms: C_13  and  C_14 
REMARK    6  A    between atoms: C_24  and  C_25 
REMARK    7  A    between atoms: C_27  and  O_28 
ROOT
HETATM    1  C   UNL     1      -0.692   8.145 -25.999  1.00  0.00     0.032 A 
HETATM    2  C   UNL     1      -0.794   9.197 -25.088  1.00  0.00     0.019 A 
HETATM    3  C   UNL     1       0.350   9.717 -24.478  1.00  0.00     0.032 A 
HETATM    4  C   UNL     1       1.610   9.155 -24.732  1.00  0.00     0.058 A 
HETATM    5  C   UNL     1       1.716   8.092 -25.639  1.00  0.00     0.032 A 
HETATM    6  C   UNL     1       0.567   7.592 -26.267  1.00  0.00     0.019 A 
ENDROOT
BRANCH   4   7
HETATM    7  N   UNL     1       2.738   9.638 -24.011  1.00  0.00    -0.243 N 
HETATM    8  N   UNL     1       2.874  10.964 -23.750  1.00  0.00    -0.178 NA
HETATM    9  C   UNL     1       3.946  11.045 -22.960  1.00  0.00     0.170 A 
HETATM   10  C   UNL     1       4.526   9.789 -22.714  1.00  0.00     0.071 A 
HETATM   11  C   UNL     1       3.763   8.908 -23.443  1.00  0.00     0.149 A 
BRANCH  10  12
HETATM   12  N   UNL     1       5.590   9.413 -21.919  1.00  0.00    -0.324 N 
HETATM   13  C   UNL     1       5.474   8.612 -20.799  1.00  0.00     0.228 C 
HETATM   14  O   UNL     1       4.414   8.208 -20.325  1.00  0.00    -0.273 OA
HETATM   15  H   UNL     1       6.514   9.732 -22.199  1.00  0.00     0.169 HD
BRANCH  13  16
HETATM   16  C   UNL     1       6.801   8.161 -20.196  1.00  0.00     0.104 C 
HETATM   17  C   UNL     1       7.952   8.326 -21.161  1.00  0.00     0.181 C 
HETATM   18  O   UNL     1       7.939   7.125 -21.951  1.00  0.00    -0.390 OA
HETATM   19  C   UNL     1       7.513   6.051 -21.098  1.00  0.00     0.168 C 
HETATM   20  C   UNL     1       6.808   6.673 -19.905  1.00  0.00     0.042 C 
ENDBRANCH  13  16
ENDBRANCH  10  12
ENDBRANCH   4   7
BRANCH   1  21
HETATM   21  C   UNL     1      -1.893   7.497 -26.592  1.00  0.00     0.253 C 
HETATM   22  N   UNL     1      -2.497   8.018 -27.740  1.00  0.00    -0.348 N 
HETATM   23  C   UNL     1      -3.716   7.367 -28.201  1.00  0.00     0.153 C 
HETATM   24  O   UNL     1      -2.324   6.498 -26.015  1.00  0.00    -0.267 OA
BRANCH  22  25
HETATM   25  C   UNL     1      -1.815   8.870 -28.715  1.00  0.00     0.164 C 
BRANCH  25  26
HETATM   26  C   UNL     1      -1.269   8.149 -29.932  1.00  0.00    -0.038 A 
HETATM   27  C   UNL     1      -1.810   8.302 -31.222  1.00  0.00     0.045 A 
HETATM   28  C   UNL     1      -1.219   7.687 -32.328  1.00  0.00     0.068 A 
HETATM   29  C   UNL     1      -0.103   6.873 -32.143  1.00  0.00     0.037 A 
HETATM   30  C   UNL     1       0.441   6.697 -30.871  1.00  0.00     0.003 A 
HETATM   31  C   UNL     1      -0.134   7.338 -29.774  1.00  0.00     0.009 A 
BRANCH  28  32
HETATM   32  O   UNL     1      -1.641   7.802 -33.624  1.00  0.00    -0.356 OA
HETATM   33  C   UNL     1      -2.299   6.668 -34.180  1.00  0.00     0.210 C 
ENDBRANCH  28  32
ENDBRANCH  25  26
ENDBRANCH  22  25
ENDBRANCH   1  21
TORSDOF 7
ENDMDL
MODEL 6
REMARK VINA RESULT:      -7.9      3.486      7.201
REMARK  7 active torsions:
REMARK  status: ('A' for Active; 'I' for Inactive)
REMARK       I    between atoms: N_2  and  C_3 
REMARK    1  A    between atoms: N_2  and  C_24 
REMARK    2  A    between atoms: C_3  and  C_4 
REMARK    3  A    between atoms: C_7  and  N_8 
REMARK    4  A    between atoms: C_11  and  N_12 
REMARK       I    between atoms: N_12  and  C_13 
REMARK    5  A    between atoms: C_13  and  C_14 
REMARK    6  A    between atoms: C_24  and  C_25 
REMARK    7  A    between atoms: C_27  and  O_28 
ROOT
HETATM    1  C   UNL     1      -0.948   7.105 -31.611  1.00  0.00     0.032 A 
HETATM    2  C   UNL     1       0.317   6.787 -31.114  1.00  0.00     0.019 A 
HETATM    3  C   UNL     1       0.678   7.149 -29.814  1.00  0.00     0.032 A 
HETATM    4  C   UNL     1      -0.207   7.884 -29.009  1.00  0.00     0.058 A 
HETATM    5  C   UNL     1      -1.473   8.214 -29.508  1.00  0.00     0.032 A 
HETATM    6  C   UNL     1      -1.838   7.825 -30.803  1.00  0.00     0.019 A 
ENDROOT
BRANCH   4   7
HETATM    7  N   UNL     1       0.234   8.330 -27.731  1.00  0.00    -0.243 N 
HETATM    8  N   UNL     1      -0.595   8.279 -26.658  1.00  0.00    -0.178 NA
HETATM    9  C   UNL     1       0.166   8.638 -25.624  1.00  0.00     0.170 A 
HETATM   10  C   UNL     1       1.483   8.942 -26.008  1.00  0.00     0.071 A 
HETATM   11  C   UNL     1       1.487   8.788 -27.374  1.00  0.00     0.149 A 
BRANCH  10  12
HETATM   12  N   UNL     1       2.595   9.290 -25.268  1.00  0.00    -0.324 N 
HETATM   13  C   UNL     1       2.685  10.432 -24.496  1.00  0.00     0.228 C 
HETATM   14  O   UNL     1       1.830  11.315 -24.437  1.00  0.00    -0.273 OA
HETATM   15  H   UNL     1       3.382   8.646 -25.282  1.00  0.00     0.169 HD
BRANCH  13  16
HETATM   16  C   UNL     1       3.924  10.508 -23.609  1.00  0.00     0.104 C 
HETATM   17  C   UNL     1       4.923   9.421 -23.929  1.00  0.00     0.181 C 
HETATM   18  O   UNL     1       4.483   8.286 -23.164  1.00  0.00    -0.390 OA
HETATM   19  C   UNL     1       3.925   8.782 -21.938  1.00  0.00     0.168 C 
HETATM   20  C   UNL     1       3.589  10.247 -22.153  1.00  0.00     0.042 C 
ENDBRANCH  13  16
ENDBRANCH  10  12
ENDBRANCH   4   7
BRANCH   1  21
HETATM   21  C   UNL     1      -1.334   6.827 -33.021  1.00  0.00     0.253 C 
HETATM   22  N   UNL     1      -1.557   5.519 -33.460  1.00  0.00    -0.348 N 
HETATM   23  C   UNL     1      -1.849   5.336 -34.875  1.00  0.00     0.153 C 
HETATM   24  O   UNL     1      -1.430   7.800 -33.770  1.00  0.00    -0.267 OA
BRANCH  22  25
HETATM   25  C   UNL     1      -1.914   4.405 -32.580  1.00  0.00     0.164 C 
BRANCH  25  26
HETATM   26  C   UNL     1      -3.400   4.130 -32.457  1.00  0.00    -0.038 A 
HETATM   27  C   UNL     1      -3.961   2.851 -32.632  1.00  0.00     0.045 A 
HETATM   28  C   UNL     1      -5.325   2.628 -32.422  1.00  0.00     0.068 A 
HETATM   29  C   UNL     1      -6.148   3.700 -32.079  1.00  0.00     0.037 A 
HETATM   30  C   UNL     1      -5.614   4.977 -31.915  1.00  0.00     0.003 A 
HETATM   31  C   UNL     1      -4.248   5.189 -32.095  1.00  0.00     0.009 A 
BRANCH  28  32
HETATM   32  O   UNL     1      -5.960   1.422 -32.526  1.00  0.00    -0.356 OA
HETATM   33  C   UNL     1      -6.443   1.069 -33.818  1.00  0.00     0.210 C 
ENDBRANCH  28  32
ENDBRANCH  25  26
ENDBRANCH  22  25
ENDBRANCH   1  21
TORSDOF 7
ENDMDL
MODEL 7
REMARK VINA RESULT:      -7.7      4.816      9.938
REMARK  7 active torsions:
REMARK  status: ('A' for Active; 'I' for Inactive)
REMARK       I    between atoms: N_2  and  C_3 
REMARK    1  A    between atoms: N_2  and  C_24 
REMARK    2  A    between atoms: C_3  and  C_4 
REMARK    3  A    between atoms: C_7  and  N_8 
REMARK    4  A    between atoms: C_11  and  N_12 
REMARK       I    between atoms: N_12  and  C_13 
REMARK    5  A    between atoms: C_13  and  C_14 
REMARK    6  A    between atoms: C_24  and  C_25 
REMARK    7  A    between atoms: C_27  and  O_28 
ROOT
HETATM    1  C   UNL     1      -7.488  -0.155 -33.568  1.00  0.00     0.032 A 
HETATM    2  C   UNL     1      -7.844   0.400 -34.798  1.00  0.00     0.019 A 
HETATM    3  C   UNL     1      -9.050   1.091 -34.940  1.00  0.00     0.032 A 
HETATM    4  C   UNL     1      -9.943   1.191 -33.862  1.00  0.00     0.058 A 
HETATM    5  C   UNL     1      -9.595   0.626 -32.629  1.00  0.00     0.032 A 
HETATM    6  C   UNL     1      -8.372  -0.044 -32.487  1.00  0.00     0.019 A 
ENDROOT
BRANCH   4   7
HETATM    7  N   UNL     1     -11.209   1.807 -34.073  1.00  0.00    -0.243 N 
HETATM    8  N   UNL     1     -12.098   1.275 -34.950  1.00  0.00    -0.178 NA
HETATM    9  C   UNL     1     -13.202   2.009 -34.801  1.00  0.00     0.170 A 
HETATM   10  C   UNL     1     -13.042   3.029 -33.848  1.00  0.00     0.071 A 
HETATM   11  C   UNL     1     -11.736   2.911 -33.433  1.00  0.00     0.149 A 
BRANCH  10  12
HETATM   12  N   UNL     1     -13.929   3.962 -33.348  1.00  0.00    -0.324 N 
HETATM   13  C   UNL     1     -14.644   3.800 -32.177  1.00  0.00     0.228 C 
HETATM   14  O   UNL     1     -14.646   2.783 -31.484  1.00  0.00    -0.273 OA
HETATM   15  H   UNL     1     -14.035   4.827 -33.871  1.00  0.00     0.169 HD
BRANCH  13  16
HETATM   16  C   UNL     1     -15.404   5.039 -31.716  1.00  0.00     0.104 C 
HETATM   17  C   UNL     1     -15.314   6.169 -32.716  1.00  0.00     0.181 C 
HETATM   18  O   UNL     1     -14.085   6.842 -32.395  1.00  0.00    -0.390 OA
HETATM   19  C   UNL     1     -13.913   6.769 -30.971  1.00  0.00     0.168 C 
HETATM   20  C   UNL     1     -14.794   5.640 -30.465  1.00  0.00     0.042 C 
ENDBRANCH  13  16
ENDBRANCH  10  12
ENDBRANCH   4   7
BRANCH   1  21
HETATM   21  C   UNL     1      -6.264  -0.984 -33.401  1.00  0.00     0.253 C 
HETATM   22  N   UNL     1      -5.122  -0.462 -32.787  1.00  0.00    -0.348 N 
HETATM   23  C   UNL     1      -3.944  -1.318 -32.743  1.00  0.00     0.153 C 
HETATM   24  O   UNL     1      -6.310  -2.134 -33.841  1.00  0.00    -0.267 OA
BRANCH  22  25
HETATM   25  C   UNL     1      -5.131   0.669 -31.858  1.00  0.00     0.164 C 
BRANCH  25  26
HETATM   26  C   UNL     1      -4.704   1.996 -32.453  1.00  0.00    -0.038 A 
HETATM   27  C   UNL     1      -5.588   2.850 -33.140  1.00  0.00     0.045 A 
HETATM   28  C   UNL     1      -5.171   4.104 -33.594  1.00  0.00     0.068 A 
HETATM   29  C   UNL     1      -3.847   4.495 -33.403  1.00  0.00     0.037 A 
HETATM   30  C   UNL     1      -2.952   3.658 -32.739  1.00  0.00     0.003 A 
HETATM   31  C   UNL     1      -3.380   2.421 -32.259  1.00  0.00     0.009 A 
BRANCH  28  32
HETATM   32  O   UNL     1      -5.958   5.021 -34.234  1.00  0.00    -0.356 OA
HETATM   33  C   UNL     1      -7.223   5.296 -33.640  1.00  0.00     0.210 C 
ENDBRANCH  28  32
ENDBRANCH  25  26
ENDBRANCH  22  25
ENDBRANCH   1  21
TORSDOF 7
ENDMDL
MODEL 8
REMARK VINA RESULT:      -7.7      6.230     10.272
REMARK  7 active torsions:
REMARK  status: ('A' for Active; 'I' for Inactive)
REMARK       I    between atoms: N_2  and  C_3 
REMARK    1  A    between atoms: N_2  and  C_24 
REMARK    2  A    between atoms: C_3  and  C_4 
REMARK    3  A    between atoms: C_7  and  N_8 
REMARK    4  A    between atoms: C_11  and  N_12 
REMARK       I    between atoms: N_12  and  C_13 
REMARK    5  A    between atoms: C_13  and  C_14 
REMARK    6  A    between atoms: C_24  and  C_25 
REMARK    7  A    between atoms: C_27  and  O_28 
ROOT
HETATM    1  C   UNL     1       0.230   6.612 -28.774  1.00  0.00     0.032 A 
HETATM    2  C   UNL     1       1.037   7.745 -28.897  1.00  0.00     0.019 A 
HETATM    3  C   UNL     1       1.503   8.408 -27.759  1.00  0.00     0.032 A 
HETATM    4  C   UNL     1       1.123   7.977 -26.479  1.00  0.00     0.058 A 
HETATM    5  C   UNL     1       0.305   6.847 -26.351  1.00  0.00     0.032 A 
HETATM    6  C   UNL     1      -0.137   6.171 -27.496  1.00  0.00     0.019 A 
ENDROOT
BRANCH   4   7
HETATM    7  N   UNL     1       1.527   8.740 -25.348  1.00  0.00    -0.243 N 
HETATM    8  N   UNL     1       0.624   9.486 -24.660  1.00  0.00    -0.178 NA
HETATM    9  C   UNL     1       1.299   9.950 -23.608  1.00  0.00     0.170 A 
HETATM   10  C   UNL     1       2.641   9.533 -23.606  1.00  0.00     0.071 A 
HETATM   11  C   UNL     1       2.775   8.801 -24.762  1.00  0.00     0.149 A 
BRANCH  10  12
HETATM   12  N   UNL     1       3.658   9.727 -22.693  1.00  0.00    -0.324 N 
HETATM   13  C   UNL     1       3.961   8.847 -21.673  1.00  0.00     0.228 C 
HETATM   14  O   UNL     1       3.319   7.834 -21.398  1.00  0.00    -0.273 OA
HETATM   15  H   UNL     1       4.228  10.562 -22.804  1.00  0.00     0.169 HD
BRANCH  13  16
HETATM   16  C   UNL     1       5.247   9.164 -20.916  1.00  0.00     0.104 C 
HETATM   17  C   UNL     1       5.785  10.535 -21.253  1.00  0.00     0.181 C 
HETATM   18  O   UNL     1       6.570  10.337 -22.441  1.00  0.00    -0.390 OA
HETATM   19  C   UNL     1       7.173   9.036 -22.348  1.00  0.00     0.168 C 
HETATM   20  C   UNL     1       6.380   8.242 -21.324  1.00  0.00     0.042 C 
ENDBRANCH  13  16
ENDBRANCH  10  12
ENDBRANCH   4   7
BRANCH   1  21
HETATM   21  C   UNL     1      -0.369   5.939 -29.958  1.00  0.00     0.253 C 
HETATM   22  N   UNL     1      -1.513   6.454 -30.574  1.00  0.00    -0.348 N 
HETATM   23  C   UNL     1      -2.077   5.682 -31.674  1.00  0.00     0.153 C 
HETATM   24  O   UNL     1       0.185   4.910 -30.348  1.00  0.00    -0.267 OA
BRANCH  22  25
HETATM   25  C   UNL     1      -1.938   7.852 -30.485  1.00  0.00     0.164 C 
BRANCH  25  26
HETATM   26  C   UNL     1      -2.635   8.232 -29.194  1.00  0.00    -0.038 A 
HETATM   27  C   UNL     1      -3.665   7.463 -28.622  1.00  0.00     0.045 A 
HETATM   28  C   UNL     1      -4.218   7.805 -27.385  1.00  0.00     0.068 A 
HETATM   29  C   UNL     1      -3.771   8.951 -26.730  1.00  0.00     0.037 A 
HETATM   30  C   UNL     1      -2.761   9.735 -27.285  1.00  0.00     0.003 A 
HETATM   31  C   UNL     1      -2.191   9.373 -28.505  1.00  0.00     0.009 A 
BRANCH  28  32
HETATM   32  O   UNL     1      -5.192   7.105 -26.726  1.00  0.00    -0.356 OA
HETATM   33  C   UNL     1      -5.334   5.733 -27.078  1.00  0.00     0.210 C 
ENDBRANCH  28  32
ENDBRANCH  25  26
ENDBRANCH  22  25
ENDBRANCH   1  21
TORSDOF 7
ENDMDL
MODEL 9
REMARK VINA RESULT:      -7.7      4.460      9.044
REMARK  7 active torsions:
REMARK  status: ('A' for Active; 'I' for Inactive)
REMARK       I    between atoms: N_2  and  C_3 
REMARK    1  A    between atoms: N_2  and  C_24 
REMARK    2  A    between atoms: C_3  and  C_4 
REMARK    3  A    between atoms: C_7  and  N_8 
REMARK    4  A    between atoms: C_11  and  N_12 
REMARK       I    between atoms: N_12  and  C_13 
REMARK    5  A    between atoms: C_13  and  C_14 
REMARK    6  A    between atoms: C_24  and  C_25 
REMARK    7  A    between atoms: C_27  and  O_28 
ROOT
HETATM    1  C   UNL     1      -6.470  -0.665 -33.672  1.00  0.00     0.032 A 
HETATM    2  C   UNL     1      -7.696  -0.862 -33.036  1.00  0.00     0.019 A 
HETATM    3  C   UNL     1      -8.779  -0.023 -33.313  1.00  0.00     0.032 A 
HETATM    4  C   UNL     1      -8.633   1.060 -34.194  1.00  0.00     0.058 A 
HETATM    5  C   UNL     1      -7.401   1.267 -34.827  1.00  0.00     0.032 A 
HETATM    6  C   UNL     1      -6.326   0.407 -34.564  1.00  0.00     0.019 A 
ENDROOT
BRANCH   4   7
HETATM    7  N   UNL     1      -9.724   1.957 -34.369  1.00  0.00    -0.243 N 
HETATM    8  N   UNL     1     -10.993   1.487 -34.477  1.00  0.00    -0.178 NA
HETATM    9  C   UNL     1     -11.758   2.579 -34.493  1.00  0.00     0.170 A 
HETATM   10  C   UNL     1     -11.004   3.763 -34.415  1.00  0.00     0.071 A 
HETATM   11  C   UNL     1      -9.698   3.337 -34.390  1.00  0.00     0.149 A 
BRANCH  10  12
HETATM   12  N   UNL     1     -11.386   5.088 -34.341  1.00  0.00    -0.324 N 
HETATM   13  C   UNL     1     -10.800   6.104 -35.071  1.00  0.00     0.228 C 
HETATM   14  O   UNL     1      -9.823   5.974 -35.807  1.00  0.00    -0.273 OA
HETATM   15  H   UNL     1     -12.162   5.313 -33.725  1.00  0.00     0.169 HD
BRANCH  13  16
HETATM   16  C   UNL     1     -11.515   7.448 -34.982  1.00  0.00     0.104 C 
HETATM   17  C   UNL     1     -12.754   7.380 -34.120  1.00  0.00     0.181 C 
HETATM   18  O   UNL     1     -13.790   6.924 -35.007  1.00  0.00    -0.390 OA
HETATM   19  C   UNL     1     -13.521   7.476 -36.305  1.00  0.00     0.168 C 
HETATM   20  C   UNL     1     -12.058   7.886 -36.328  1.00  0.00     0.042 C 
ENDBRANCH  13  16
ENDBRANCH  10  12
ENDBRANCH   4   7
BRANCH   1  21
HETATM   21  C   UNL     1      -5.266  -1.470 -33.330  1.00  0.00     0.253 C 
HETATM   22  N   UNL     1      -4.452  -1.121 -32.249  1.00  0.00    -0.348 N 
HETATM   23  C   UNL     1      -3.250  -1.917 -32.040  1.00  0.00     0.153 C 
HETATM   24  O   UNL     1      -5.025  -2.438 -34.053  1.00  0.00    -0.267 OA
BRANCH  22  25
HETATM   25  C   UNL     1      -4.898  -0.317 -31.109  1.00  0.00     0.164 C 
BRANCH  25  26
HETATM   26  C   UNL     1      -4.674   1.176 -31.246  1.00  0.00    -0.038 A 
HETATM   27  C   UNL     1      -3.395   1.755 -31.339  1.00  0.00     0.045 A 
HETATM   28  C   UNL     1      -3.239   3.128 -31.554  1.00  0.00     0.068 A 
HETATM   29  C   UNL     1      -4.370   3.940 -31.632  1.00  0.00     0.037 A 
HETATM   30  C   UNL     1      -5.645   3.387 -31.530  1.00  0.00     0.003 A 
HETATM   31  C   UNL     1      -5.796   2.013 -31.346  1.00  0.00     0.009 A 
BRANCH  28  32
HETATM   32  O   UNL     1      -2.047   3.781 -31.697  1.00  0.00    -0.356 OA
HETATM   33  C   UNL     1      -2.088   5.202 -31.609  1.00  0.00     0.210 C 
ENDBRANCH  28  32
ENDBRANCH  25  26
ENDBRANCH  22  25
ENDBRANCH   1  21
TORSDOF 7
ENDMDL
MODEL 10
REMARK VINA RESULT:      -7.7      2.899      9.733
REMARK  7 active torsions:
REMARK  status: ('A' for Active; 'I' for Inactive)
REMARK       I    between atoms: N_2  and  C_3 
REMARK    1  A    between atoms: N_2  and  C_24 
REMARK    2  A    between atoms: C_3  and  C_4 
REMARK    3  A    between atoms: C_7  and  N_8 
REMARK    4  A    between atoms: C_11  and  N_12 
REMARK       I    between atoms: N_12  and  C_13 
REMARK    5  A    between atoms: C_13  and  C_14 
REMARK    6  A    between atoms: C_24  and  C_25 
REMARK    7  A    between atoms: C_27  and  O_28 
ROOT
HETATM    1  C   UNL     1      -5.606   5.770 -30.973  1.00  0.00     0.032 A 
HETATM    2  C   UNL     1      -6.032   4.912 -29.958  1.00  0.00     0.019 A 
HETATM    3  C   UNL     1      -5.944   3.527 -30.120  1.00  0.00     0.032 A 
HETATM    4  C   UNL     1      -5.476   2.980 -31.324  1.00  0.00     0.058 A 
HETATM    5  C   UNL     1      -5.057   3.837 -32.349  1.00  0.00     0.032 A 
HETATM    6  C   UNL     1      -5.124   5.225 -32.171  1.00  0.00     0.019 A 
ENDROOT
BRANCH   4   7
HETATM    7  N   UNL     1      -5.503   1.566 -31.495  1.00  0.00    -0.243 N 
HETATM    8  N   UNL     1      -6.210   0.781 -30.642  1.00  0.00    -0.178 NA
HETATM    9  C   UNL     1      -6.127  -0.444 -31.162  1.00  0.00     0.170 A 
HETATM   10  C   UNL     1      -5.358  -0.476 -32.338  1.00  0.00     0.071 A 
HETATM   11  C   UNL     1      -4.925   0.818 -32.501  1.00  0.00     0.149 A 
BRANCH  10  12
HETATM   12  N   UNL     1      -5.071  -1.502 -33.216  1.00  0.00    -0.324 N 
HETATM   13  C   UNL     1      -5.952  -1.974 -34.170  1.00  0.00     0.228 C 
HETATM   14  O   UNL     1      -7.118  -1.604 -34.300  1.00  0.00    -0.273 OA
HETATM   15  H   UNL     1      -4.142  -1.911 -33.163  1.00  0.00     0.169 HD
BRANCH  13  16
HETATM   16  C   UNL     1      -5.351  -2.968 -35.158  1.00  0.00     0.104 C 
HETATM   17  C   UNL     1      -6.275  -4.132 -35.432  1.00  0.00     0.181 C 
HETATM   18  O   UNL     1      -6.005  -5.068 -34.375  1.00  0.00    -0.390 OA
HETATM   19  C   UNL     1      -4.607  -4.971 -34.060  1.00  0.00     0.168 C 
HETATM   20  C   UNL     1      -4.112  -3.639 -34.596  1.00  0.00     0.042 C 
ENDBRANCH  13  16
ENDBRANCH  10  12
ENDBRANCH   4   7
BRANCH   1  21
HETATM   21  C   UNL     1      -5.777   7.245 -30.882  1.00  0.00     0.253 C 
HETATM   22  N   UNL     1      -5.023   8.000 -29.978  1.00  0.00    -0.348 N 
HETATM   23  C   UNL     1      -5.317   9.425 -29.899  1.00  0.00     0.153 C 
HETATM   24  O   UNL     1      -6.618   7.752 -31.626  1.00  0.00    -0.267 OA
BRANCH  22  25
HETATM   25  C   UNL     1      -3.736   7.577 -29.424  1.00  0.00     0.164 C 
BRANCH  25  26
HETATM   26  C   UNL     1      -2.647   7.321 -30.446  1.00  0.00    -0.038 A 
HETATM   27  C   UNL     1      -1.802   6.196 -30.402  1.00  0.00     0.045 A 
HETATM   28  C   UNL     1      -0.870   5.955 -31.416  1.00  0.00     0.068 A 
HETATM   29  C   UNL     1      -0.747   6.868 -32.463  1.00  0.00     0.037 A 
HETATM   30  C   UNL     1      -1.565   7.995 -32.517  1.00  0.00     0.003 A 
HETATM   31  C   UNL     1      -2.515   8.215 -31.520  1.00  0.00     0.009 A 
BRANCH  28  32
HETATM   32  O   UNL     1      -0.032   4.876 -31.488  1.00  0.00    -0.356 OA
HETATM   33  C   UNL     1       0.955   4.771 -30.467  1.00  0.00     0.210 C 
ENDBRANCH  28  32
ENDBRANCH  25  26
ENDBRANCH  22  25
ENDBRANCH   1  21
TORSDOF 7
ENDMDL
