MODEL 1
REMARK VINA RESULT:      -8.3      0.000      0.000
REMARK  10 active torsions:
REMARK  status: ('A' for Active; 'I' for Inactive)
REMARK    1  A    between atoms: C_2  and  C_3 
REMARK    2  A    between atoms: C_3  and  N_4 
REMARK    3  A    between atoms: C_10  and  C_11 
REMARK    4  A    between atoms: C_11  and  C_12 
REMARK    5  A    between atoms: C_12  and  S_13 
REMARK    6  A    between atoms: S_13  and  C_14 
REMARK    7  A    between atoms: N_15  and  C_16 
REMARK    8  A    between atoms: C_23  and  C_24 
REMARK    9  A    between atoms: C_24  and  N_25 
REMARK   10  A    between atoms: C_33  and  N_34 
ROOT
HETATM    1  S   UNL     1      -7.255   3.318 -31.367  1.00  0.00    -0.082 SA
ENDROOT
BRANCH   1   2
HETATM    2  C   UNL     1      -6.503   4.175 -32.791  1.00  0.00     0.166 C 
BRANCH   2   3
HETATM    3  C   UNL     1      -5.148   3.548 -33.093  1.00  0.00     0.177 C 
HETATM    4  O   UNL     1      -5.014   2.314 -33.099  1.00  0.00    -0.291 OA
BRANCH   3   5
HETATM    5  C   UNL     1      -3.964   4.436 -33.352  1.00  0.00     0.117 C 
HETATM    6  C   UNL     1      -3.815   5.131 -34.647  1.00  0.00     0.266 C 
HETATM    7  N   UNL     1      -2.861   6.091 -34.716  1.00  0.00    -0.274 N 
HETATM    8  O   UNL     1      -4.491   4.830 -35.625  1.00  0.00    -0.267 OA
HETATM    9  C   UNL     1      -1.791   6.150 -33.882  1.00  0.00     0.330 C 
HETATM   10  H   UNL     1      -2.733   6.550 -35.608  1.00  0.00     0.173 HD
HETATM   11  N   UNL     1      -1.882   5.391 -32.719  1.00  0.00    -0.289 N 
HETATM   12  O   UNL     1      -0.814   6.823 -34.200  1.00  0.00    -0.246 OA
HETATM   13  C   UNL     1      -2.973   4.563 -32.433  1.00  0.00     0.103 C 
BRANCH  11  14
HETATM   14  C   UNL     1      -0.731   5.475 -31.809  1.00  0.00     0.135 C 
BRANCH  14  15
HETATM   15  C   UNL     1      -0.934   6.572 -30.759  1.00  0.00     0.016 C 
HETATM   16  C   UNL     1       0.389   7.078 -30.211  1.00  0.00     0.006 C 
ENDBRANCH  14  15
ENDBRANCH  11  14
BRANCH  13  17
HETATM   17  N   UNL     1      -3.015   3.885 -31.219  1.00  0.00    -0.287 NA
HETATM   18  H   UNL     1      -2.192   4.069 -30.636  1.00  0.00     0.125 HD
HETATM   19  H   UNL     1      -3.862   4.072 -30.692  1.00  0.00     0.125 HD
ENDBRANCH  13  17
ENDBRANCH   3   5
ENDBRANCH   2   3
ENDBRANCH   1   2
BRANCH   1  20
HETATM   20  C   UNL     1      -8.837   3.007 -32.004  1.00  0.00     0.196 A 
HETATM   21  N   UNL     1      -9.153   2.070 -32.975  1.00  0.00    -0.274 N 
HETATM   22  C   UNL     1     -10.491   2.345 -33.259  1.00  0.00     0.166 A 
HETATM   23  N   UNL     1     -10.912   3.350 -32.516  1.00  0.00    -0.131 NA
HETATM   24  N   UNL     1      -9.880   3.757 -31.732  1.00  0.00    -0.122 NA
BRANCH  21  25
HETATM   25  C   UNL     1      -8.366   1.004 -33.494  1.00  0.00     0.043 A 
HETATM   26  C   UNL     1      -7.862   1.069 -34.800  1.00  0.00     0.032 A 
HETATM   27  C   UNL     1      -7.055   0.042 -35.299  1.00  0.00     0.026 A 
HETATM   28  C   UNL     1      -6.752  -1.055 -34.500  1.00  0.00     0.034 A 
HETATM   29 CL   UNL     1      -5.749  -2.310 -35.109  1.00  0.00    -0.084 Cl
HETATM   30  C   UNL     1      -7.256  -1.136 -33.205  1.00  0.00     0.026 A 
HETATM   31  C   UNL     1      -8.064  -0.111 -32.700  1.00  0.00     0.032 A 
ENDBRANCH  21  25
BRANCH  22  32
HETATM   32  C   UNL     1     -11.435   1.536 -34.094  1.00  0.00     0.254 C 
HETATM   33  C   UNL     1     -11.989   2.425 -35.216  1.00  0.00     0.049 C 
BRANCH  32  34
HETATM   34  N   UNL     1     -12.605   1.037 -33.213  1.00  0.00    -0.068 N 
HETATM   35  H   UNL     1     -12.227   1.064 -32.250  1.00  0.00     0.279 HD
HETATM   36  C   UNL     1     -13.847   1.876 -33.246  1.00  0.00     0.270 C 
HETATM   37  C   UNL     1     -12.936  -0.413 -33.471  1.00  0.00     0.270 C 
ENDBRANCH  32  34
ENDBRANCH  22  32
ENDBRANCH   1  20
TORSDOF 10
ENDMDL
MODEL 2
REMARK VINA RESULT:      -8.1      3.756      7.715
REMARK  10 active torsions:
REMARK  status: ('A' for Active; 'I' for Inactive)
REMARK    1  A    between atoms: C_2  and  C_3 
REMARK    2  A    between atoms: C_3  and  N_4 
REMARK    3  A    between atoms: C_10  and  C_11 
REMARK    4  A    between atoms: C_11  and  C_12 
REMARK    5  A    between atoms: C_12  and  S_13 
REMARK    6  A    between atoms: S_13  and  C_14 
REMARK    7  A    between atoms: N_15  and  C_16 
REMARK    8  A    between atoms: C_23  and  C_24 
REMARK    9  A    between atoms: C_24  and  N_25 
REMARK   10  A    between atoms: C_33  and  N_34 
ROOT
HETATM    1  S   UNL     1      -7.234   3.351 -30.182  1.00  0.00    -0.082 SA
ENDROOT
BRANCH   1   2
HETATM    2  C   UNL     1      -8.297   4.453 -31.172  1.00  0.00     0.166 C 
BRANCH   2   3
HETATM    3  C   UNL     1      -9.708   3.883 -31.213  1.00  0.00     0.177 C 
HETATM    4  O   UNL     1     -10.225   3.412 -30.188  1.00  0.00    -0.291 OA
BRANCH   3   5
HETATM    5  C   UNL     1     -10.461   3.864 -32.513  1.00  0.00     0.117 C 
HETATM    6  C   UNL     1     -10.933   5.123 -33.127  1.00  0.00     0.266 C 
HETATM    7  N   UNL     1     -11.385   5.046 -34.402  1.00  0.00    -0.274 N 
HETATM    8  O   UNL     1     -10.955   6.179 -32.503  1.00  0.00    -0.267 OA
HETATM    9  C   UNL     1     -11.836   3.899 -34.973  1.00  0.00     0.330 C 
HETATM   10  H   UNL     1     -11.739   5.897 -34.817  1.00  0.00     0.173 HD
HETATM   11  N   UNL     1     -11.495   2.718 -34.321  1.00  0.00    -0.289 N 
HETATM   12  O   UNL     1     -12.527   3.961 -35.986  1.00  0.00    -0.246 OA
HETATM   13  C   UNL     1     -10.783   2.692 -33.116  1.00  0.00     0.103 C 
BRANCH  11  14
HETATM   14  C   UNL     1     -11.966   1.479 -34.953  1.00  0.00     0.135 C 
BRANCH  14  15
HETATM   15  C   UNL     1     -13.394   1.139 -34.513  1.00  0.00     0.016 C 
HETATM   16  C   UNL     1     -13.442  -0.139 -33.694  1.00  0.00     0.006 C 
ENDBRANCH  14  15
ENDBRANCH  11  14
BRANCH  13  17
HETATM   17  N   UNL     1     -10.428   1.466 -32.561  1.00  0.00    -0.287 NA
HETATM   18  H   UNL     1      -9.516   1.133 -32.891  1.00  0.00     0.125 HD
HETATM   19  H   UNL     1     -10.448   1.472 -31.546  1.00  0.00     0.125 HD
ENDBRANCH  13  17
ENDBRANCH   3   5
ENDBRANCH   2   3
ENDBRANCH   1   2
BRANCH   1  20
HETATM   20  C   UNL     1      -7.096   2.008 -31.268  1.00  0.00     0.196 A 
HETATM   21  N   UNL     1      -6.396   1.997 -32.464  1.00  0.00    -0.274 N 
HETATM   22  C   UNL     1      -6.750   0.772 -33.030  1.00  0.00     0.166 A 
HETATM   23  N   UNL     1      -7.580   0.130 -32.231  1.00  0.00    -0.131 NA
HETATM   24  N   UNL     1      -7.789   0.901 -31.131  1.00  0.00    -0.122 NA
BRANCH  21  25
HETATM   25  C   UNL     1      -5.452   2.935 -32.969  1.00  0.00     0.043 A 
HETATM   26  C   UNL     1      -5.834   3.868 -33.942  1.00  0.00     0.032 A 
HETATM   27  C   UNL     1      -4.920   4.817 -34.410  1.00  0.00     0.026 A 
HETATM   28  C   UNL     1      -3.621   4.836 -33.913  1.00  0.00     0.034 A 
HETATM   29 CL   UNL     1      -2.503   6.011 -34.479  1.00  0.00    -0.084 Cl
HETATM   30  C   UNL     1      -3.226   3.907 -32.955  1.00  0.00     0.026 A 
HETATM   31  C   UNL     1      -4.138   2.955 -32.482  1.00  0.00     0.032 A 
ENDBRANCH  21  25
BRANCH  22  32
HETATM   32  C   UNL     1      -6.157   0.115 -34.239  1.00  0.00     0.254 C 
HETATM   33  C   UNL     1      -7.237   0.008 -35.323  1.00  0.00     0.049 C 
BRANCH  32  34
HETATM   34  N   UNL     1      -5.666  -1.304 -33.865  1.00  0.00    -0.068 N 
HETATM   35  H   UNL     1      -6.146  -1.512 -32.973  1.00  0.00     0.279 HD
HETATM   36  C   UNL     1      -6.011  -2.389 -34.841  1.00  0.00     0.270 C 
HETATM   37  C   UNL     1      -4.191  -1.330 -33.542  1.00  0.00     0.270 C 
ENDBRANCH  32  34
ENDBRANCH  22  32
ENDBRANCH   1  20
TORSDOF 10
ENDMDL
MODEL 3
REMARK VINA RESULT:      -7.7      2.883      8.816
REMARK  10 active torsions:
REMARK  status: ('A' for Active; 'I' for Inactive)
REMARK    1  A    between atoms: C_2  and  C_3 
REMARK    2  A    between atoms: C_3  and  N_4 
REMARK    3  A    between atoms: C_10  and  C_11 
REMARK    4  A    between atoms: C_11  and  C_12 
REMARK    5  A    between atoms: C_12  and  S_13 
REMARK    6  A    between atoms: S_13  and  C_14 
REMARK    7  A    between atoms: N_15  and  C_16 
REMARK    8  A    between atoms: C_23  and  C_24 
REMARK    9  A    between atoms: C_24  and  N_25 
REMARK   10  A    between atoms: C_33  and  N_34 
ROOT
HETATM    1  S   UNL     1      -9.103   3.070 -31.664  1.00  0.00    -0.082 SA
ENDROOT
BRANCH   1   2
HETATM    2  C   UNL     1     -10.044   4.276 -32.658  1.00  0.00     0.166 C 
BRANCH   2   3
HETATM    3  C   UNL     1     -10.604   3.580 -33.890  1.00  0.00     0.177 C 
HETATM    4  O   UNL     1     -10.331   3.998 -35.027  1.00  0.00    -0.291 OA
BRANCH   3   5
HETATM    5  C   UNL     1     -11.518   2.400 -33.722  1.00  0.00     0.117 C 
HETATM    6  C   UNL     1     -10.981   1.023 -33.749  1.00  0.00     0.266 C 
HETATM    7  N   UNL     1     -11.820   0.035 -33.353  1.00  0.00    -0.274 N 
HETATM    8  O   UNL     1      -9.847   0.778 -34.149  1.00  0.00    -0.267 OA
HETATM    9  C   UNL     1     -13.173   0.147 -33.364  1.00  0.00     0.330 C 
HETATM   10  H   UNL     1     -11.469  -0.912 -33.399  1.00  0.00     0.173 HD
HETATM   11  N   UNL     1     -13.677   1.440 -33.467  1.00  0.00    -0.289 N 
HETATM   12  O   UNL     1     -13.863  -0.867 -33.318  1.00  0.00    -0.246 OA
HETATM   13  C   UNL     1     -12.860   2.567 -33.611  1.00  0.00     0.103 C 
BRANCH  11  14
HETATM   14  C   UNL     1     -15.142   1.559 -33.456  1.00  0.00     0.135 C 
BRANCH  14  15
HETATM   15  C   UNL     1     -15.649   2.036 -32.092  1.00  0.00     0.016 C 
HETATM   16  C   UNL     1     -17.049   2.618 -32.184  1.00  0.00     0.006 C 
ENDBRANCH  14  15
ENDBRANCH  11  14
BRANCH  13  17
HETATM   17  N   UNL     1     -13.441   3.831 -33.644  1.00  0.00    -0.287 NA
HETATM   18  H   UNL     1     -14.224   3.922 -32.987  1.00  0.00     0.125 HD
HETATM   19  H   UNL     1     -12.771   4.577 -33.489  1.00  0.00     0.125 HD
ENDBRANCH  13  17
ENDBRANCH   3   5
ENDBRANCH   2   3
ENDBRANCH   1   2
BRANCH   1  20
HETATM   20  C   UNL     1      -7.490   3.640 -31.946  1.00  0.00     0.196 A 
HETATM   21  N   UNL     1      -6.427   2.879 -32.406  1.00  0.00    -0.274 N 
HETATM   22  C   UNL     1      -5.339   3.743 -32.281  1.00  0.00     0.166 A 
HETATM   23  N   UNL     1      -5.738   4.902 -31.794  1.00  0.00    -0.131 NA
HETATM   24  N   UNL     1      -7.080   4.836 -31.591  1.00  0.00    -0.122 NA
BRANCH  21  25
HETATM   25  C   UNL     1      -6.427   1.576 -32.979  1.00  0.00     0.043 A 
HETATM   26  C   UNL     1      -6.291   0.446 -32.162  1.00  0.00     0.032 A 
HETATM   27  C   UNL     1      -6.332  -0.837 -32.716  1.00  0.00     0.026 A 
HETATM   28  C   UNL     1      -6.504  -0.997 -34.088  1.00  0.00     0.034 A 
HETATM   29 CL   UNL     1      -6.568  -2.574 -34.766  1.00  0.00    -0.084 Cl
HETATM   30  C   UNL     1      -6.629   0.118 -34.910  1.00  0.00     0.026 A 
HETATM   31  C   UNL     1      -6.590   1.405 -34.360  1.00  0.00     0.032 A 
ENDBRANCH  21  25
BRANCH  22  32
HETATM   32  C   UNL     1      -3.948   3.546 -32.801  1.00  0.00     0.254 C 
HETATM   33  C   UNL     1      -3.012   3.269 -31.617  1.00  0.00     0.049 C 
BRANCH  32  34
HETATM   34  N   UNL     1      -3.483   4.830 -33.529  1.00  0.00    -0.068 N 
HETATM   35  H   UNL     1      -3.775   5.598 -32.901  1.00  0.00     0.279 HD
HETATM   36  C   UNL     1      -2.006   4.951 -33.754  1.00  0.00     0.270 C 
HETATM   37  C   UNL     1      -4.237   5.059 -34.817  1.00  0.00     0.270 C 
ENDBRANCH  32  34
ENDBRANCH  22  32
ENDBRANCH   1  20
TORSDOF 10
ENDMDL
MODEL 4
REMARK VINA RESULT:      -7.6      3.448      8.170
REMARK  10 active torsions:
REMARK  status: ('A' for Active; 'I' for Inactive)
REMARK    1  A    between atoms: C_2  and  C_3 
REMARK    2  A    between atoms: C_3  and  N_4 
REMARK    3  A    between atoms: C_10  and  C_11 
REMARK    4  A    between atoms: C_11  and  C_12 
REMARK    5  A    between atoms: C_12  and  S_13 
REMARK    6  A    between atoms: S_13  and  C_14 
REMARK    7  A    between atoms: N_15  and  C_16 
REMARK    8  A    between atoms: C_23  and  C_24 
REMARK    9  A    between atoms: C_24  and  N_25 
REMARK   10  A    between atoms: C_33  and  N_34 
ROOT
HETATM    1  S   UNL     1      -7.321   3.175 -30.312  1.00  0.00    -0.082 SA
ENDROOT
BRANCH   1   2
HETATM    2  C   UNL     1      -9.139   3.174 -30.453  1.00  0.00     0.166 C 
BRANCH   2   3
HETATM    3  C   UNL     1      -9.542   3.919 -31.719  1.00  0.00     0.177 C 
HETATM    4  O   UNL     1      -9.183   5.093 -31.899  1.00  0.00    -0.291 OA
BRANCH   3   5
HETATM    5  C   UNL     1     -10.408   3.232 -32.737  1.00  0.00     0.117 C 
HETATM    6  C   UNL     1      -9.803   2.524 -33.884  1.00  0.00     0.266 C 
HETATM    7  N   UNL     1     -10.626   1.735 -34.615  1.00  0.00    -0.274 N 
HETATM    8  O   UNL     1      -8.623   2.673 -34.187  1.00  0.00    -0.267 OA
HETATM    9  C   UNL     1     -11.976   1.886 -34.653  1.00  0.00     0.330 C 
HETATM   10  H   UNL     1     -10.226   1.273 -35.420  1.00  0.00     0.173 HD
HETATM   11  N   UNL     1     -12.531   2.661 -33.640  1.00  0.00    -0.289 N 
HETATM   12  O   UNL     1     -12.615   1.374 -35.568  1.00  0.00    -0.246 OA
HETATM   13  C   UNL     1     -11.762   3.305 -32.665  1.00  0.00     0.103 C 
BRANCH  11  14
HETATM   14  C   UNL     1     -13.993   2.803 -33.672  1.00  0.00     0.135 C 
BRANCH  14  15
HETATM   15  C   UNL     1     -14.677   1.666 -32.906  1.00  0.00     0.016 C 
HETATM   16  C   UNL     1     -15.764   2.186 -31.980  1.00  0.00     0.006 C 
ENDBRANCH  14  15
ENDBRANCH  11  14
BRANCH  13  17
HETATM   17  N   UNL     1     -12.399   4.010 -31.649  1.00  0.00    -0.287 NA
HETATM   18  H   UNL     1     -13.419   4.025 -31.759  1.00  0.00     0.125 HD
HETATM   19  H   UNL     1     -12.157   3.673 -30.723  1.00  0.00     0.125 HD
ENDBRANCH  13  17
ENDBRANCH   3   5
ENDBRANCH   2   3
ENDBRANCH   1   2
BRANCH   1  20
HETATM   20  C   UNL     1      -6.945   1.768 -31.252  1.00  0.00     0.196 A 
HETATM   21  N   UNL     1      -6.087   1.721 -32.339  1.00  0.00    -0.274 N 
HETATM   22  C   UNL     1      -6.276   0.433 -32.840  1.00  0.00     0.166 A 
HETATM   23  N   UNL     1      -7.163  -0.210 -32.105  1.00  0.00    -0.131 NA
HETATM   24  N   UNL     1      -7.574   0.623 -31.113  1.00  0.00    -0.122 NA
BRANCH  21  25
HETATM   25  C   UNL     1      -5.148   2.690 -32.793  1.00  0.00     0.043 A 
HETATM   26  C   UNL     1      -5.547   3.700 -33.679  1.00  0.00     0.032 A 
HETATM   27  C   UNL     1      -4.637   4.677 -34.095  1.00  0.00     0.026 A 
HETATM   28  C   UNL     1      -3.325   4.647 -33.633  1.00  0.00     0.034 A 
HETATM   29 CL   UNL     1      -2.211   5.855 -34.134  1.00  0.00    -0.084 Cl
HETATM   30  C   UNL     1      -2.914   3.641 -32.762  1.00  0.00     0.026 A 
HETATM   31  C   UNL     1      -3.821   2.661 -32.342  1.00  0.00     0.032 A 
ENDBRANCH  21  25
BRANCH  22  32
HETATM   32  C   UNL     1      -5.479  -0.265 -33.899  1.00  0.00     0.254 C 
HETATM   33  C   UNL     1      -6.437  -0.766 -34.989  1.00  0.00     0.049 C 
BRANCH  32  34
HETATM   34  N   UNL     1      -4.739  -1.471 -33.276  1.00  0.00    -0.068 N 
HETATM   35  H   UNL     1      -5.384  -1.815 -32.544  1.00  0.00     0.279 HD
HETATM   36  C   UNL     1      -4.449  -2.609 -34.208  1.00  0.00     0.270 C 
HETATM   37  C   UNL     1      -3.487  -1.055 -32.541  1.00  0.00     0.270 C 
ENDBRANCH  32  34
ENDBRANCH  22  32
ENDBRANCH   1  20
TORSDOF 10
ENDMDL
MODEL 5
REMARK VINA RESULT:      -7.5      3.936      5.533
REMARK  10 active torsions:
REMARK  status: ('A' for Active; 'I' for Inactive)
REMARK    1  A    between atoms: C_2  and  C_3 
REMARK    2  A    between atoms: C_3  and  N_4 
REMARK    3  A    between atoms: C_10  and  C_11 
REMARK    4  A    between atoms: C_11  and  C_12 
REMARK    5  A    between atoms: C_12  and  S_13 
REMARK    6  A    between atoms: S_13  and  C_14 
REMARK    7  A    between atoms: N_15  and  C_16 
REMARK    8  A    between atoms: C_23  and  C_24 
REMARK    9  A    between atoms: C_24  and  N_25 
REMARK   10  A    between atoms: C_33  and  N_34 
ROOT
HETATM    1  S   UNL     1      -7.122   4.473 -30.435  1.00  0.00    -0.082 SA
ENDROOT
BRANCH   1   2
HETATM    2  C   UNL     1      -5.769   4.802 -29.257  1.00  0.00     0.166 C 
BRANCH   2   3
HETATM    3  C   UNL     1      -5.554   6.305 -29.150  1.00  0.00     0.177 C 
HETATM    4  O   UNL     1      -6.271   6.991 -28.405  1.00  0.00    -0.291 OA
BRANCH   3   5
HETATM    5  C   UNL     1      -4.486   6.961 -29.979  1.00  0.00     0.117 C 
HETATM    6  C   UNL     1      -4.783   7.441 -31.345  1.00  0.00     0.266 C 
HETATM    7  N   UNL     1      -3.847   8.228 -31.929  1.00  0.00    -0.274 N 
HETATM    8  O   UNL     1      -5.805   7.113 -31.939  1.00  0.00    -0.267 OA
HETATM    9  C   UNL     1      -2.539   8.240 -31.565  1.00  0.00     0.330 C 
HETATM   10  H   UNL     1      -4.030   8.535 -32.876  1.00  0.00     0.173 HD
HETATM   11  N   UNL     1      -2.245   7.670 -30.330  1.00  0.00    -0.289 N 
HETATM   12  O   UNL     1      -1.703   8.708 -32.333  1.00  0.00    -0.246 OA
HETATM   13  C   UNL     1      -3.212   7.063 -29.522  1.00  0.00     0.103 C 
BRANCH  11  14
HETATM   14  C   UNL     1      -0.832   7.704 -29.930  1.00  0.00     0.135 C 
BRANCH  14  15
HETATM   15  C   UNL     1      -0.069   6.497 -30.485  1.00  0.00     0.016 C 
HETATM   16  C   UNL     1       0.489   5.624 -29.374  1.00  0.00     0.006 C 
ENDBRANCH  14  15
ENDBRANCH  11  14
BRANCH  13  17
HETATM   17  N   UNL     1      -2.846   6.572 -28.272  1.00  0.00    -0.287 NA
HETATM   18  H   UNL     1      -2.639   5.568 -28.288  1.00  0.00     0.125 HD
HETATM   19  H   UNL     1      -2.069   7.080 -27.861  1.00  0.00     0.125 HD
ENDBRANCH  13  17
ENDBRANCH   3   5
ENDBRANCH   2   3
ENDBRANCH   1   2
BRANCH   1  20
HETATM   20  C   UNL     1      -6.659   2.898 -30.994  1.00  0.00     0.196 A 
HETATM   21  N   UNL     1      -5.699   2.626 -31.956  1.00  0.00    -0.274 N 
HETATM   22  C   UNL     1      -5.841   1.255 -32.170  1.00  0.00     0.166 A 
HETATM   23  N   UNL     1      -6.797   0.776 -31.397  1.00  0.00    -0.131 NA
HETATM   24  N   UNL     1      -7.301   1.802 -30.662  1.00  0.00    -0.122 NA
BRANCH  21  25
HETATM   25  C   UNL     1      -4.718   3.487 -32.525  1.00  0.00     0.043 A 
HETATM   26  C   UNL     1      -3.448   3.592 -31.942  1.00  0.00     0.032 A 
HETATM   27  C   UNL     1      -2.468   4.405 -32.522  1.00  0.00     0.026 A 
HETATM   28  C   UNL     1      -2.754   5.120 -33.681  1.00  0.00     0.034 A 
HETATM   29 CL   UNL     1      -1.546   6.108 -34.399  1.00  0.00    -0.084 Cl
HETATM   30  C   UNL     1      -4.016   5.032 -34.262  1.00  0.00     0.026 A 
HETATM   31  C   UNL     1      -5.000   4.219 -33.686  1.00  0.00     0.032 A 
ENDBRANCH  21  25
BRANCH  22  32
HETATM   32  C   UNL     1      -4.946   0.354 -32.963  1.00  0.00     0.254 C 
HETATM   33  C   UNL     1      -5.784  -0.356 -34.035  1.00  0.00     0.049 C 
BRANCH  32  34
HETATM   34  N   UNL     1      -4.316  -0.703 -32.025  1.00  0.00    -0.068 N 
HETATM   35  H   UNL     1      -5.078  -0.947 -31.370  1.00  0.00     0.279 HD
HETATM   36  C   UNL     1      -3.853  -1.966 -32.687  1.00  0.00     0.270 C 
HETATM   37  C   UNL     1      -3.220  -0.120 -31.165  1.00  0.00     0.270 C 
ENDBRANCH  32  34
ENDBRANCH  22  32
ENDBRANCH   1  20
TORSDOF 10
ENDMDL
MODEL 6
REMARK VINA RESULT:      -7.4      3.766      5.594
REMARK  10 active torsions:
REMARK  status: ('A' for Active; 'I' for Inactive)
REMARK    1  A    between atoms: C_2  and  C_3 
REMARK    2  A    between atoms: C_3  and  N_4 
REMARK    3  A    between atoms: C_10  and  C_11 
REMARK    4  A    between atoms: C_11  and  C_12 
REMARK    5  A    between atoms: C_12  and  S_13 
REMARK    6  A    between atoms: S_13  and  C_14 
REMARK    7  A    between atoms: N_15  and  C_16 
REMARK    8  A    between atoms: C_23  and  C_24 
REMARK    9  A    between atoms: C_24  and  N_25 
REMARK   10  A    between atoms: C_33  and  N_34 
ROOT
HETATM    1  S   UNL     1      -7.344   5.192 -31.183  1.00  0.00    -0.082 SA
ENDROOT
BRANCH   1   2
HETATM    2  C   UNL     1      -5.960   5.117 -29.998  1.00  0.00     0.166 C 
BRANCH   2   3
HETATM    3  C   UNL     1      -5.525   6.534 -29.647  1.00  0.00     0.177 C 
HETATM    4  O   UNL     1      -6.184   7.509 -30.041  1.00  0.00    -0.291 OA
BRANCH   3   5
HETATM    5  C   UNL     1      -4.272   6.746 -28.845  1.00  0.00     0.117 C 
HETATM    6  C   UNL     1      -4.292   6.623 -27.373  1.00  0.00     0.266 C 
HETATM    7  N   UNL     1      -3.089   6.589 -26.749  1.00  0.00    -0.274 N 
HETATM    8  O   UNL     1      -5.342   6.594 -26.740  1.00  0.00    -0.267 OA
HETATM    9  C   UNL     1      -1.946   7.084 -27.290  1.00  0.00     0.330 C 
HETATM   10  H   UNL     1      -3.096   6.537 -25.739  1.00  0.00     0.173 HD
HETATM   11  N   UNL     1      -1.973   7.319 -28.662  1.00  0.00    -0.289 N 
HETATM   12  O   UNL     1      -0.988   7.324 -26.562  1.00  0.00    -0.246 OA
HETATM   13  C   UNL     1      -3.115   7.121 -29.446  1.00  0.00     0.103 C 
BRANCH  11  14
HETATM   14  C   UNL     1      -0.728   7.834 -29.247  1.00  0.00     0.135 C 
BRANCH  14  15
HETATM   15  C   UNL     1       0.214   6.692 -29.640  1.00  0.00     0.016 C 
HETATM   16  C   UNL     1       0.498   6.683 -31.132  1.00  0.00     0.006 C 
ENDBRANCH  14  15
ENDBRANCH  11  14
BRANCH  13  17
HETATM   17  N   UNL     1      -3.040   7.320 -30.821  1.00  0.00    -0.287 NA
HETATM   18  H   UNL     1      -3.267   8.282 -31.094  1.00  0.00     0.125 HD
HETATM   19  H   UNL     1      -2.140   7.054 -31.210  1.00  0.00     0.125 HD
ENDBRANCH  13  17
ENDBRANCH   3   5
ENDBRANCH   2   3
ENDBRANCH   1   2
BRANCH   1  20
HETATM   20  C   UNL     1      -7.279   3.582 -31.824  1.00  0.00     0.196 A 
HETATM   21  N   UNL     1      -6.370   3.115 -32.760  1.00  0.00    -0.274 N 
HETATM   22  C   UNL     1      -6.855   1.845 -33.069  1.00  0.00     0.166 A 
HETATM   23  N   UNL     1      -7.947   1.597 -32.372  1.00  0.00    -0.131 NA
HETATM   24  N   UNL     1      -8.205   2.681 -31.593  1.00  0.00    -0.122 NA
BRANCH  21  25
HETATM   25  C   UNL     1      -5.165   3.712 -33.227  1.00  0.00     0.043 A 
HETATM   26  C   UNL     1      -5.184   4.562 -34.341  1.00  0.00     0.032 A 
HETATM   27  C   UNL     1      -4.009   5.182 -34.778  1.00  0.00     0.026 A 
HETATM   28  C   UNL     1      -2.811   4.952 -34.109  1.00  0.00     0.034 A 
HETATM   29 CL   UNL     1      -1.371   5.725 -34.639  1.00  0.00    -0.084 Cl
HETATM   30  C   UNL     1      -2.778   4.101 -33.008  1.00  0.00     0.026 A 
HETATM   31  C   UNL     1      -3.951   3.478 -32.566  1.00  0.00     0.032 A 
ENDBRANCH  21  25
BRANCH  22  32
HETATM   32  C   UNL     1      -6.183   0.780 -33.881  1.00  0.00     0.254 C 
HETATM   33  C   UNL     1      -6.996   0.548 -35.161  1.00  0.00     0.049 C 
BRANCH  32  34
HETATM   34  N   UNL     1      -6.129  -0.534 -33.065  1.00  0.00    -0.068 N 
HETATM   35  H   UNL     1      -7.029  -0.552 -32.555  1.00  0.00     0.279 HD
HETATM   36  C   UNL     1      -6.027  -1.795 -33.869  1.00  0.00     0.270 C 
HETATM   37  C   UNL     1      -5.064  -0.497 -31.995  1.00  0.00     0.270 C 
ENDBRANCH  32  34
ENDBRANCH  22  32
ENDBRANCH   1  20
TORSDOF 10
ENDMDL
MODEL 7
REMARK VINA RESULT:      -7.4      3.081      4.620
REMARK  10 active torsions:
REMARK  status: ('A' for Active; 'I' for Inactive)
REMARK    1  A    between atoms: C_2  and  C_3 
REMARK    2  A    between atoms: C_3  and  N_4 
REMARK    3  A    between atoms: C_10  and  C_11 
REMARK    4  A    between atoms: C_11  and  C_12 
REMARK    5  A    between atoms: C_12  and  S_13 
REMARK    6  A    between atoms: S_13  and  C_14 
REMARK    7  A    between atoms: N_15  and  C_16 
REMARK    8  A    between atoms: C_23  and  C_24 
REMARK    9  A    between atoms: C_24  and  N_25 
REMARK   10  A    between atoms: C_33  and  N_34 
ROOT
HETATM    1  S   UNL     1      -2.972   3.865 -33.064  1.00  0.00    -0.082 SA
ENDROOT
BRANCH   1   2
HETATM    2  C   UNL     1      -2.402   4.174 -31.359  1.00  0.00     0.166 C 
BRANCH   2   3
HETATM    3  C   UNL     1      -1.244   5.161 -31.390  1.00  0.00     0.177 C 
HETATM    4  O   UNL     1      -0.186   4.871 -31.971  1.00  0.00    -0.291 OA
BRANCH   3   5
HETATM    5  C   UNL     1      -1.377   6.480 -30.683  1.00  0.00     0.117 C 
HETATM    6  C   UNL     1      -2.000   7.637 -31.360  1.00  0.00     0.266 C 
HETATM    7  N   UNL     1      -2.301   8.706 -30.585  1.00  0.00    -0.274 N 
HETATM    8  O   UNL     1      -2.200   7.647 -32.570  1.00  0.00    -0.267 OA
HETATM    9  C   UNL     1      -1.699   8.966 -29.395  1.00  0.00     0.330 C 
HETATM   10  H   UNL     1      -2.698   9.513 -31.047  1.00  0.00     0.173 HD
HETATM   11  N   UNL     1      -1.004   7.907 -28.819  1.00  0.00    -0.289 N 
HETATM   12  O   UNL     1      -1.769  10.095 -28.917  1.00  0.00    -0.246 OA
HETATM   13  C   UNL     1      -0.868   6.659 -29.438  1.00  0.00     0.103 C 
BRANCH  11  14
HETATM   14  C   UNL     1      -0.373   8.185 -27.522  1.00  0.00     0.135 C 
BRANCH  14  15
HETATM   15  C   UNL     1       1.104   8.552 -27.691  1.00  0.00     0.016 C 
HETATM   16  C   UNL     1       1.926   8.152 -26.477  1.00  0.00     0.006 C 
ENDBRANCH  14  15
ENDBRANCH  11  14
BRANCH  13  17
HETATM   17  N   UNL     1      -0.210   5.633 -28.766  1.00  0.00    -0.287 NA
HETATM   18  H   UNL     1       0.335   5.035 -29.397  1.00  0.00     0.125 HD
HETATM   19  H   UNL     1       0.381   5.971 -28.013  1.00  0.00     0.125 HD
ENDBRANCH  13  17
ENDBRANCH   3   5
ENDBRANCH   2   3
ENDBRANCH   1   2
BRANCH   1  20
HETATM   20  C   UNL     1      -4.671   3.667 -32.783  1.00  0.00     0.196 A 
HETATM   21  N   UNL     1      -5.336   2.460 -32.632  1.00  0.00    -0.274 N 
HETATM   22  C   UNL     1      -6.679   2.836 -32.619  1.00  0.00     0.166 A 
HETATM   23  N   UNL     1      -6.782   4.144 -32.749  1.00  0.00    -0.131 NA
HETATM   24  N   UNL     1      -5.528   4.659 -32.845  1.00  0.00    -0.122 NA
BRANCH  21  25
HETATM   25  C   UNL     1      -4.807   1.155 -32.424  1.00  0.00     0.043 A 
HETATM   26  C   UNL     1      -5.071   0.131 -33.343  1.00  0.00     0.032 A 
HETATM   27  C   UNL     1      -4.520  -1.141 -33.163  1.00  0.00     0.026 A 
HETATM   28  C   UNL     1      -3.706  -1.398 -32.063  1.00  0.00     0.034 A 
HETATM   29 CL   UNL     1      -3.018  -2.958 -31.850  1.00  0.00    -0.084 Cl
HETATM   30  C   UNL     1      -3.446  -0.391 -31.138  1.00  0.00     0.026 A 
HETATM   31  C   UNL     1      -3.995   0.885 -31.314  1.00  0.00     0.032 A 
ENDBRANCH  21  25
BRANCH  22  32
HETATM   32  C   UNL     1      -7.866   1.982 -32.291  1.00  0.00     0.254 C 
HETATM   33  C   UNL     1      -9.043   2.412 -33.177  1.00  0.00     0.049 C 
BRANCH  32  34
HETATM   34  N   UNL     1      -8.246   2.178 -30.805  1.00  0.00    -0.068 N 
HETATM   35  H   UNL     1      -8.575   1.246 -30.501  1.00  0.00     0.279 HD
HETATM   36  C   UNL     1      -7.127   2.593 -29.897  1.00  0.00     0.270 C 
HETATM   37  C   UNL     1      -9.435   3.095 -30.636  1.00  0.00     0.270 C 
ENDBRANCH  32  34
ENDBRANCH  22  32
ENDBRANCH   1  20
TORSDOF 10
ENDMDL
MODEL 8
REMARK VINA RESULT:      -7.3      2.992      8.441
REMARK  10 active torsions:
REMARK  status: ('A' for Active; 'I' for Inactive)
REMARK    1  A    between atoms: C_2  and  C_3 
REMARK    2  A    between atoms: C_3  and  N_4 
REMARK    3  A    between atoms: C_10  and  C_11 
REMARK    4  A    between atoms: C_11  and  C_12 
REMARK    5  A    between atoms: C_12  and  S_13 
REMARK    6  A    between atoms: S_13  and  C_14 
REMARK    7  A    between atoms: N_15  and  C_16 
REMARK    8  A    between atoms: C_23  and  C_24 
REMARK    9  A    between atoms: C_24  and  N_25 
REMARK   10  A    between atoms: C_33  and  N_34 
ROOT
HETATM    1  S   UNL     1      -8.302   4.565 -31.614  1.00  0.00    -0.082 SA
ENDROOT
BRANCH   1   2
HETATM    2  C   UNL     1      -9.134   5.909 -32.524  1.00  0.00     0.166 C 
BRANCH   2   3
HETATM    3  C   UNL     1     -10.626   5.616 -32.594  1.00  0.00     0.177 C 
HETATM    4  O   UNL     1     -11.423   6.233 -31.870  1.00  0.00    -0.291 OA
BRANCH   3   5
HETATM    5  C   UNL     1     -11.127   4.550 -33.527  1.00  0.00     0.117 C 
HETATM    6  C   UNL     1     -11.042   4.730 -34.991  1.00  0.00     0.266 C 
HETATM    7  N   UNL     1     -11.287   3.638 -35.754  1.00  0.00    -0.274 N 
HETATM    8  O   UNL     1     -10.801   5.822 -35.496  1.00  0.00    -0.267 OA
HETATM    9  C   UNL     1     -12.005   2.566 -35.327  1.00  0.00     0.330 C 
HETATM   10  H   UNL     1     -11.261   3.762 -36.757  1.00  0.00     0.173 HD
HETATM   11  N   UNL     1     -12.192   2.467 -33.952  1.00  0.00    -0.289 N 
HETATM   12  O   UNL     1     -12.466   1.782 -36.151  1.00  0.00    -0.246 OA
HETATM   13  C   UNL     1     -11.729   3.431 -33.049  1.00  0.00     0.103 C 
BRANCH  11  14
HETATM   14  C   UNL     1     -12.950   1.296 -33.492  1.00  0.00     0.135 C 
BRANCH  14  15
HETATM   15  C   UNL     1     -14.453   1.590 -33.452  1.00  0.00     0.016 C 
HETATM   16  C   UNL     1     -15.235   0.649 -34.353  1.00  0.00     0.006 C 
ENDBRANCH  14  15
ENDBRANCH  11  14
BRANCH  13  17
HETATM   17  N   UNL     1     -11.903   3.226 -31.684  1.00  0.00    -0.287 NA
HETATM   18  H   UNL     1     -12.393   4.002 -31.227  1.00  0.00     0.125 HD
HETATM   19  H   UNL     1     -12.371   2.349 -31.473  1.00  0.00     0.125 HD
ENDBRANCH  13  17
ENDBRANCH   3   5
ENDBRANCH   2   3
ENDBRANCH   1   2
BRANCH   1  20
HETATM   20  C   UNL     1      -6.648   4.932 -31.981  1.00  0.00     0.196 A 
HETATM   21  N   UNL     1      -5.700   4.035 -32.449  1.00  0.00    -0.274 N 
HETATM   22  C   UNL     1      -4.515   4.770 -32.402  1.00  0.00     0.166 A 
HETATM   23  N   UNL     1      -4.757   5.985 -31.950  1.00  0.00    -0.131 NA
HETATM   24  N   UNL     1      -6.087   6.084 -31.693  1.00  0.00    -0.122 NA
BRANCH  21  25
HETATM   25  C   UNL     1      -5.875   2.720 -32.965  1.00  0.00     0.043 A 
HETATM   26  C   UNL     1      -5.449   1.609 -32.224  1.00  0.00     0.032 A 
HETATM   27  C   UNL     1      -5.657   0.314 -32.710  1.00  0.00     0.026 A 
HETATM   28  C   UNL     1      -6.285   0.123 -33.937  1.00  0.00     0.034 A 
HETATM   29 CL   UNL     1      -6.551  -1.469 -34.527  1.00  0.00    -0.084 Cl
HETATM   30  C   UNL     1      -6.701   1.220 -34.686  1.00  0.00     0.026 A 
HETATM   31  C   UNL     1      -6.497   2.519 -34.204  1.00  0.00     0.032 A 
ENDBRANCH  21  25
BRANCH  22  32
HETATM   32  C   UNL     1      -3.179   4.392 -32.965  1.00  0.00     0.254 C 
HETATM   33  C   UNL     1      -2.119   4.541 -31.866  1.00  0.00     0.049 C 
BRANCH  32  34
HETATM   34  N   UNL     1      -2.831   5.335 -34.142  1.00  0.00    -0.068 N 
HETATM   35  H   UNL     1      -3.002   6.283 -33.766  1.00  0.00     0.279 HD
HETATM   36  C   UNL     1      -1.413   5.277 -34.623  1.00  0.00     0.270 C 
HETATM   37  C   UNL     1      -3.791   5.184 -35.297  1.00  0.00     0.270 C 
ENDBRANCH  32  34
ENDBRANCH  22  32
ENDBRANCH   1  20
TORSDOF 10
ENDMDL
MODEL 9
REMARK VINA RESULT:      -7.2      1.948      2.200
REMARK  10 active torsions:
REMARK  status: ('A' for Active; 'I' for Inactive)
REMARK    1  A    between atoms: C_2  and  C_3 
REMARK    2  A    between atoms: C_3  and  N_4 
REMARK    3  A    between atoms: C_10  and  C_11 
REMARK    4  A    between atoms: C_11  and  C_12 
REMARK    5  A    between atoms: C_12  and  S_13 
REMARK    6  A    between atoms: S_13  and  C_14 
REMARK    7  A    between atoms: N_15  and  C_16 
REMARK    8  A    between atoms: C_23  and  C_24 
REMARK    9  A    between atoms: C_24  and  N_25 
REMARK   10  A    between atoms: C_33  and  N_34 
ROOT
HETATM    1  S   UNL     1      -6.805   3.991 -32.792  1.00  0.00    -0.082 SA
ENDROOT
BRANCH   1   2
HETATM    2  C   UNL     1      -7.052   4.755 -31.155  1.00  0.00     0.166 C 
BRANCH   2   3
HETATM    3  C   UNL     1      -5.705   4.891 -30.458  1.00  0.00     0.177 C 
HETATM    4  O   UNL     1      -5.474   4.266 -29.411  1.00  0.00    -0.291 OA
BRANCH   3   5
HETATM    5  C   UNL     1      -4.666   5.813 -31.029  1.00  0.00     0.117 C 
HETATM    6  C   UNL     1      -4.970   7.242 -31.253  1.00  0.00     0.266 C 
HETATM    7  N   UNL     1      -3.920   8.050 -31.539  1.00  0.00    -0.274 N 
HETATM    8  O   UNL     1      -6.118   7.672 -31.222  1.00  0.00    -0.267 OA
HETATM    9  C   UNL     1      -2.745   7.603 -32.054  1.00  0.00     0.330 C 
HETATM   10  H   UNL     1      -4.124   9.022 -31.724  1.00  0.00     0.173 HD
HETATM   11  N   UNL     1      -2.517   6.234 -31.955  1.00  0.00    -0.289 N 
HETATM   12  O   UNL     1      -1.980   8.399 -32.592  1.00  0.00    -0.246 OA
HETATM   13  C   UNL     1      -3.453   5.343 -31.417  1.00  0.00     0.103 C 
BRANCH  11  14
HETATM   14  C   UNL     1      -1.236   5.757 -32.493  1.00  0.00     0.135 C 
BRANCH  14  15
HETATM   15  C   UNL     1      -0.223   5.506 -31.371  1.00  0.00     0.016 C 
HETATM   16  C   UNL     1       0.675   6.710 -31.143  1.00  0.00     0.006 C 
ENDBRANCH  14  15
ENDBRANCH  11  14
BRANCH  13  17
HETATM   17  N   UNL     1      -3.123   3.997 -31.297  1.00  0.00    -0.287 NA
HETATM   18  H   UNL     1      -2.119   3.825 -31.420  1.00  0.00     0.125 HD
HETATM   19  H   UNL     1      -3.439   3.589 -30.423  1.00  0.00     0.125 HD
ENDBRANCH  13  17
ENDBRANCH   3   5
ENDBRANCH   2   3
ENDBRANCH   1   2
BRANCH   1  20
HETATM   20  C   UNL     1      -8.454   3.702 -33.242  1.00  0.00     0.196 A 
HETATM   21  N   UNL     1      -8.946   2.548 -33.830  1.00  0.00    -0.274 N 
HETATM   22  C   UNL     1     -10.259   2.890 -34.153  1.00  0.00     0.166 A 
HETATM   23  N   UNL     1     -10.506   4.132 -33.782  1.00  0.00    -0.131 NA
HETATM   24  N   UNL     1      -9.379   4.633 -33.210  1.00  0.00    -0.122 NA
BRANCH  21  25
HETATM   25  C   UNL     1      -8.329   1.274 -33.981  1.00  0.00     0.043 A 
HETATM   26  C   UNL     1      -8.539   0.270 -33.026  1.00  0.00     0.032 A 
HETATM   27  C   UNL     1      -7.967  -0.995 -33.192  1.00  0.00     0.026 A 
HETATM   28  C   UNL     1      -7.180  -1.262 -34.308  1.00  0.00     0.034 A 
HETATM   29 CL   UNL     1      -6.488  -2.820 -34.518  1.00  0.00    -0.084 Cl
HETATM   30  C   UNL     1      -6.954  -0.268 -35.257  1.00  0.00     0.026 A 
HETATM   31  C   UNL     1      -7.525   1.000 -35.096  1.00  0.00     0.032 A 
ENDBRANCH  21  25
BRANCH  22  32
HETATM   32  C   UNL     1     -11.349   1.984 -34.640  1.00  0.00     0.254 C 
HETATM   33  C   UNL     1     -12.263   2.775 -35.586  1.00  0.00     0.049 C 
BRANCH  32  34
HETATM   34  N   UNL     1     -12.177   1.481 -33.433  1.00  0.00    -0.068 N 
HETATM   35  H   UNL     1     -11.529   1.558 -32.631  1.00  0.00     0.279 HD
HETATM   36  C   UNL     1     -13.407   2.275 -33.112  1.00  0.00     0.270 C 
HETATM   37  C   UNL     1     -12.506   0.011 -33.542  1.00  0.00     0.270 C 
ENDBRANCH  32  34
ENDBRANCH  22  32
ENDBRANCH   1  20
TORSDOF 10
ENDMDL
MODEL 10
REMARK VINA RESULT:      -7.2      2.623      8.169
REMARK  10 active torsions:
REMARK  status: ('A' for Active; 'I' for Inactive)
REMARK    1  A    between atoms: C_2  and  C_3 
REMARK    2  A    between atoms: C_3  and  N_4 
REMARK    3  A    between atoms: C_10  and  C_11 
REMARK    4  A    between atoms: C_11  and  C_12 
REMARK    5  A    between atoms: C_12  and  S_13 
REMARK    6  A    between atoms: S_13  and  C_14 
REMARK    7  A    between atoms: N_15  and  C_16 
REMARK    8  A    between atoms: C_23  and  C_24 
REMARK    9  A    between atoms: C_24  and  N_25 
REMARK   10  A    between atoms: C_33  and  N_34 
ROOT
HETATM    1  S   UNL     1      -8.154   5.527 -33.185  1.00  0.00    -0.082 SA
ENDROOT
BRANCH   1   2
HETATM    2  C   UNL     1      -8.555   5.639 -31.410  1.00  0.00     0.166 C 
BRANCH   2   3
HETATM    3  C   UNL     1      -9.795   4.803 -31.124  1.00  0.00     0.177 C 
HETATM    4  O   UNL     1     -10.740   5.281 -30.477  1.00  0.00    -0.291 OA
BRANCH   3   5
HETATM    5  C   UNL     1      -9.854   3.380 -31.603  1.00  0.00     0.117 C 
HETATM    6  C   UNL     1      -8.955   2.356 -31.032  1.00  0.00     0.266 C 
HETATM    7  N   UNL     1      -9.231   1.065 -31.338  1.00  0.00    -0.274 N 
HETATM    8  O   UNL     1      -7.981   2.658 -30.350  1.00  0.00    -0.267 OA
HETATM    9  C   UNL     1      -9.951   0.687 -32.426  1.00  0.00     0.330 C 
HETATM   10  H   UNL     1      -8.601   0.362 -30.977  1.00  0.00     0.173 HD
HETATM   11  N   UNL     1     -10.700   1.685 -33.039  1.00  0.00    -0.289 N 
HETATM   12  O   UNL     1      -9.881  -0.474 -32.822  1.00  0.00    -0.246 OA
HETATM   13  C   UNL     1     -10.684   3.019 -32.615  1.00  0.00     0.103 C 
BRANCH  11  14
HETATM   14  C   UNL     1     -11.494   1.267 -34.202  1.00  0.00     0.135 C 
BRANCH  14  15
HETATM   15  C   UNL     1     -12.964   1.058 -33.824  1.00  0.00     0.016 C 
HETATM   16  C   UNL     1     -13.282  -0.410 -33.593  1.00  0.00     0.006 C 
ENDBRANCH  14  15
ENDBRANCH  11  14
BRANCH  13  17
HETATM   17  N   UNL     1     -11.511   3.945 -33.244  1.00  0.00    -0.287 NA
HETATM   18  H   UNL     1     -11.169   4.213 -34.173  1.00  0.00     0.125 HD
HETATM   19  H   UNL     1     -12.475   3.633 -33.306  1.00  0.00     0.125 HD
ENDBRANCH  13  17
ENDBRANCH   3   5
ENDBRANCH   2   3
ENDBRANCH   1   2
BRANCH   1  20
HETATM   20  C   UNL     1      -6.422   5.547 -33.105  1.00  0.00     0.196 A 
HETATM   21  N   UNL     1      -5.597   4.435 -33.057  1.00  0.00    -0.274 N 
HETATM   22  C   UNL     1      -4.338   4.982 -32.815  1.00  0.00     0.166 A 
HETATM   23  N   UNL     1      -4.426   6.296 -32.733  1.00  0.00    -0.131 NA
HETATM   24  N   UNL     1      -5.726   6.645 -32.919  1.00  0.00    -0.122 NA
BRANCH  21  25
HETATM   25  C   UNL     1      -5.907   3.067 -33.303  1.00  0.00     0.043 A 
HETATM   26  C   UNL     1      -6.565   2.693 -34.482  1.00  0.00     0.032 A 
HETATM   27  C   UNL     1      -6.833   1.346 -34.745  1.00  0.00     0.026 A 
HETATM   28  C   UNL     1      -6.452   0.368 -33.831  1.00  0.00     0.034 A 
HETATM   29 CL   UNL     1      -6.771  -1.287 -34.161  1.00  0.00    -0.084 Cl
HETATM   30  C   UNL     1      -5.808   0.730 -32.651  1.00  0.00     0.026 A 
HETATM   31  C   UNL     1      -5.536   2.077 -32.383  1.00  0.00     0.032 A 
ENDBRANCH  21  25
BRANCH  22  32
HETATM   32  C   UNL     1      -3.012   4.284 -32.852  1.00  0.00     0.254 C 
HETATM   33  C   UNL     1      -2.714   3.717 -31.457  1.00  0.00     0.049 C 
BRANCH  32  34
HETATM   34  N   UNL     1      -1.908   5.296 -33.239  1.00  0.00    -0.068 N 
HETATM   35  H   UNL     1      -2.373   6.218 -33.172  1.00  0.00     0.279 HD
HETATM   36  C   UNL     1      -0.705   5.319 -32.343  1.00  0.00     0.270 C 
HETATM   37  C   UNL     1      -1.492   5.162 -34.684  1.00  0.00     0.270 C 
ENDBRANCH  32  34
ENDBRANCH  22  32
ENDBRANCH   1  20
TORSDOF 10
ENDMDL
