MODEL 1
REMARK VINA RESULT:      -8.6      0.000      0.000
REMARK  5 active torsions:
REMARK  status: ('A' for Active; 'I' for Inactive)
REMARK    1  A    between atoms: C_3  and  O_4 
REMARK    2  A    between atoms: O_4  and  C_5 
REMARK    3  A    between atoms: C_5  and  C_6 
REMARK       I    between atoms: C_6  and  N_7 
REMARK    4  A    between atoms: N_7  and  N_8 
REMARK    5  A    between atoms: C_9  and  C_10 
ROOT
HETATM    1  C   UNL     1      -2.687   4.285 -31.984  1.00  0.00     0.261 C 
HETATM    2  N   UNL     1      -3.095   3.289 -31.095  1.00  0.00    -0.246 N 
HETATM    3  O   UNL     1      -2.208   4.087 -33.096  1.00  0.00    -0.269 OA
HETATM    4  H   UNL     1      -3.501   3.532 -30.199  1.00  0.00     0.192 HD
ENDROOT
BRANCH   2   5
HETATM    5  N   UNL     1      -2.960   1.973 -31.432  1.00  0.00    -0.184 NA
HETATM    6  C   UNL     1      -4.018   1.406 -31.915  1.00  0.00     0.152 C 
BRANCH   6   7
HETATM    7  C   UNL     1      -3.980   0.012 -32.300  1.00  0.00     0.011 A 
HETATM    8  C   UNL     1      -4.834  -0.652 -33.239  1.00  0.00     0.004 A 
HETATM    9  C   UNL     1      -4.432  -1.989 -33.294  1.00  0.00     0.043 A 
HETATM   10  C   UNL     1      -5.911  -0.244 -34.054  1.00  0.00     0.014 A 
HETATM   11  C   UNL     1      -5.052  -2.935 -34.120  1.00  0.00     0.030 A 
HETATM   12  N   UNL     1      -3.378  -2.133 -32.421  1.00  0.00    -0.364 N 
HETATM   13  C   UNL     1      -6.115  -2.502 -34.917  1.00  0.00     0.002 A 
HETATM   14  C   UNL     1      -6.541  -1.177 -34.887  1.00  0.00     0.001 A 
HETATM   15  H   UNL     1      -2.883  -2.998 -32.253  1.00  0.00     0.165 HD
HETATM   16  C   UNL     1      -3.097  -0.938 -31.820  1.00  0.00     0.102 A 
ENDBRANCH   6   7
ENDBRANCH   2   5
BRANCH   1  17
HETATM   17  C   UNL     1      -2.929   5.680 -31.400  1.00  0.00     0.280 C 
BRANCH  17  18
HETATM   18  O   UNL     1      -1.954   6.633 -31.817  1.00  0.00    -0.341 OA
BRANCH  18  19
HETATM   19  C   UNL     1      -1.296   7.157 -30.733  1.00  0.00     0.081 A 
HETATM   20  C   UNL     1      -0.085   6.592 -30.301  1.00  0.00    -0.027 A 
HETATM   21  C   UNL     1       0.533   5.413 -30.994  1.00  0.00     0.051 C 
HETATM   22  C   UNL     1       0.540   7.131 -29.168  1.00  0.00     0.028 A 
HETATM   23  C   UNL     1      -0.014   8.233 -28.516  1.00  0.00     0.012 A 
HETATM   24  C   UNL     1      -1.191   8.818 -28.982  1.00  0.00     0.028 A 
HETATM   25 BR   UNL     1       0.842   8.944 -26.987  1.00  0.00    -0.051 Br
HETATM   26  C   UNL     1      -1.837   8.294 -30.109  1.00  0.00    -0.027 A 
HETATM   27  C   UNL     1      -3.107   8.924 -30.611  1.00  0.00     0.051 C 
ENDBRANCH  18  19
ENDBRANCH  17  18
ENDBRANCH   1  17
TORSDOF 5
ENDMDL
MODEL 2
REMARK VINA RESULT:      -8.4      7.684     10.109
REMARK  5 active torsions:
REMARK  status: ('A' for Active; 'I' for Inactive)
REMARK    1  A    between atoms: C_3  and  O_4 
REMARK    2  A    between atoms: O_4  and  C_5 
REMARK    3  A    between atoms: C_5  and  C_6 
REMARK       I    between atoms: C_6  and  N_7 
REMARK    4  A    between atoms: N_7  and  N_8 
REMARK    5  A    between atoms: C_9  and  C_10 
ROOT
HETATM    1  C   UNL     1      -9.722   1.030 -32.678  1.00  0.00     0.261 C 
HETATM    2  N   UNL     1      -8.394   1.437 -32.540  1.00  0.00    -0.246 N 
HETATM    3  O   UNL     1     -10.101  -0.136 -32.746  1.00  0.00    -0.269 OA
HETATM    4  H   UNL     1      -8.160   2.421 -32.472  1.00  0.00     0.192 HD
ENDROOT
BRANCH   2   5
HETATM    5  N   UNL     1      -7.395   0.509 -32.486  1.00  0.00    -0.184 NA
HETATM    6  C   UNL     1      -6.860   0.194 -33.622  1.00  0.00     0.152 C 
BRANCH   6   7
HETATM    7  C   UNL     1      -5.794  -0.783 -33.674  1.00  0.00     0.011 A 
HETATM    8  C   UNL     1      -5.885  -2.144 -34.111  1.00  0.00     0.004 A 
HETATM    9  C   UNL     1      -4.613  -2.707 -33.991  1.00  0.00     0.043 A 
HETATM   10  C   UNL     1      -6.930  -2.954 -34.602  1.00  0.00     0.014 A 
HETATM   11  C   UNL     1      -4.334  -4.035 -34.336  1.00  0.00     0.030 A 
HETATM   12  N   UNL     1      -3.780  -1.727 -33.498  1.00  0.00    -0.364 N 
HETATM   13  C   UNL     1      -5.388  -4.814 -34.822  1.00  0.00     0.002 A 
HETATM   14  C   UNL     1      -6.669  -4.284 -34.953  1.00  0.00     0.001 A 
HETATM   15  H   UNL     1      -2.795  -1.851 -33.310  1.00  0.00     0.165 HD
HETATM   16  C   UNL     1      -4.478  -0.568 -33.306  1.00  0.00     0.102 A 
ENDBRANCH   6   7
ENDBRANCH   2   5
BRANCH   1  17
HETATM   17  C   UNL     1     -10.668   2.233 -32.718  1.00  0.00     0.280 C 
BRANCH  17  18
HETATM   18  O   UNL     1     -11.580   2.186 -33.813  1.00  0.00    -0.341 OA
BRANCH  18  19
HETATM   19  C   UNL     1     -12.870   2.359 -33.377  1.00  0.00     0.081 A 
HETATM   20  C   UNL     1     -13.312   3.627 -32.967  1.00  0.00    -0.027 A 
HETATM   21  C   UNL     1     -12.411   4.828 -32.990  1.00  0.00     0.051 C 
HETATM   22  C   UNL     1     -14.625   3.758 -32.492  1.00  0.00     0.028 A 
HETATM   23  C   UNL     1     -15.479   2.657 -32.472  1.00  0.00     0.012 A 
HETATM   24  C   UNL     1     -15.046   1.411 -32.927  1.00  0.00     0.028 A 
HETATM   25 BR   UNL     1     -17.245   2.853 -31.825  1.00  0.00    -0.051 Br
HETATM   26  C   UNL     1     -13.737   1.254 -33.401  1.00  0.00    -0.027 A 
HETATM   27  C   UNL     1     -13.269  -0.089 -33.890  1.00  0.00     0.051 C 
ENDBRANCH  18  19
ENDBRANCH  17  18
ENDBRANCH   1  17
TORSDOF 5
ENDMDL
MODEL 3
REMARK VINA RESULT:      -8.2      3.925      9.556
REMARK  5 active torsions:
REMARK  status: ('A' for Active; 'I' for Inactive)
REMARK    1  A    between atoms: C_3  and  O_4 
REMARK    2  A    between atoms: O_4  and  C_5 
REMARK    3  A    between atoms: C_5  and  C_6 
REMARK       I    between atoms: C_6  and  N_7 
REMARK    4  A    between atoms: N_7  and  N_8 
REMARK    5  A    between atoms: C_9  and  C_10 
ROOT
HETATM    1  C   UNL     1      -4.857   2.333 -31.191  1.00  0.00     0.261 C 
HETATM    2  N   UNL     1      -3.642   2.517 -31.852  1.00  0.00    -0.246 N 
HETATM    3  O   UNL     1      -5.138   2.792 -30.087  1.00  0.00    -0.269 OA
HETATM    4  H   UNL     1      -3.491   2.121 -32.773  1.00  0.00     0.192 HD
ENDROOT
BRANCH   2   5
HETATM    5  N   UNL     1      -2.645   3.243 -31.266  1.00  0.00    -0.184 NA
HETATM    6  C   UNL     1      -2.433   4.414 -31.772  1.00  0.00     0.152 C 
BRANCH   6   7
HETATM    7  C   UNL     1      -1.396   5.262 -31.224  1.00  0.00     0.011 A 
HETATM    8  C   UNL     1      -1.558   6.344 -30.299  1.00  0.00     0.004 A 
HETATM    9  C   UNL     1      -0.289   6.872 -30.050  1.00  0.00     0.043 A 
HETATM   10  C   UNL     1      -2.664   6.924 -29.644  1.00  0.00     0.014 A 
HETATM   11  C   UNL     1      -0.072   7.948 -29.181  1.00  0.00     0.030 A 
HETATM   12  N   UNL     1       0.609   6.142 -30.796  1.00  0.00    -0.364 N 
HETATM   13  C   UNL     1      -1.186   8.503 -28.545  1.00  0.00     0.002 A 
HETATM   14  C   UNL     1      -2.464   8.001 -28.771  1.00  0.00     0.001 A 
HETATM   15  H   UNL     1       1.607   6.302 -30.813  1.00  0.00     0.165 HD
HETATM   16  C   UNL     1      -0.045   5.172 -31.503  1.00  0.00     0.102 A 
ENDBRANCH   6   7
ENDBRANCH   2   5
BRANCH   1  17
HETATM   17  C   UNL     1      -5.821   1.489 -32.029  1.00  0.00     0.280 C 
BRANCH  17  18
HETATM   18  O   UNL     1      -5.360   1.280 -33.362  1.00  0.00    -0.341 OA
BRANCH  18  19
HETATM   19  C   UNL     1      -5.589  -0.014 -33.756  1.00  0.00     0.081 A 
HETATM   20  C   UNL     1      -4.650  -1.017 -33.464  1.00  0.00    -0.027 A 
HETATM   21  C   UNL     1      -3.379  -0.723 -32.721  1.00  0.00     0.051 C 
HETATM   22  C   UNL     1      -4.900  -2.321 -33.914  1.00  0.00     0.028 A 
HETATM   23  C   UNL     1      -6.079  -2.615 -34.598  1.00  0.00     0.012 A 
HETATM   24  C   UNL     1      -7.028  -1.623 -34.839  1.00  0.00     0.028 A 
HETATM   25 BR   UNL     1      -6.396  -4.380 -35.200  1.00  0.00    -0.051 Br
HETATM   26  C   UNL     1      -6.799  -0.311 -34.404  1.00  0.00    -0.027 A 
HETATM   27  C   UNL     1      -7.822   0.759 -34.667  1.00  0.00     0.051 C 
ENDBRANCH  18  19
ENDBRANCH  17  18
ENDBRANCH   1  17
TORSDOF 5
ENDMDL
MODEL 4
REMARK VINA RESULT:      -8.2      6.508      9.604
REMARK  5 active torsions:
REMARK  status: ('A' for Active; 'I' for Inactive)
REMARK    1  A    between atoms: C_3  and  O_4 
REMARK    2  A    between atoms: O_4  and  C_5 
REMARK    3  A    between atoms: C_5  and  C_6 
REMARK       I    between atoms: C_6  and  N_7 
REMARK    4  A    between atoms: N_7  and  N_8 
REMARK    5  A    between atoms: C_9  and  C_10 
ROOT
HETATM    1  C   UNL     1      -7.158   1.482 -31.825  1.00  0.00     0.261 C 
HETATM    2  N   UNL     1      -7.840   2.594 -32.321  1.00  0.00    -0.246 N 
HETATM    3  O   UNL     1      -7.652   0.606 -31.121  1.00  0.00    -0.269 OA
HETATM    4  H   UNL     1      -7.367   3.266 -32.915  1.00  0.00     0.192 HD
ENDROOT
BRANCH   2   5
HETATM    5  N   UNL     1      -9.157   2.782 -32.018  1.00  0.00    -0.184 NA
HETATM    6  C   UNL     1      -9.973   2.757 -33.023  1.00  0.00     0.152 C 
BRANCH   6   7
HETATM    7  C   UNL     1     -11.391   2.950 -32.809  1.00  0.00     0.011 A 
HETATM    8  C   UNL     1     -12.457   2.095 -33.237  1.00  0.00     0.004 A 
HETATM    9  C   UNL     1     -13.653   2.673 -32.809  1.00  0.00     0.043 A 
HETATM   10  C   UNL     1     -12.521   0.878 -33.948  1.00  0.00     0.014 A 
HETATM   11  C   UNL     1     -14.906   2.098 -33.054  1.00  0.00     0.030 A 
HETATM   12  N   UNL     1     -13.329   3.836 -32.147  1.00  0.00    -0.364 N 
HETATM   13  C   UNL     1     -14.940   0.892 -33.759  1.00  0.00     0.002 A 
HETATM   14  C   UNL     1     -13.765   0.288 -34.202  1.00  0.00     0.001 A 
HETATM   15  H   UNL     1     -13.998   4.465 -31.726  1.00  0.00     0.165 HD
HETATM   16  C   UNL     1     -11.973   4.010 -32.139  1.00  0.00     0.102 A 
ENDBRANCH   6   7
ENDBRANCH   2   5
BRANCH   1  17
HETATM   17  C   UNL     1      -5.699   1.475 -32.288  1.00  0.00     0.280 C 
BRANCH  17  18
HETATM   18  O   UNL     1      -5.561   1.231 -33.686  1.00  0.00    -0.341 OA
BRANCH  18  19
HETATM   19  C   UNL     1      -5.618  -0.115 -33.950  1.00  0.00     0.081 A 
HETATM   20  C   UNL     1      -4.579  -0.961 -33.530  1.00  0.00    -0.027 A 
HETATM   21  C   UNL     1      -3.382  -0.442 -32.787  1.00  0.00     0.051 C 
HETATM   22  C   UNL     1      -4.653  -2.324 -33.850  1.00  0.00     0.028 A 
HETATM   23  C   UNL     1      -5.761  -2.826 -34.532  1.00  0.00     0.012 A 
HETATM   24  C   UNL     1      -6.812  -1.986 -34.901  1.00  0.00     0.028 A 
HETATM   25 BR   UNL     1      -5.842  -4.667 -34.957  1.00  0.00    -0.051 Br
HETATM   26  C   UNL     1      -6.758  -0.620 -34.597  1.00  0.00    -0.027 A 
HETATM   27  C   UNL     1      -7.889   0.286 -34.997  1.00  0.00     0.051 C 
ENDBRANCH  18  19
ENDBRANCH  17  18
ENDBRANCH   1  17
TORSDOF 5
ENDMDL
MODEL 5
REMARK VINA RESULT:      -8.1      7.594     10.219
REMARK  5 active torsions:
REMARK  status: ('A' for Active; 'I' for Inactive)
REMARK    1  A    between atoms: C_3  and  O_4 
REMARK    2  A    between atoms: O_4  and  C_5 
REMARK    3  A    between atoms: C_5  and  C_6 
REMARK       I    between atoms: C_6  and  N_7 
REMARK    4  A    between atoms: N_7  and  N_8 
REMARK    5  A    between atoms: C_9  and  C_10 
ROOT
HETATM    1  C   UNL     1      -9.892   2.550 -34.255  1.00  0.00     0.261 C 
HETATM    2  N   UNL     1      -9.741   1.171 -34.405  1.00  0.00    -0.246 N 
HETATM    3  O   UNL     1      -8.983   3.373 -34.317  1.00  0.00    -0.269 OA
HETATM    4  H   UNL     1     -10.545   0.556 -34.360  1.00  0.00     0.192 HD
ENDROOT
BRANCH   2   5
HETATM    5  N   UNL     1      -8.504   0.637 -34.623  1.00  0.00    -0.184 NA
HETATM    6  C   UNL     1      -8.008  -0.049 -33.644  1.00  0.00     0.152 C 
BRANCH   6   7
HETATM    7  C   UNL     1      -6.700  -0.654 -33.774  1.00  0.00     0.011 A 
HETATM    8  C   UNL     1      -6.402  -2.001 -34.158  1.00  0.00     0.004 A 
HETATM    9  C   UNL     1      -5.012  -2.139 -34.150  1.00  0.00     0.043 A 
HETATM   10  C   UNL     1      -7.182  -3.120 -34.518  1.00  0.00     0.014 A 
HETATM   11  C   UNL     1      -4.366  -3.336 -34.482  1.00  0.00     0.030 A 
HETATM   12  N   UNL     1      -4.486  -0.924 -33.773  1.00  0.00    -0.364 N 
HETATM   13  C   UNL     1      -5.163  -4.428 -34.836  1.00  0.00     0.002 A 
HETATM   14  C   UNL     1      -6.552  -4.324 -34.854  1.00  0.00     0.001 A 
HETATM   15  H   UNL     1      -3.498  -0.729 -33.681  1.00  0.00     0.165 HD
HETATM   16  C   UNL     1      -5.490  -0.025 -33.547  1.00  0.00     0.102 A 
ENDBRANCH   6   7
ENDBRANCH   2   5
BRANCH   1  17
HETATM   17  C   UNL     1     -11.358   2.924 -34.018  1.00  0.00     0.280 C 
BRANCH  17  18
HETATM   18  O   UNL     1     -11.797   2.636 -32.693  1.00  0.00    -0.341 OA
BRANCH  18  19
HETATM   19  C   UNL     1     -13.165   2.699 -32.611  1.00  0.00     0.081 A 
HETATM   20  C   UNL     1     -13.949   1.623 -33.057  1.00  0.00    -0.027 A 
HETATM   21  C   UNL     1     -13.336   0.378 -33.631  1.00  0.00     0.051 C 
HETATM   22  C   UNL     1     -15.345   1.738 -32.993  1.00  0.00     0.028 A 
HETATM   23  C   UNL     1     -15.932   2.882 -32.455  1.00  0.00     0.012 A 
HETATM   24  C   UNL     1     -15.145   3.925 -31.968  1.00  0.00     0.028 A 
HETATM   25 BR   UNL     1     -17.817   3.020 -32.379  1.00  0.00    -0.051 Br
HETATM   26  C   UNL     1     -13.748   3.837 -32.027  1.00  0.00    -0.027 A 
HETATM   27  C   UNL     1     -12.899   4.962 -31.505  1.00  0.00     0.051 C 
ENDBRANCH  18  19
ENDBRANCH  17  18
ENDBRANCH   1  17
TORSDOF 5
ENDMDL
MODEL 6
REMARK VINA RESULT:      -8.1      4.093      9.740
REMARK  5 active torsions:
REMARK  status: ('A' for Active; 'I' for Inactive)
REMARK    1  A    between atoms: C_3  and  O_4 
REMARK    2  A    between atoms: O_4  and  C_5 
REMARK    3  A    between atoms: C_5  and  C_6 
REMARK       I    between atoms: C_6  and  N_7 
REMARK    4  A    between atoms: N_7  and  N_8 
REMARK    5  A    between atoms: C_9  and  C_10 
ROOT
HETATM    1  C   UNL     1      -5.877   2.152 -31.292  1.00  0.00     0.261 C 
HETATM    2  N   UNL     1      -4.803   2.838 -31.860  1.00  0.00    -0.246 N 
HETATM    3  O   UNL     1      -6.263   2.277 -30.133  1.00  0.00    -0.269 OA
HETATM    4  H   UNL     1      -4.557   2.695 -32.833  1.00  0.00     0.192 HD
ENDROOT
BRANCH   2   5
HETATM    5  N   UNL     1      -4.078   3.719 -31.111  1.00  0.00    -0.184 NA
HETATM    6  C   UNL     1      -4.128   4.954 -31.493  1.00  0.00     0.152 C 
BRANCH   6   7
HETATM    7  C   UNL     1      -3.391   5.967 -30.767  1.00  0.00     0.011 A 
HETATM    8  C   UNL     1      -1.969   6.114 -30.687  1.00  0.00     0.004 A 
HETATM    9  C   UNL     1      -1.710   7.225 -29.883  1.00  0.00     0.043 A 
HETATM   10  C   UNL     1      -0.872   5.408 -31.225  1.00  0.00     0.014 A 
HETATM   11  C   UNL     1      -0.413   7.666 -29.591  1.00  0.00     0.030 A 
HETATM   12  N   UNL     1      -2.927   7.734 -29.487  1.00  0.00    -0.364 N 
HETATM   13  C   UNL     1       0.654   6.949 -30.138  1.00  0.00     0.002 A 
HETATM   14  C   UNL     1       0.431   5.836 -30.944  1.00  0.00     0.001 A 
HETATM   15  H   UNL     1      -3.047   8.544 -28.896  1.00  0.00     0.165 HD
HETATM   16  C   UNL     1      -3.943   6.987 -30.015  1.00  0.00     0.102 A 
ENDBRANCH   6   7
ENDBRANCH   2   5
BRANCH   1  17
HETATM   17  C   UNL     1      -6.541   1.221 -32.310  1.00  0.00     0.280 C 
BRANCH  17  18
HETATM   18  O   UNL     1      -5.756   1.034 -33.485  1.00  0.00    -0.341 OA
BRANCH  18  19
HETATM   19  C   UNL     1      -5.783  -0.279 -33.882  1.00  0.00     0.081 A 
HETATM   20  C   UNL     1      -6.848  -0.759 -34.662  1.00  0.00    -0.027 A 
HETATM   21  C   UNL     1      -7.981   0.128 -35.090  1.00  0.00     0.051 C 
HETATM   22  C   UNL     1      -6.861  -2.115 -35.017  1.00  0.00     0.028 A 
HETATM   23  C   UNL     1      -5.813  -2.952 -34.637  1.00  0.00     0.012 A 
HETATM   24  C   UNL     1      -4.735  -2.455 -33.905  1.00  0.00     0.028 A 
HETATM   25 BR   UNL     1      -5.850  -4.779 -35.123  1.00  0.00    -0.051 Br
HETATM   26  C   UNL     1      -4.701  -1.105 -33.533  1.00  0.00    -0.027 A 
HETATM   27  C   UNL     1      -3.540  -0.570 -32.742  1.00  0.00     0.051 C 
ENDBRANCH  18  19
ENDBRANCH  17  18
ENDBRANCH   1  17
TORSDOF 5
ENDMDL
MODEL 7
REMARK VINA RESULT:      -7.9      4.176      9.679
REMARK  5 active torsions:
REMARK  status: ('A' for Active; 'I' for Inactive)
REMARK    1  A    between atoms: C_3  and  O_4 
REMARK    2  A    between atoms: O_4  and  C_5 
REMARK    3  A    between atoms: C_5  and  C_6 
REMARK       I    between atoms: C_6  and  N_7 
REMARK    4  A    between atoms: N_7  and  N_8 
REMARK    5  A    between atoms: C_9  and  C_10 
ROOT
HETATM    1  C   UNL     1      -5.568   2.117 -31.346  1.00  0.00     0.261 C 
HETATM    2  N   UNL     1      -5.771   3.480 -31.566  1.00  0.00    -0.246 N 
HETATM    3  O   UNL     1      -4.851   1.640 -30.471  1.00  0.00    -0.269 OA
HETATM    4  H   UNL     1      -6.395   3.797 -32.298  1.00  0.00     0.192 HD
ENDROOT
BRANCH   2   5
HETATM    5  N   UNL     1      -5.134   4.402 -30.786  1.00  0.00    -0.184 NA
HETATM    6  C   UNL     1      -4.150   5.027 -31.347  1.00  0.00     0.152 C 
BRANCH   6   7
HETATM    7  C   UNL     1      -3.407   6.022 -30.605  1.00  0.00     0.011 A 
HETATM    8  C   UNL     1      -1.985   6.190 -30.561  1.00  0.00     0.004 A 
HETATM    9  C   UNL     1      -1.719   7.274 -29.721  1.00  0.00     0.043 A 
HETATM   10  C   UNL     1      -0.895   5.524 -31.159  1.00  0.00     0.014 A 
HETATM   11  C   UNL     1      -0.421   7.724 -29.451  1.00  0.00     0.030 A 
HETATM   12  N   UNL     1      -2.931   7.746 -29.270  1.00  0.00    -0.364 N 
HETATM   13  C   UNL     1       0.640   7.047 -30.058  1.00  0.00     0.002 A 
HETATM   14  C   UNL     1       0.410   5.962 -30.900  1.00  0.00     0.001 A 
HETATM   15  H   UNL     1      -3.046   8.530 -28.644  1.00  0.00     0.165 HD
HETATM   16  C   UNL     1      -3.951   7.003 -29.796  1.00  0.00     0.102 A 
ENDBRANCH   6   7
ENDBRANCH   2   5
BRANCH   1  17
HETATM   17  C   UNL     1      -6.377   1.271 -32.334  1.00  0.00     0.280 C 
BRANCH  17  18
HETATM   18  O   UNL     1      -5.691   1.046 -33.563  1.00  0.00    -0.341 OA
BRANCH  18  19
HETATM   19  C   UNL     1      -5.762  -0.276 -33.923  1.00  0.00     0.081 A 
HETATM   20  C   UNL     1      -4.729  -1.160 -33.569  1.00  0.00    -0.027 A 
HETATM   21  C   UNL     1      -3.526  -0.706 -32.794  1.00  0.00     0.051 C 
HETATM   22  C   UNL     1      -4.818  -2.496 -33.985  1.00  0.00     0.028 A 
HETATM   23  C   UNL     1      -5.932  -2.938 -34.698  1.00  0.00     0.012 A 
HETATM   24  C   UNL     1      -6.976  -2.064 -35.002  1.00  0.00     0.028 A 
HETATM   25 BR   UNL     1      -6.033  -4.742 -35.253  1.00  0.00    -0.051 Br
HETATM   26  C   UNL     1      -6.908  -0.723 -34.601  1.00  0.00    -0.027 A 
HETATM   27  C   UNL     1      -8.032   0.220 -34.931  1.00  0.00     0.051 C 
ENDBRANCH  18  19
ENDBRANCH  17  18
ENDBRANCH   1  17
TORSDOF 5
ENDMDL
MODEL 8
REMARK VINA RESULT:      -7.8      7.008      8.713
REMARK  5 active torsions:
REMARK  status: ('A' for Active; 'I' for Inactive)
REMARK    1  A    between atoms: C_3  and  O_4 
REMARK    2  A    between atoms: O_4  and  C_5 
REMARK    3  A    between atoms: C_5  and  C_6 
REMARK       I    between atoms: C_6  and  N_7 
REMARK    4  A    between atoms: N_7  and  N_8 
REMARK    5  A    between atoms: C_9  and  C_10 
ROOT
HETATM    1  C   UNL     1      -9.505   0.992 -32.900  1.00  0.00     0.261 C 
HETATM    2  N   UNL     1      -8.150   1.124 -33.206  1.00  0.00    -0.246 N 
HETATM    3  O   UNL     1     -10.024  -0.003 -32.401  1.00  0.00    -0.269 OA
HETATM    4  H   UNL     1      -7.792   1.987 -33.600  1.00  0.00     0.192 HD
ENDROOT
BRANCH   2   5
HETATM    5  N   UNL     1      -7.290   0.091 -32.969  1.00  0.00    -0.184 NA
HETATM    6  C   UNL     1      -6.297  -0.012 -33.793  1.00  0.00     0.152 C 
BRANCH   6   7
HETATM    7  C   UNL     1      -5.330  -1.076 -33.631  1.00  0.00     0.011 A 
HETATM    8  C   UNL     1      -5.449  -2.432 -34.076  1.00  0.00     0.004 A 
HETATM    9  C   UNL     1      -4.279  -3.097 -33.705  1.00  0.00     0.043 A 
HETATM   10  C   UNL     1      -6.442  -3.161 -34.764  1.00  0.00     0.014 A 
HETATM   11  C   UNL     1      -4.052  -4.450 -33.986  1.00  0.00     0.030 A 
HETATM   12  N   UNL     1      -3.479  -2.182 -33.058  1.00  0.00    -0.364 N 
HETATM   13  C   UNL     1      -5.052  -5.147 -34.670  1.00  0.00     0.002 A 
HETATM   14  C   UNL     1      -6.231  -4.515 -35.054  1.00  0.00     0.001 A 
HETATM   15  H   UNL     1      -2.565  -2.384 -32.678  1.00  0.00     0.165 HD
HETATM   16  C   UNL     1      -4.100  -0.965 -33.010  1.00  0.00     0.102 A 
ENDBRANCH   6   7
ENDBRANCH   2   5
BRANCH   1  17
HETATM   17  C   UNL     1     -10.278   2.267 -33.249  1.00  0.00     0.280 C 
BRANCH  17  18
HETATM   18  O   UNL     1      -9.922   2.801 -34.522  1.00  0.00    -0.341 OA
BRANCH  18  19
HETATM   19  C   UNL     1     -10.698   3.892 -34.823  1.00  0.00     0.081 A 
HETATM   20  C   UNL     1     -12.011   3.716 -35.290  1.00  0.00    -0.027 A 
HETATM   21  C   UNL     1     -12.613   2.353 -35.474  1.00  0.00     0.051 C 
HETATM   22  C   UNL     1     -12.761   4.853 -35.624  1.00  0.00     0.028 A 
HETATM   23  C   UNL     1     -12.222   6.127 -35.451  1.00  0.00     0.012 A 
HETATM   24  C   UNL     1     -10.935   6.293 -34.940  1.00  0.00     0.028 A 
HETATM   25 BR   UNL     1     -13.249   7.647 -35.910  1.00  0.00    -0.051 Br
HETATM   26  C   UNL     1     -10.164   5.173 -34.605  1.00  0.00    -0.027 A 
HETATM   27  C   UNL     1      -8.776   5.351 -34.056  1.00  0.00     0.051 C 
ENDBRANCH  18  19
ENDBRANCH  17  18
ENDBRANCH   1  17
TORSDOF 5
ENDMDL
MODEL 9
REMARK VINA RESULT:      -7.6      7.085      8.531
REMARK  5 active torsions:
REMARK  status: ('A' for Active; 'I' for Inactive)
REMARK    1  A    between atoms: C_3  and  O_4 
REMARK    2  A    between atoms: O_4  and  C_5 
REMARK    3  A    between atoms: C_5  and  C_6 
REMARK       I    between atoms: C_6  and  N_7 
REMARK    4  A    between atoms: N_7  and  N_8 
REMARK    5  A    between atoms: C_9  and  C_10 
ROOT
HETATM    1  C   UNL     1      -9.833   0.936 -34.017  1.00  0.00     0.261 C 
HETATM    2  N   UNL     1      -8.782   0.819 -34.927  1.00  0.00    -0.246 N 
HETATM    3  O   UNL     1     -10.013   0.207 -33.046  1.00  0.00    -0.269 OA
HETATM    4  H   UNL     1      -8.689   1.474 -35.695  1.00  0.00     0.192 HD
ENDROOT
BRANCH   2   5
HETATM    5  N   UNL     1      -7.859  -0.176 -34.784  1.00  0.00    -0.184 NA
HETATM    6  C   UNL     1      -6.761   0.158 -34.185  1.00  0.00     0.152 C 
BRANCH   6   7
HETATM    7  C   UNL     1      -5.717  -0.824 -33.986  1.00  0.00     0.011 A 
HETATM    8  C   UNL     1      -5.774  -2.223 -34.285  1.00  0.00     0.004 A 
HETATM    9  C   UNL     1      -4.540  -2.775 -33.932  1.00  0.00     0.043 A 
HETATM   10  C   UNL     1      -6.758  -3.078 -34.826  1.00  0.00     0.014 A 
HETATM   11  C   UNL     1      -4.242  -4.134 -34.093  1.00  0.00     0.030 A 
HETATM   12  N   UNL     1      -3.764  -1.752 -33.437  1.00  0.00    -0.364 N 
HETATM   13  C   UNL     1      -5.235  -4.956 -34.633  1.00  0.00     0.002 A 
HETATM   14  C   UNL     1      -6.476  -4.439 -34.995  1.00  0.00     0.001 A 
HETATM   15  H   UNL     1      -2.816  -1.859 -33.103  1.00  0.00     0.165 HD
HETATM   16  C   UNL     1      -4.460  -0.576 -33.467  1.00  0.00     0.102 A 
ENDBRANCH   6   7
ENDBRANCH   2   5
BRANCH   1  17
HETATM   17  C   UNL     1     -10.743   2.116 -34.371  1.00  0.00     0.280 C 
BRANCH  17  18
HETATM   18  O   UNL     1     -10.240   3.365 -33.902  1.00  0.00    -0.341 OA
BRANCH  18  19
HETATM   19  C   UNL     1     -11.102   3.923 -32.992  1.00  0.00     0.081 A 
HETATM   20  C   UNL     1     -10.824   3.845 -31.617  1.00  0.00    -0.027 A 
HETATM   21  C   UNL     1      -9.594   3.163 -31.093  1.00  0.00     0.051 C 
HETATM   22  C   UNL     1     -11.746   4.394 -30.715  1.00  0.00     0.028 A 
HETATM   23  C   UNL     1     -12.890   5.040 -31.184  1.00  0.00     0.012 A 
HETATM   24  C   UNL     1     -13.132   5.155 -32.552  1.00  0.00     0.028 A 
HETATM   25 BR   UNL     1     -14.123   5.771 -29.951  1.00  0.00    -0.051 Br
HETATM   26  C   UNL     1     -12.228   4.610 -33.474  1.00  0.00    -0.027 A 
HETATM   27  C   UNL     1     -12.491   4.733 -34.949  1.00  0.00     0.051 C 
ENDBRANCH  18  19
ENDBRANCH  17  18
ENDBRANCH   1  17
TORSDOF 5
ENDMDL
MODEL 10
REMARK VINA RESULT:      -7.6      5.921      7.202
REMARK  5 active torsions:
REMARK  status: ('A' for Active; 'I' for Inactive)
REMARK    1  A    between atoms: C_3  and  O_4 
REMARK    2  A    between atoms: O_4  and  C_5 
REMARK    3  A    between atoms: C_5  and  C_6 
REMARK       I    between atoms: C_6  and  N_7 
REMARK    4  A    between atoms: N_7  and  N_8 
REMARK    5  A    between atoms: C_9  and  C_10 
ROOT
HETATM    1  C   UNL     1     -10.048   0.855 -33.834  1.00  0.00     0.261 C 
HETATM    2  N   UNL     1      -8.963   0.908 -34.710  1.00  0.00    -0.246 N 
HETATM    3  O   UNL     1     -10.223  -0.005 -32.976  1.00  0.00    -0.269 OA
HETATM    4  H   UNL     1      -8.878   1.663 -35.381  1.00  0.00     0.192 HD
ENDROOT
BRANCH   2   5
HETATM    5  N   UNL     1      -7.998  -0.056 -34.665  1.00  0.00    -0.184 NA
HETATM    6  C   UNL     1      -6.946   0.236 -33.970  1.00  0.00     0.152 C 
BRANCH   6   7
HETATM    7  C   UNL     1      -5.862  -0.717 -33.861  1.00  0.00     0.011 A 
HETATM    8  C   UNL     1      -5.893  -2.108 -34.203  1.00  0.00     0.004 A 
HETATM    9  C   UNL     1      -4.625  -2.630 -33.937  1.00  0.00     0.043 A 
HETATM   10  C   UNL     1      -6.879  -2.976 -34.719  1.00  0.00     0.014 A 
HETATM   11  C   UNL     1      -4.295  -3.972 -34.160  1.00  0.00     0.030 A 
HETATM   12  N   UNL     1      -3.854  -1.599 -33.451  1.00  0.00    -0.364 N 
HETATM   13  C   UNL     1      -5.290  -4.809 -34.672  1.00  0.00     0.002 A 
HETATM   14  C   UNL     1      -6.565  -4.321 -34.948  1.00  0.00     0.001 A 
HETATM   15  H   UNL     1      -2.887  -1.685 -33.173  1.00  0.00     0.165 HD
HETATM   16  C   UNL     1      -4.587  -0.445 -33.403  1.00  0.00     0.102 A 
ENDBRANCH   6   7
ENDBRANCH   2   5
BRANCH   1  17
HETATM   17  C   UNL     1     -11.002   2.031 -34.064  1.00  0.00     0.280 C 
BRANCH  17  18
HETATM   18  O   UNL     1     -11.023   2.950 -32.974  1.00  0.00    -0.341 OA
BRANCH  18  19
HETATM   19  C   UNL     1      -9.852   3.663 -32.920  1.00  0.00     0.081 A 
HETATM   20  C   UNL     1      -8.975   3.498 -31.836  1.00  0.00    -0.027 A 
HETATM   21  C   UNL     1      -9.273   2.550 -30.710  1.00  0.00     0.051 C 
HETATM   22  C   UNL     1      -7.806   4.271 -31.795  1.00  0.00     0.028 A 
HETATM   23  C   UNL     1      -7.507   5.149 -32.836  1.00  0.00     0.012 A 
HETATM   24  C   UNL     1      -8.360   5.270 -33.933  1.00  0.00     0.028 A 
HETATM   25 BR   UNL     1      -5.927   6.185 -32.762  1.00  0.00    -0.051 Br
HETATM   26  C   UNL     1      -9.537   4.513 -33.994  1.00  0.00    -0.027 A 
HETATM   27  C   UNL     1     -10.457   4.644 -35.175  1.00  0.00     0.051 C 
ENDBRANCH  18  19
ENDBRANCH  17  18
ENDBRANCH   1  17
TORSDOF 5
ENDMDL
