MODEL 1
REMARK VINA RESULT:      -8.7      0.000      0.000
REMARK  8 active torsions:
REMARK  status: ('A' for Active; 'I' for Inactive)
REMARK    1  A    between atoms: N_5  and  C_7 
REMARK    2  A    between atoms: C_7  and  C_8 
REMARK    3  A    between atoms: N_9  and  C_10 
REMARK    4  A    between atoms: C_14  and  N_15 
REMARK    5  A    between atoms: C_18  and  C_19 
REMARK       I    between atoms: C_19  and  N_20 
REMARK    6  A    between atoms: N_20  and  N_21 
REMARK    7  A    between atoms: C_22  and  C_23 
REMARK    8  A    between atoms: C_24  and  O_25 
ROOT
HETATM    1  C   UNL     1      -9.177   2.417 -33.698  1.00  0.00     0.096 A 
HETATM    2  N   UNL     1     -10.427   2.086 -33.173  1.00  0.00    -0.215 N 
HETATM    3  N   UNL     1     -10.919   3.177 -32.522  1.00  0.00     0.012 NA
HETATM    4  N   UNL     1     -10.010   4.136 -32.516  1.00  0.00    -0.152 NA
HETATM    5  C   UNL     1      -8.928   3.693 -33.212  1.00  0.00     0.170 A 
ENDROOT
BRANCH   5   6
HETATM    6  C   UNL     1      -7.708   4.466 -33.395  1.00  0.00     0.293 C 
HETATM    7  N   UNL     1      -6.746   4.227 -32.433  1.00  0.00    -0.242 N 
HETATM    8  H   UNL     1      -6.930   3.555 -31.690  1.00  0.00     0.192 HD
HETATM    9  O   UNL     1      -7.604   5.229 -34.356  1.00  0.00    -0.264 OA
BRANCH   7  10
HETATM   10  N   UNL     1      -5.571   4.915 -32.458  1.00  0.00    -0.183 NA
HETATM   11  C   UNL     1      -4.576   4.298 -33.017  1.00  0.00     0.153 C 
BRANCH  11  12
HETATM   12  C   UNL     1      -3.236   4.915 -33.096  1.00  0.00     0.017 A 
HETATM   13  C   UNL     1      -2.793   5.597 -34.237  1.00  0.00     0.077 A 
HETATM   14  C   UNL     1      -1.525   6.173 -34.263  1.00  0.00     0.039 A 
HETATM   15  C   UNL     1      -0.690   6.069 -33.150  1.00  0.00     0.022 A 
HETATM   16  C   UNL     1      -1.131   5.387 -32.015  1.00  0.00     0.012 A 
HETATM   17 BR   UNL     1       0.004   5.245 -30.509  1.00  0.00    -0.051 Br
HETATM   18  C   UNL     1      -2.400   4.810 -31.979  1.00  0.00     0.034 A 
BRANCH  13  19
HETATM   19  O   UNL     1      -3.553   5.743 -35.365  1.00  0.00    -0.360 OA
HETATM   20  H   UNL     1      -3.361   6.627 -35.745  1.00  0.00     0.217 HD
ENDBRANCH  13  19
ENDBRANCH  11  12
ENDBRANCH   7  10
ENDBRANCH   5   6
BRANCH   1  21
HETATM   21  C   UNL     1      -8.364   1.596 -34.627  1.00  0.00     0.296 C 
BRANCH  21  22
HETATM   22  N   UNL     1      -7.732   0.376 -33.994  1.00  0.00    -0.066 N 
HETATM   23  C   UNL     1      -7.013  -0.502 -34.983  1.00  0.00     0.235 C 
HETATM   24  C   UNL     1      -6.484  -1.748 -34.287  1.00  0.00     0.032 C 
HETATM   25  C   UNL     1      -5.590  -1.428 -33.084  1.00  0.00    -0.016 C 
HETATM   26  C   UNL     1      -4.229  -0.875 -33.519  1.00  0.00     0.010 C 
HETATM   27  C   UNL     1      -6.319  -0.474 -32.133  1.00  0.00     0.032 C 
HETATM   28  C   UNL     1      -6.855   0.770 -32.828  1.00  0.00     0.235 C 
HETATM   29  H   UNL     1      -8.523  -0.160 -33.580  1.00  0.00     0.280 HD
ENDBRANCH  21  22
ENDBRANCH   1  21
BRANCH   2  30
HETATM   30  C   UNL     1     -11.122   0.854 -33.198  1.00  0.00     0.225 A 
HETATM   31  N   UNL     1     -10.534  -0.259 -32.756  1.00  0.00    -0.081 NA
HETATM   32  O   UNL     1     -11.518  -1.240 -32.907  1.00  0.00    -0.103 OA
HETATM   33  N   UNL     1     -12.690  -0.698 -33.415  1.00  0.00    -0.083 NA
HETATM   34  C   UNL     1     -12.447   0.599 -33.592  1.00  0.00     0.201 A 
BRANCH  34  35
HETATM   35  N   UNL     1     -13.339   1.481 -34.070  1.00  0.00    -0.379 N 
HETATM   36  H   UNL     1     -14.293   1.485 -33.716  1.00  0.00     0.158 HD
HETATM   37  H   UNL     1     -13.089   2.294 -34.628  1.00  0.00     0.158 HD
ENDBRANCH  34  35
ENDBRANCH   2  30
TORSDOF 8
ENDMDL
MODEL 2
REMARK VINA RESULT:      -8.6      3.259      5.538
REMARK  8 active torsions:
REMARK  status: ('A' for Active; 'I' for Inactive)
REMARK    1  A    between atoms: N_5  and  C_7 
REMARK    2  A    between atoms: C_7  and  C_8 
REMARK    3  A    between atoms: N_9  and  C_10 
REMARK    4  A    between atoms: C_14  and  N_15 
REMARK    5  A    between atoms: C_18  and  C_19 
REMARK       I    between atoms: C_19  and  N_20 
REMARK    6  A    between atoms: N_20  and  N_21 
REMARK    7  A    between atoms: C_22  and  C_23 
REMARK    8  A    between atoms: C_24  and  O_25 
ROOT
HETATM    1  C   UNL     1      -4.642  -1.016 -33.144  1.00  0.00     0.096 A 
HETATM    2  N   UNL     1      -4.538  -2.402 -33.269  1.00  0.00    -0.215 N 
HETATM    3  N   UNL     1      -3.581  -2.839 -32.403  1.00  0.00     0.012 NA
HETATM    4  N   UNL     1      -3.006  -1.801 -31.820  1.00  0.00    -0.152 NA
HETATM    5  C   UNL     1      -3.622  -0.673 -32.268  1.00  0.00     0.170 A 
ENDROOT
BRANCH   5   6
HETATM    6  C   UNL     1      -3.239   0.674 -31.869  1.00  0.00     0.293 C 
HETATM    7  N   UNL     1      -3.715   1.661 -32.709  1.00  0.00    -0.242 N 
HETATM    8  H   UNL     1      -4.283   1.408 -33.516  1.00  0.00     0.192 HD
HETATM    9  O   UNL     1      -2.568   0.844 -30.851  1.00  0.00    -0.264 OA
BRANCH   7  10
HETATM   10  N   UNL     1      -3.397   2.965 -32.479  1.00  0.00    -0.183 NA
HETATM   11  C   UNL     1      -2.581   3.499 -33.336  1.00  0.00     0.153 C 
BRANCH  11  12
HETATM   12  C   UNL     1      -2.132   4.899 -33.198  1.00  0.00     0.017 A 
HETATM   13  C   UNL     1      -2.529   5.903 -34.092  1.00  0.00     0.077 A 
HETATM   14  C   UNL     1      -2.089   7.213 -33.917  1.00  0.00     0.039 A 
HETATM   15  C   UNL     1      -1.247   7.528 -32.851  1.00  0.00     0.022 A 
HETATM   16  C   UNL     1      -0.849   6.528 -31.964  1.00  0.00     0.012 A 
HETATM   17 BR   UNL     1       0.294   6.958 -30.520  1.00  0.00    -0.051 Br
HETATM   18  C   UNL     1      -1.287   5.214 -32.128  1.00  0.00     0.034 A 
BRANCH  13  19
HETATM   19  O   UNL     1      -3.353   5.673 -35.159  1.00  0.00    -0.360 OA
HETATM   20  H   UNL     1      -2.994   6.165 -35.928  1.00  0.00     0.217 HD
ENDBRANCH  13  19
ENDBRANCH  11  12
ENDBRANCH   7  10
ENDBRANCH   5   6
BRANCH   1  21
HETATM   21  C   UNL     1      -5.674  -0.148 -33.761  1.00  0.00     0.296 C 
BRANCH  21  22
HETATM   22  N   UNL     1      -6.956  -0.040 -32.966  1.00  0.00    -0.066 N 
HETATM   23  C   UNL     1      -6.988   1.155 -32.049  1.00  0.00     0.235 C 
HETATM   24  C   UNL     1      -8.266   1.144 -31.222  1.00  0.00     0.032 C 
HETATM   25  C   UNL     1      -9.534   1.077 -32.080  1.00  0.00    -0.016 C 
HETATM   26  C   UNL     1      -9.800   2.399 -32.804  1.00  0.00     0.010 C 
HETATM   27  C   UNL     1      -9.440  -0.102 -33.055  1.00  0.00     0.032 C 
HETATM   28  C   UNL     1      -8.160  -0.098 -33.878  1.00  0.00     0.235 C 
HETATM   29  H   UNL     1      -6.999  -0.907 -32.391  1.00  0.00     0.280 HD
ENDBRANCH  21  22
ENDBRANCH   1  21
BRANCH   2  30
HETATM   30  C   UNL     1      -5.210  -3.285 -34.148  1.00  0.00     0.225 A 
HETATM   31  N   UNL     1      -6.254  -2.858 -34.861  1.00  0.00    -0.081 NA
HETATM   32  O   UNL     1      -6.623  -3.975 -35.615  1.00  0.00    -0.103 OA
HETATM   33  N   UNL     1      -5.781  -5.049 -35.362  1.00  0.00    -0.083 NA
HETATM   34  C   UNL     1      -4.904  -4.622 -34.457  1.00  0.00     0.201 A 
BRANCH  34  35
HETATM   35  N   UNL     1      -3.912  -5.369 -33.946  1.00  0.00    -0.379 N 
HETATM   36  H   UNL     1      -3.933  -5.644 -32.968  1.00  0.00     0.158 HD
HETATM   37  H   UNL     1      -3.224  -5.860 -34.512  1.00  0.00     0.158 HD
ENDBRANCH  34  35
ENDBRANCH   2  30
TORSDOF 8
ENDMDL
MODEL 3
REMARK VINA RESULT:      -8.5      5.129     10.071
REMARK  8 active torsions:
REMARK  status: ('A' for Active; 'I' for Inactive)
REMARK    1  A    between atoms: N_5  and  C_7 
REMARK    2  A    between atoms: C_7  and  C_8 
REMARK    3  A    between atoms: N_9  and  C_10 
REMARK    4  A    between atoms: C_14  and  N_15 
REMARK    5  A    between atoms: C_18  and  C_19 
REMARK       I    between atoms: C_19  and  N_20 
REMARK    6  A    between atoms: N_20  and  N_21 
REMARK    7  A    between atoms: C_22  and  C_23 
REMARK    8  A    between atoms: C_24  and  O_25 
ROOT
HETATM    1  C   UNL     1      -1.186   6.071 -30.067  1.00  0.00     0.096 A 
HETATM    2  N   UNL     1       0.019   6.151 -29.367  1.00  0.00    -0.215 N 
HETATM    3  N   UNL     1       0.904   5.287 -29.939  1.00  0.00     0.012 NA
HETATM    4  N   UNL     1       0.296   4.594 -30.886  1.00  0.00    -0.152 NA
HETATM    5  C   UNL     1      -0.987   5.039 -30.974  1.00  0.00     0.170 A 
ENDROOT
BRANCH   5   6
HETATM    6  C   UNL     1      -1.976   4.490 -31.891  1.00  0.00     0.293 C 
HETATM    7  N   UNL     1      -2.747   3.484 -31.342  1.00  0.00    -0.242 N 
HETATM    8  H   UNL     1      -2.595   3.199 -30.376  1.00  0.00     0.192 HD
HETATM    9  O   UNL     1      -2.074   4.944 -33.031  1.00  0.00    -0.264 OA
BRANCH   7  10
HETATM   10  N   UNL     1      -3.683   2.850 -32.102  1.00  0.00    -0.183 NA
HETATM   11  C   UNL     1      -3.716   1.558 -31.982  1.00  0.00     0.153 C 
BRANCH  11  12
HETATM   12  C   UNL     1      -4.667   0.740 -32.763  1.00  0.00     0.017 A 
HETATM   13  C   UNL     1      -5.941   1.205 -33.115  1.00  0.00     0.077 A 
HETATM   14  C   UNL     1      -6.800   0.403 -33.861  1.00  0.00     0.039 A 
HETATM   15  C   UNL     1      -6.394  -0.871 -34.258  1.00  0.00     0.022 A 
HETATM   16  C   UNL     1      -5.127  -1.335 -33.905  1.00  0.00     0.012 A 
HETATM   17 BR   UNL     1      -4.580  -3.064 -34.442  1.00  0.00    -0.051 Br
HETATM   18  C   UNL     1      -4.258  -0.538 -33.160  1.00  0.00     0.034 A 
BRANCH  13  19
HETATM   19  O   UNL     1      -6.409   2.442 -32.765  1.00  0.00    -0.360 OA
HETATM   20  H   UNL     1      -6.024   2.674 -31.893  1.00  0.00     0.217 HD
ENDBRANCH  13  19
ENDBRANCH  11  12
ENDBRANCH   7  10
ENDBRANCH   5   6
BRANCH   1  21
HETATM   21  C   UNL     1      -2.363   6.957 -29.905  1.00  0.00     0.296 C 
BRANCH  21  22
HETATM   22  N   UNL     1      -3.479   6.367 -29.072  1.00  0.00    -0.066 N 
HETATM   23  C   UNL     1      -3.794   7.175 -27.841  1.00  0.00     0.235 C 
HETATM   24  C   UNL     1      -4.862   6.472 -27.014  1.00  0.00     0.032 C 
HETATM   25  C   UNL     1      -6.135   6.169 -27.812  1.00  0.00    -0.016 C 
HETATM   26  C   UNL     1      -6.939   7.439 -28.101  1.00  0.00     0.010 C 
HETATM   27  C   UNL     1      -5.776   5.413 -29.096  1.00  0.00     0.032 C 
HETATM   28  C   UNL     1      -4.703   6.110 -29.921  1.00  0.00     0.235 C 
HETATM   29  H   UNL     1      -3.140   5.427 -28.781  1.00  0.00     0.280 HD
ENDBRANCH  21  22
ENDBRANCH   1  21
BRANCH   2  30
HETATM   30  C   UNL     1       0.351   6.909 -28.220  1.00  0.00     0.225 A 
HETATM   31  N   UNL     1       1.069   8.027 -28.337  1.00  0.00    -0.081 NA
HETATM   32  O   UNL     1       1.165   8.503 -27.026  1.00  0.00    -0.103 OA
HETATM   33  N   UNL     1       0.484   7.676 -26.144  1.00  0.00    -0.083 NA
HETATM   34  C   UNL     1      -0.023   6.692 -26.882  1.00  0.00     0.201 A 
BRANCH  34  35
HETATM   35  N   UNL     1      -0.759   5.679 -26.397  1.00  0.00    -0.379 N 
HETATM   36  H   UNL     1      -0.508   5.245 -25.512  1.00  0.00     0.158 HD
HETATM   37  H   UNL     1      -1.682   5.430 -26.746  1.00  0.00     0.158 HD
ENDBRANCH  34  35
ENDBRANCH   2  30
TORSDOF 8
ENDMDL
MODEL 4
REMARK VINA RESULT:      -8.4      1.732      2.174
REMARK  8 active torsions:
REMARK  status: ('A' for Active; 'I' for Inactive)
REMARK    1  A    between atoms: N_5  and  C_7 
REMARK    2  A    between atoms: C_7  and  C_8 
REMARK    3  A    between atoms: N_9  and  C_10 
REMARK    4  A    between atoms: C_14  and  N_15 
REMARK    5  A    between atoms: C_18  and  C_19 
REMARK       I    between atoms: C_19  and  N_20 
REMARK    6  A    between atoms: N_20  and  N_21 
REMARK    7  A    between atoms: C_22  and  C_23 
REMARK    8  A    between atoms: C_24  and  O_25 
ROOT
HETATM    1  C   UNL     1      -9.755   2.782 -33.678  1.00  0.00     0.096 A 
HETATM    2  N   UNL     1     -10.944   3.176 -34.293  1.00  0.00    -0.215 N 
HETATM    3  N   UNL     1     -10.743   4.392 -34.873  1.00  0.00     0.012 NA
HETATM    4  N   UNL     1      -9.534   4.832 -34.571  1.00  0.00    -0.152 NA
HETATM    5  C   UNL     1      -8.914   3.876 -33.826  1.00  0.00     0.170 A 
ENDROOT
BRANCH   5   6
HETATM    6  C   UNL     1      -7.572   4.017 -33.280  1.00  0.00     0.293 C 
HETATM    7  N   UNL     1      -6.642   4.470 -34.195  1.00  0.00    -0.242 N 
HETATM    8  H   UNL     1      -6.930   4.675 -35.150  1.00  0.00     0.192 HD
HETATM    9  O   UNL     1      -7.362   3.759 -32.094  1.00  0.00    -0.264 OA
BRANCH   7  10
HETATM   10  N   UNL     1      -5.337   4.607 -33.831  1.00  0.00    -0.183 NA
HETATM   11  C   UNL     1      -4.979   5.804 -33.481  1.00  0.00     0.153 C 
BRANCH  11  12
HETATM   12  C   UNL     1      -3.588   6.104 -33.083  1.00  0.00     0.017 A 
HETATM   13  C   UNL     1      -2.515   5.996 -33.977  1.00  0.00     0.077 A 
HETATM   14  C   UNL     1      -1.221   6.298 -33.561  1.00  0.00     0.039 A 
HETATM   15  C   UNL     1      -0.989   6.709 -32.248  1.00  0.00     0.022 A 
HETATM   16  C   UNL     1      -2.058   6.813 -31.358  1.00  0.00     0.012 A 
HETATM   17 BR   UNL     1      -1.741   7.367 -29.577  1.00  0.00    -0.051 Br
HETATM   18  C   UNL     1      -3.358   6.515 -31.765  1.00  0.00     0.034 A 
BRANCH  13  19
HETATM   19  O   UNL     1      -2.662   5.602 -35.279  1.00  0.00    -0.360 OA
HETATM   20  H   UNL     1      -3.498   5.988 -35.618  1.00  0.00     0.217 HD
ENDBRANCH  13  19
ENDBRANCH  11  12
ENDBRANCH   7  10
ENDBRANCH   5   6
BRANCH   1  21
HETATM   21  C   UNL     1      -9.465   1.456 -33.083  1.00  0.00     0.296 C 
BRANCH  21  22
HETATM   22  N   UNL     1      -8.133   0.866 -33.490  1.00  0.00    -0.066 N 
HETATM   23  C   UNL     1      -7.587  -0.118 -32.489  1.00  0.00     0.235 C 
HETATM   24  C   UNL     1      -6.209  -0.597 -32.926  1.00  0.00     0.032 C 
HETATM   25  C   UNL     1      -6.201  -1.189 -34.339  1.00  0.00    -0.016 C 
HETATM   26  C   UNL     1      -6.889  -2.557 -34.385  1.00  0.00     0.010 C 
HETATM   27  C   UNL     1      -6.831  -0.198 -35.323  1.00  0.00     0.032 C 
HETATM   28  C   UNL     1      -8.206   0.288 -34.885  1.00  0.00     0.235 C 
HETATM   29  H   UNL     1      -7.481   1.675 -33.557  1.00  0.00     0.280 HD
ENDBRANCH  21  22
ENDBRANCH   1  21
BRANCH   2  30
HETATM   30  C   UNL     1     -12.206   2.537 -34.316  1.00  0.00     0.225 A 
HETATM   31  N   UNL     1     -12.610   1.884 -35.407  1.00  0.00    -0.081 NA
HETATM   32  O   UNL     1     -13.859   1.372 -35.048  1.00  0.00    -0.103 OA
HETATM   33  N   UNL     1     -14.178   1.704 -33.739  1.00  0.00    -0.083 NA
HETATM   34  C   UNL     1     -13.154   2.422 -33.284  1.00  0.00     0.201 A 
BRANCH  34  35
HETATM   35  N   UNL     1     -13.076   2.934 -32.045  1.00  0.00    -0.379 N 
HETATM   36  H   UNL     1     -12.557   3.794 -31.881  1.00  0.00     0.158 HD
HETATM   37  H   UNL     1     -13.667   2.639 -31.271  1.00  0.00     0.158 HD
ENDBRANCH  34  35
ENDBRANCH   2  30
TORSDOF 8
ENDMDL
MODEL 5
REMARK VINA RESULT:      -8.3      4.858      9.610
REMARK  8 active torsions:
REMARK  status: ('A' for Active; 'I' for Inactive)
REMARK    1  A    between atoms: N_5  and  C_7 
REMARK    2  A    between atoms: C_7  and  C_8 
REMARK    3  A    between atoms: N_9  and  C_10 
REMARK    4  A    between atoms: C_14  and  N_15 
REMARK    5  A    between atoms: C_18  and  C_19 
REMARK       I    between atoms: C_19  and  N_20 
REMARK    6  A    between atoms: N_20  and  N_21 
REMARK    7  A    between atoms: C_22  and  C_23 
REMARK    8  A    between atoms: C_24  and  O_25 
ROOT
HETATM    1  C   UNL     1      -2.063   5.942 -30.652  1.00  0.00     0.096 A 
HETATM    2  N   UNL     1      -0.960   6.367 -29.910  1.00  0.00    -0.215 N 
HETATM    3  N   UNL     1       0.143   5.713 -30.370  1.00  0.00     0.012 NA
HETATM    4  N   UNL     1      -0.217   4.827 -31.282  1.00  0.00    -0.152 NA
HETATM    5  C   UNL     1      -1.562   4.932 -31.461  1.00  0.00     0.170 A 
ENDROOT
BRANCH   5   6
HETATM    6  C   UNL     1      -2.327   4.092 -32.372  1.00  0.00     0.293 C 
HETATM    7  N   UNL     1      -3.002   3.061 -31.746  1.00  0.00    -0.242 N 
HETATM    8  H   UNL     1      -2.936   2.954 -30.735  1.00  0.00     0.192 HD
HETATM    9  O   UNL     1      -2.344   4.348 -33.575  1.00  0.00    -0.264 OA
BRANCH   7  10
HETATM   10  N   UNL     1      -3.723   2.172 -32.482  1.00  0.00    -0.183 NA
HETATM   11  C   UNL     1      -4.784   1.700 -31.903  1.00  0.00     0.153 C 
BRANCH  11  12
HETATM   12  C   UNL     1      -5.650   0.709 -32.575  1.00  0.00     0.017 A 
HETATM   13  C   UNL     1      -5.127  -0.350 -33.329  1.00  0.00     0.077 A 
HETATM   14  C   UNL     1      -5.980  -1.267 -33.938  1.00  0.00     0.039 A 
HETATM   15  C   UNL     1      -7.362  -1.131 -33.800  1.00  0.00     0.022 A 
HETATM   16  C   UNL     1      -7.882  -0.074 -33.052  1.00  0.00     0.012 A 
HETATM   17 BR   UNL     1      -9.754   0.110 -32.868  1.00  0.00    -0.051 Br
HETATM   18  C   UNL     1      -7.035   0.848 -32.436  1.00  0.00     0.034 A 
BRANCH  13  19
HETATM   19  O   UNL     1      -3.786  -0.551 -33.509  1.00  0.00    -0.360 OA
HETATM   20  H   UNL     1      -3.648  -1.503 -33.708  1.00  0.00     0.217 HD
ENDBRANCH  13  19
ENDBRANCH  11  12
ENDBRANCH   7  10
ENDBRANCH   5   6
BRANCH   1  21
HETATM   21  C   UNL     1      -3.429   6.517 -30.614  1.00  0.00     0.296 C 
BRANCH  21  22
HETATM   22  N   UNL     1      -4.373   5.823 -29.657  1.00  0.00    -0.066 N 
HETATM   23  C   UNL     1      -4.730   6.663 -28.459  1.00  0.00     0.235 C 
HETATM   24  C   UNL     1      -5.607   5.866 -27.505  1.00  0.00     0.032 C 
HETATM   25  C   UNL     1      -6.864   5.302 -28.175  1.00  0.00    -0.016 C 
HETATM   26  C   UNL     1      -7.886   6.401 -28.480  1.00  0.00     0.010 C 
HETATM   27  C   UNL     1      -6.476   4.515 -29.431  1.00  0.00     0.032 C 
HETATM   28  C   UNL     1      -5.593   5.308 -30.385  1.00  0.00     0.235 C 
HETATM   29  H   UNL     1      -3.863   4.974 -29.333  1.00  0.00     0.280 HD
ENDBRANCH  21  22
ENDBRANCH   1  21
BRANCH   2  30
HETATM   30  C   UNL     1      -0.896   7.262 -28.816  1.00  0.00     0.225 A 
HETATM   31  N   UNL     1      -1.103   8.567 -29.001  1.00  0.00    -0.081 NA
HETATM   32  O   UNL     1      -0.992   9.109 -27.718  1.00  0.00    -0.103 OA
HETATM   33  N   UNL     1      -0.743   8.120 -26.777  1.00  0.00    -0.083 NA
HETATM   34  C   UNL     1      -0.687   6.976 -27.455  1.00  0.00     0.201 A 
BRANCH  34  35
HETATM   35  N   UNL     1      -0.464   5.774 -26.901  1.00  0.00    -0.379 N 
HETATM   36  H   UNL     1      -1.245   5.210 -26.575  1.00  0.00     0.158 HD
HETATM   37  H   UNL     1       0.423   5.279 -26.957  1.00  0.00     0.158 HD
ENDBRANCH  34  35
ENDBRANCH   2  30
TORSDOF 8
ENDMDL
MODEL 6
REMARK VINA RESULT:      -7.9      3.698      8.358
REMARK  8 active torsions:
REMARK  status: ('A' for Active; 'I' for Inactive)
REMARK    1  A    between atoms: N_5  and  C_7 
REMARK    2  A    between atoms: C_7  and  C_8 
REMARK    3  A    between atoms: N_9  and  C_10 
REMARK    4  A    between atoms: C_14  and  N_15 
REMARK    5  A    between atoms: C_18  and  C_19 
REMARK       I    between atoms: C_19  and  N_20 
REMARK    6  A    between atoms: N_20  and  N_21 
REMARK    7  A    between atoms: C_22  and  C_23 
REMARK    8  A    between atoms: C_24  and  O_25 
ROOT
HETATM    1  C   UNL     1      -4.313   4.461 -32.472  1.00  0.00     0.096 A 
HETATM    2  N   UNL     1      -3.128   5.175 -32.664  1.00  0.00    -0.215 N 
HETATM    3  N   UNL     1      -3.179   5.766 -33.890  1.00  0.00     0.012 NA
HETATM    4  N   UNL     1      -4.275   5.381 -34.521  1.00  0.00    -0.152 NA
HETATM    5  C   UNL     1      -4.978   4.569 -33.685  1.00  0.00     0.170 A 
ENDROOT
BRANCH   5   6
HETATM    6  C   UNL     1      -6.233   3.925 -34.046  1.00  0.00     0.293 C 
HETATM    7  N   UNL     1      -7.346   4.717 -33.841  1.00  0.00    -0.242 N 
HETATM    8  H   UNL     1      -7.234   5.661 -33.474  1.00  0.00     0.192 HD
HETATM    9  O   UNL     1      -6.226   2.783 -34.505  1.00  0.00    -0.264 OA
BRANCH   7  10
HETATM   10  N   UNL     1      -8.589   4.225 -34.095  1.00  0.00    -0.183 NA
HETATM   11  C   UNL     1      -9.175   3.645 -33.092  1.00  0.00     0.153 C 
BRANCH  11  12
HETATM   12  C   UNL     1     -10.519   3.046 -33.229  1.00  0.00     0.017 A 
HETATM   13  C   UNL     1     -10.757   1.923 -34.033  1.00  0.00     0.077 A 
HETATM   14  C   UNL     1     -12.039   1.385 -34.124  1.00  0.00     0.039 A 
HETATM   15  C   UNL     1     -13.091   1.967 -33.416  1.00  0.00     0.022 A 
HETATM   16  C   UNL     1     -12.852   3.087 -32.620  1.00  0.00     0.012 A 
HETATM   17 BR   UNL     1     -14.281   3.875 -31.663  1.00  0.00    -0.051 Br
HETATM   18  C   UNL     1     -11.572   3.631 -32.519  1.00  0.00     0.034 A 
BRANCH  13  19
HETATM   19  O   UNL     1      -9.779   1.297 -34.755  1.00  0.00    -0.360 OA
HETATM   20  H   UNL     1      -8.929   1.417 -34.278  1.00  0.00     0.217 HD
ENDBRANCH  13  19
ENDBRANCH  11  12
ENDBRANCH   7  10
ENDBRANCH   5   6
BRANCH   1  21
HETATM   21  C   UNL     1      -4.761   3.815 -31.216  1.00  0.00     0.296 C 
BRANCH  21  22
HETATM   22  N   UNL     1      -4.600   2.311 -31.195  1.00  0.00    -0.066 N 
HETATM   23  C   UNL     1      -5.911   1.571 -31.224  1.00  0.00     0.235 C 
HETATM   24  C   UNL     1      -5.668   0.072 -31.111  1.00  0.00     0.032 C 
HETATM   25  C   UNL     1      -4.712  -0.462 -32.183  1.00  0.00    -0.016 C 
HETATM   26  C   UNL     1      -5.369  -0.491 -33.566  1.00  0.00     0.010 C 
HETATM   27  C   UNL     1      -3.417   0.357 -32.181  1.00  0.00     0.032 C 
HETATM   28  C   UNL     1      -3.658   1.857 -32.287  1.00  0.00     0.235 C 
HETATM   29  H   UNL     1      -4.112   2.098 -30.300  1.00  0.00     0.280 HD
ENDBRANCH  21  22
ENDBRANCH   1  21
BRANCH   2  30
HETATM   30  C   UNL     1      -1.990   5.280 -31.830  1.00  0.00     0.225 A 
HETATM   31  N   UNL     1      -1.461   4.188 -31.274  1.00  0.00    -0.081 NA
HETATM   32  O   UNL     1      -0.361   4.675 -30.563  1.00  0.00    -0.103 OA
HETATM   33  N   UNL     1      -0.231   6.048 -30.722  1.00  0.00    -0.083 NA
HETATM   34  C   UNL     1      -1.237   6.422 -31.508  1.00  0.00     0.201 A 
BRANCH  34  35
HETATM   35  N   UNL     1      -1.463   7.685 -31.904  1.00  0.00    -0.379 N 
HETATM   36  H   UNL     1      -1.060   8.027 -32.772  1.00  0.00     0.158 HD
HETATM   37  H   UNL     1      -2.180   8.285 -31.502  1.00  0.00     0.158 HD
ENDBRANCH  34  35
ENDBRANCH   2  30
TORSDOF 8
ENDMDL
MODEL 7
REMARK VINA RESULT:      -7.9      2.310      2.742
REMARK  8 active torsions:
REMARK  status: ('A' for Active; 'I' for Inactive)
REMARK    1  A    between atoms: N_5  and  C_7 
REMARK    2  A    between atoms: C_7  and  C_8 
REMARK    3  A    between atoms: N_9  and  C_10 
REMARK    4  A    between atoms: C_14  and  N_15 
REMARK    5  A    between atoms: C_18  and  C_19 
REMARK       I    between atoms: C_19  and  N_20 
REMARK    6  A    between atoms: N_20  and  N_21 
REMARK    7  A    between atoms: C_22  and  C_23 
REMARK    8  A    between atoms: C_24  and  O_25 
ROOT
HETATM    1  C   UNL     1      -9.076   3.143 -33.546  1.00  0.00     0.096 A 
HETATM    2  N   UNL     1     -10.239   3.513 -34.223  1.00  0.00    -0.215 N 
HETATM    3  N   UNL     1     -10.003   4.690 -34.868  1.00  0.00     0.012 NA
HETATM    4  N   UNL     1      -8.798   5.133 -34.552  1.00  0.00    -0.152 NA
HETATM    5  C   UNL     1      -8.216   4.216 -33.731  1.00  0.00     0.170 A 
ENDROOT
BRANCH   5   6
HETATM    6  C   UNL     1      -6.890   4.374 -33.151  1.00  0.00     0.293 C 
HETATM    7  N   UNL     1      -6.800   5.406 -32.237  1.00  0.00    -0.242 N 
HETATM    8  H   UNL     1      -7.623   5.968 -32.026  1.00  0.00     0.192 HD
HETATM    9  O   UNL     1      -5.983   3.607 -33.475  1.00  0.00    -0.264 OA
BRANCH   7  10
HETATM   10  N   UNL     1      -5.607   5.694 -31.648  1.00  0.00    -0.183 NA
HETATM   11  C   UNL     1      -5.100   6.850 -31.950  1.00  0.00     0.153 C 
BRANCH  11  12
HETATM   12  C   UNL     1      -3.800   7.285 -31.401  1.00  0.00     0.017 A 
HETATM   13  C   UNL     1      -3.525   8.627 -31.106  1.00  0.00     0.077 A 
HETATM   14  C   UNL     1      -2.288   8.991 -30.580  1.00  0.00     0.039 A 
HETATM   15  C   UNL     1      -1.316   8.018 -30.349  1.00  0.00     0.022 A 
HETATM   16  C   UNL     1      -1.589   6.683 -30.647  1.00  0.00     0.012 A 
HETATM   17 BR   UNL     1      -0.268   5.366 -30.335  1.00  0.00    -0.051 Br
HETATM   18  C   UNL     1      -2.826   6.308 -31.171  1.00  0.00     0.034 A 
BRANCH  13  19
HETATM   19  O   UNL     1      -4.426   9.637 -31.302  1.00  0.00    -0.360 OA
HETATM   20  H   UNL     1      -5.179   9.493 -30.689  1.00  0.00     0.217 HD
ENDBRANCH  13  19
ENDBRANCH  11  12
ENDBRANCH   7  10
ENDBRANCH   5   6
BRANCH   1  21
HETATM   21  C   UNL     1      -8.823   1.851 -32.864  1.00  0.00     0.296 C 
BRANCH  21  22
HETATM   22  N   UNL     1      -7.672   1.056 -33.438  1.00  0.00    -0.066 N 
HETATM   23  C   UNL     1      -7.114   0.039 -32.478  1.00  0.00     0.235 C 
HETATM   24  C   UNL     1      -5.908  -0.655 -33.095  1.00  0.00     0.032 C 
HETATM   25  C   UNL     1      -6.214  -1.294 -34.454  1.00  0.00    -0.016 C 
HETATM   26  C   UNL     1      -7.087  -2.544 -34.310  1.00  0.00     0.010 C 
HETATM   27  C   UNL     1      -6.850  -0.256 -35.385  1.00  0.00     0.032 C 
HETATM   28  C   UNL     1      -8.053   0.445 -34.768  1.00  0.00     0.235 C 
HETATM   29  H   UNL     1      -6.933   1.756 -33.655  1.00  0.00     0.280 HD
ENDBRANCH  21  22
ENDBRANCH   1  21
BRANCH   2  30
HETATM   30  C   UNL     1     -11.508   2.889 -34.249  1.00  0.00     0.225 A 
HETATM   31  N   UNL     1     -12.108   2.537 -33.111  1.00  0.00    -0.081 NA
HETATM   32  O   UNL     1     -13.325   1.991 -33.529  1.00  0.00    -0.103 OA
HETATM   33  N   UNL     1     -13.449   2.044 -34.910  1.00  0.00    -0.083 NA
HETATM   34  C   UNL     1     -12.326   2.602 -35.357  1.00  0.00     0.201 A 
BRANCH  34  35
HETATM   35  N   UNL     1     -12.055   2.835 -36.651  1.00  0.00    -0.379 N 
HETATM   36  H   UNL     1     -11.175   3.270 -36.917  1.00  0.00     0.158 HD
HETATM   37  H   UNL     1     -12.579   2.427 -37.422  1.00  0.00     0.158 HD
ENDBRANCH  34  35
ENDBRANCH   2  30
TORSDOF 8
ENDMDL
MODEL 8
REMARK VINA RESULT:      -7.8      4.222      7.177
REMARK  8 active torsions:
REMARK  status: ('A' for Active; 'I' for Inactive)
REMARK    1  A    between atoms: N_5  and  C_7 
REMARK    2  A    between atoms: C_7  and  C_8 
REMARK    3  A    between atoms: N_9  and  C_10 
REMARK    4  A    between atoms: C_14  and  N_15 
REMARK    5  A    between atoms: C_18  and  C_19 
REMARK       I    between atoms: C_19  and  N_20 
REMARK    6  A    between atoms: N_20  and  N_21 
REMARK    7  A    between atoms: C_22  and  C_23 
REMARK    8  A    between atoms: C_24  and  O_25 
ROOT
HETATM    1  C   UNL     1      -6.384   4.020 -30.922  1.00  0.00     0.096 A 
HETATM    2  N   UNL     1      -6.207   5.403 -30.858  1.00  0.00    -0.215 N 
HETATM    3  N   UNL     1      -4.901   5.681 -31.130  1.00  0.00     0.012 NA
HETATM    4  N   UNL     1      -4.227   4.551 -31.258  1.00  0.00    -0.152 NA
HETATM    5  C   UNL     1      -5.104   3.520 -31.117  1.00  0.00     0.170 A 
ENDROOT
BRANCH   5   6
HETATM    6  C   UNL     1      -4.721   2.116 -31.166  1.00  0.00     0.293 C 
HETATM    7  N   UNL     1      -4.155   1.734 -32.366  1.00  0.00    -0.242 N 
HETATM    8  H   UNL     1      -4.037   2.419 -33.111  1.00  0.00     0.192 HD
HETATM    9  O   UNL     1      -4.896   1.399 -30.181  1.00  0.00    -0.264 OA
BRANCH   7  10
HETATM   10  N   UNL     1      -3.789   0.437 -32.566  1.00  0.00    -0.183 NA
HETATM   11  C   UNL     1      -4.737  -0.354 -32.966  1.00  0.00     0.153 C 
BRANCH  11  12
HETATM   12  C   UNL     1      -4.488  -1.791 -33.202  1.00  0.00     0.017 A 
HETATM   13  C   UNL     1      -3.486  -2.497 -32.523  1.00  0.00     0.077 A 
HETATM   14  C   UNL     1      -3.294  -3.855 -32.769  1.00  0.00     0.039 A 
HETATM   15  C   UNL     1      -4.100  -4.515 -33.697  1.00  0.00     0.022 A 
HETATM   16  C   UNL     1      -5.095  -3.810 -34.374  1.00  0.00     0.012 A 
HETATM   17 BR   UNL     1      -6.184  -4.707 -35.634  1.00  0.00    -0.051 Br
HETATM   18  C   UNL     1      -5.297  -2.451 -34.133  1.00  0.00     0.034 A 
BRANCH  13  19
HETATM   19  O   UNL     1      -2.659  -1.921 -31.599  1.00  0.00    -0.360 OA
HETATM   20  H   UNL     1      -1.747  -2.239 -31.772  1.00  0.00     0.217 HD
ENDBRANCH  13  19
ENDBRANCH  11  12
ENDBRANCH   7  10
ENDBRANCH   5   6
BRANCH   1  21
HETATM   21  C   UNL     1      -7.674   3.291 -30.871  1.00  0.00     0.296 C 
BRANCH  21  22
HETATM   22  N   UNL     1      -7.966   2.452 -32.095  1.00  0.00    -0.066 N 
HETATM   23  C   UNL     1      -8.189   0.996 -31.779  1.00  0.00     0.235 C 
HETATM   24  C   UNL     1      -8.387   0.206 -33.064  1.00  0.00     0.032 C 
HETATM   25  C   UNL     1      -9.519   0.758 -33.938  1.00  0.00    -0.016 C 
HETATM   26  C   UNL     1     -10.896   0.466 -33.335  1.00  0.00     0.010 C 
HETATM   27  C   UNL     1      -9.306   2.256 -34.181  1.00  0.00     0.032 C 
HETATM   28  C   UNL     1      -9.100   3.047 -32.896  1.00  0.00     0.235 C 
HETATM   29  H   UNL     1      -7.122   2.539 -32.698  1.00  0.00     0.280 HD
ENDBRANCH  21  22
ENDBRANCH   1  21
BRANCH   2  30
HETATM   30  C   UNL     1      -7.131   6.419 -30.517  1.00  0.00     0.225 A 
HETATM   31  N   UNL     1      -7.631   6.487 -29.282  1.00  0.00    -0.081 NA
HETATM   32  O   UNL     1      -8.463   7.609 -29.319  1.00  0.00    -0.103 OA
HETATM   33  N   UNL     1      -8.433   8.213 -30.568  1.00  0.00    -0.083 NA
HETATM   34  C   UNL     1      -7.606   7.479 -31.309  1.00  0.00     0.201 A 
BRANCH  34  35
HETATM   35  N   UNL     1      -7.304   7.737 -32.592  1.00  0.00    -0.379 N 
HETATM   36  H   UNL     1      -7.607   8.607 -33.022  1.00  0.00     0.158 HD
HETATM   37  H   UNL     1      -6.615   7.214 -33.128  1.00  0.00     0.158 HD
ENDBRANCH  34  35
ENDBRANCH   2  30
TORSDOF 8
ENDMDL
MODEL 9
REMARK VINA RESULT:      -7.7      4.634      9.249
REMARK  8 active torsions:
REMARK  status: ('A' for Active; 'I' for Inactive)
REMARK    1  A    between atoms: N_5  and  C_7 
REMARK    2  A    between atoms: C_7  and  C_8 
REMARK    3  A    between atoms: N_9  and  C_10 
REMARK    4  A    between atoms: C_14  and  N_15 
REMARK    5  A    between atoms: C_18  and  C_19 
REMARK       I    between atoms: C_19  and  N_20 
REMARK    6  A    between atoms: N_20  and  N_21 
REMARK    7  A    between atoms: C_22  and  C_23 
REMARK    8  A    between atoms: C_24  and  O_25 
ROOT
HETATM    1  C   UNL     1      -4.477   6.723 -28.847  1.00  0.00     0.096 A 
HETATM    2  N   UNL     1      -3.821   7.183 -27.703  1.00  0.00    -0.215 N 
HETATM    3  N   UNL     1      -4.357   6.552 -26.621  1.00  0.00     0.012 NA
HETATM    4  N   UNL     1      -5.378   5.806 -27.004  1.00  0.00    -0.152 NA
HETATM    5  C   UNL     1      -5.486   5.906 -28.357  1.00  0.00     0.170 A 
ENDROOT
BRANCH   5   6
HETATM    6  C   UNL     1      -6.520   5.243 -29.140  1.00  0.00     0.293 C 
HETATM    7  N   UNL     1      -6.234   3.925 -29.440  1.00  0.00    -0.242 N 
HETATM    8  H   UNL     1      -5.364   3.509 -29.112  1.00  0.00     0.192 HD
HETATM    9  O   UNL     1      -7.541   5.856 -29.452  1.00  0.00    -0.264 OA
BRANCH   7  10
HETATM   10  N   UNL     1      -7.095   3.197 -30.204  1.00  0.00    -0.183 NA
HETATM   11  C   UNL     1      -6.605   2.106 -30.709  1.00  0.00     0.153 C 
BRANCH  11  12
HETATM   12  C   UNL     1      -7.419   1.229 -31.575  1.00  0.00     0.017 A 
HETATM   13  C   UNL     1      -8.817   1.183 -31.490  1.00  0.00     0.077 A 
HETATM   14  C   UNL     1      -9.545   0.349 -32.334  1.00  0.00     0.039 A 
HETATM   15  C   UNL     1      -8.882  -0.447 -33.269  1.00  0.00     0.022 A 
HETATM   16  C   UNL     1      -7.490  -0.403 -33.351  1.00  0.00     0.012 A 
HETATM   17 BR   UNL     1      -6.593  -1.485 -34.616  1.00  0.00    -0.051 Br
HETATM   18  C   UNL     1      -6.752   0.432 -32.511  1.00  0.00     0.034 A 
BRANCH  13  19
HETATM   19  O   UNL     1      -9.539   1.934 -30.602  1.00  0.00    -0.360 OA
HETATM   20  H   UNL     1     -10.409   2.129 -31.011  1.00  0.00     0.217 HD
ENDBRANCH  13  19
ENDBRANCH  11  12
ENDBRANCH   7  10
ENDBRANCH   5   6
BRANCH   1  21
HETATM   21  C   UNL     1      -4.102   7.003 -30.253  1.00  0.00     0.296 C 
BRANCH  21  22
HETATM   22  N   UNL     1      -3.450   5.841 -30.969  1.00  0.00    -0.066 N 
HETATM   23  C   UNL     1      -4.277   5.302 -32.106  1.00  0.00     0.235 C 
HETATM   24  C   UNL     1      -3.598   4.084 -32.715  1.00  0.00     0.032 C 
HETATM   25  C   UNL     1      -2.160   4.363 -33.166  1.00  0.00    -0.016 C 
HETATM   26  C   UNL     1      -2.119   5.238 -34.423  1.00  0.00     0.010 C 
HETATM   27  C   UNL     1      -1.363   4.980 -32.012  1.00  0.00     0.032 C 
HETATM   28  C   UNL     1      -2.044   6.195 -31.397  1.00  0.00     0.235 C 
HETATM   29  H   UNL     1      -3.343   5.097 -30.248  1.00  0.00     0.280 HD
ENDBRANCH  21  22
ENDBRANCH   1  21
BRANCH   2  30
HETATM   30  C   UNL     1      -2.815   8.168 -27.572  1.00  0.00     0.225 A 
HETATM   31  N   UNL     1      -3.130   9.403 -27.178  1.00  0.00    -0.081 NA
HETATM   32  O   UNL     1      -1.900  10.065 -27.138  1.00  0.00    -0.103 OA
HETATM   33  N   UNL     1      -0.862   9.213 -27.486  1.00  0.00    -0.083 NA
HETATM   34  C   UNL     1      -1.426   8.038 -27.752  1.00  0.00     0.201 A 
BRANCH  34  35
HETATM   35  N   UNL     1      -0.753   6.938 -28.127  1.00  0.00    -0.379 N 
HETATM   36  H   UNL     1      -0.126   6.476 -27.473  1.00  0.00     0.158 HD
HETATM   37  H   UNL     1      -0.968   6.400 -28.963  1.00  0.00     0.158 HD
ENDBRANCH  34  35
ENDBRANCH   2  30
TORSDOF 8
ENDMDL
MODEL 10
REMARK VINA RESULT:      -7.7      2.419      4.692
REMARK  8 active torsions:
REMARK  status: ('A' for Active; 'I' for Inactive)
REMARK    1  A    between atoms: N_5  and  C_7 
REMARK    2  A    between atoms: C_7  and  C_8 
REMARK    3  A    between atoms: N_9  and  C_10 
REMARK    4  A    between atoms: C_14  and  N_15 
REMARK    5  A    between atoms: C_18  and  C_19 
REMARK       I    between atoms: C_19  and  N_20 
REMARK    6  A    between atoms: N_20  and  N_21 
REMARK    7  A    between atoms: C_22  and  C_23 
REMARK    8  A    between atoms: C_24  and  O_25 
ROOT
HETATM    1  C   UNL     1      -9.454   3.075 -33.736  1.00  0.00     0.096 A 
HETATM    2  N   UNL     1      -9.990   1.847 -34.127  1.00  0.00    -0.215 N 
HETATM    3  N   UNL     1      -8.959   0.993 -34.385  1.00  0.00     0.012 NA
HETATM    4  N   UNL     1      -7.812   1.642 -34.282  1.00  0.00    -0.152 NA
HETATM    5  C   UNL     1      -8.086   2.921 -33.904  1.00  0.00     0.170 A 
ENDROOT
BRANCH   5   6
HETATM    6  C   UNL     1      -7.069   3.947 -33.718  1.00  0.00     0.293 C 
HETATM    7  N   UNL     1      -6.026   3.557 -32.902  1.00  0.00    -0.242 N 
HETATM    8  H   UNL     1      -6.021   2.621 -32.499  1.00  0.00     0.192 HD
HETATM    9  O   UNL     1      -7.184   5.033 -34.286  1.00  0.00    -0.264 OA
BRANCH   7  10
HETATM   10  N   UNL     1      -5.026   4.433 -32.607  1.00  0.00    -0.183 NA
HETATM   11  C   UNL     1      -3.873   4.161 -33.136  1.00  0.00     0.153 C 
BRANCH  11  12
HETATM   12  C   UNL     1      -2.692   5.013 -32.884  1.00  0.00     0.017 A 
HETATM   13  C   UNL     1      -2.350   6.082 -33.723  1.00  0.00     0.077 A 
HETATM   14  C   UNL     1      -1.234   6.866 -33.441  1.00  0.00     0.039 A 
HETATM   15  C   UNL     1      -0.450   6.586 -32.321  1.00  0.00     0.022 A 
HETATM   16  C   UNL     1      -0.790   5.519 -31.489  1.00  0.00     0.012 A 
HETATM   17 BR   UNL     1       0.274   5.139 -29.973  1.00  0.00    -0.051 Br
HETATM   18  C   UNL     1      -1.908   4.730 -31.761  1.00  0.00     0.034 A 
BRANCH  13  19
HETATM   19  O   UNL     1      -3.068   6.420 -34.837  1.00  0.00    -0.360 OA
HETATM   20  H   UNL     1      -3.678   7.149 -34.593  1.00  0.00     0.217 HD
ENDBRANCH  13  19
ENDBRANCH  11  12
ENDBRANCH   7  10
ENDBRANCH   5   6
BRANCH   1  21
HETATM   21  C   UNL     1     -10.204   4.233 -33.193  1.00  0.00     0.296 C 
BRANCH  21  22
HETATM   22  N   UNL     1     -10.929   5.053 -34.237  1.00  0.00    -0.066 N 
HETATM   23  C   UNL     1     -12.392   5.241 -33.936  1.00  0.00     0.235 C 
HETATM   24  C   UNL     1     -13.067   5.997 -35.071  1.00  0.00     0.032 C 
HETATM   25  C   UNL     1     -12.394   7.338 -35.382  1.00  0.00    -0.016 C 
HETATM   26  C   UNL     1     -12.667   8.376 -34.289  1.00  0.00     0.010 C 
HETATM   27  C   UNL     1     -10.893   7.127 -35.609  1.00  0.00     0.032 C 
HETATM   28  C   UNL     1     -10.217   6.365 -34.478  1.00  0.00     0.235 C 
HETATM   29  H   UNL     1     -10.834   4.517 -35.124  1.00  0.00     0.280 HD
ENDBRANCH  21  22
ENDBRANCH   1  21
BRANCH   2  30
HETATM   30  C   UNL     1     -11.340   1.467 -34.317  1.00  0.00     0.225 A 
HETATM   31  N   UNL     1     -11.950   0.684 -33.425  1.00  0.00    -0.081 NA
HETATM   32  O   UNL     1     -13.248   0.556 -33.926  1.00  0.00    -0.103 OA
HETATM   33  N   UNL     1     -13.406   1.282 -35.098  1.00  0.00    -0.083 NA
HETATM   34  C   UNL     1     -12.226   1.849 -35.339  1.00  0.00     0.201 A 
BRANCH  34  35
HETATM   35  N   UNL     1     -11.965   2.642 -36.390  1.00  0.00    -0.379 N 
HETATM   36  H   UNL     1     -11.988   2.263 -37.333  1.00  0.00     0.158 HD
HETATM   37  H   UNL     1     -11.936   3.658 -36.340  1.00  0.00     0.158 HD
ENDBRANCH  34  35
ENDBRANCH   2  30
TORSDOF 8
ENDMDL
