MODEL 1
REMARK VINA RESULT:      -9.1      0.000      0.000
REMARK  9 active torsions:
REMARK  status: ('A' for Active; 'I' for Inactive)
REMARK       I    between atoms: C_2  and  N_3 
REMARK    1  A    between atoms: N_3  and  C_4 
REMARK    2  A    between atoms: C_7  and  C_8 
REMARK    3  A    between atoms: C_8  and  N_9 
REMARK    4  A    between atoms: C_11  and  C_12 
REMARK       I    between atoms: C_12  and  N_13 
REMARK    5  A    between atoms: N_13  and  C_14 
REMARK    6  A    between atoms: C_16  and  S_17 
REMARK    7  A    between atoms: C_24  and  N_25 
REMARK    8  A    between atoms: C_28  and  C_29 
REMARK    9  A    between atoms: C_29  and  O_30 
ROOT
HETATM    1  N   UNL     1      -7.019   3.503 -32.550  1.00  0.00    -0.052 N 
HETATM    2  H   UNL     1      -7.381   2.709 -31.999  1.00  0.00     0.281 HD
HETATM    3  C   UNL     1      -8.130   4.569 -32.621  1.00  0.00     0.282 C 
HETATM    4  C   UNL     1      -7.350   5.814 -33.010  1.00  0.00     0.072 C 
HETATM    5  C   UNL     1      -6.039   5.694 -32.203  1.00  0.00     0.134 C 
HETATM    6  C   UNL     1      -5.894   4.206 -31.837  1.00  0.00     0.263 C 
ENDROOT
BRANCH   1   7
HETATM    7  C   UNL     1      -6.642   2.921 -33.906  1.00  0.00     0.274 C 
BRANCH   7   8
HETATM    8  C   UNL     1      -6.736   1.425 -33.990  1.00  0.00    -0.032 A 
HETATM    9  C   UNL     1      -7.475   0.816 -35.012  1.00  0.00     0.011 A 
HETATM   10  C   UNL     1      -7.454  -0.574 -35.171  1.00  0.00     0.030 A 
HETATM   11  C   UNL     1      -6.690  -1.379 -34.325  1.00  0.00     0.034 A 
HETATM   12  C   UNL     1      -5.989  -0.773 -33.276  1.00  0.00     0.030 A 
HETATM   13  C   UNL     1      -6.010   0.615 -33.108  1.00  0.00     0.011 A 
BRANCH  11  14
HETATM   14  N   UNL     1      -6.538  -2.770 -34.488  1.00  0.00    -0.328 N 
HETATM   15  C   UNL     1      -5.365  -3.459 -34.745  1.00  0.00     0.218 C 
HETATM   16  C   UNL     1      -5.547  -4.955 -34.692  1.00  0.00     0.117 C 
HETATM   17  O   UNL     1      -4.261  -2.968 -34.955  1.00  0.00    -0.274 OA
HETATM   18  H   UNL     1      -7.367  -3.332 -34.340  1.00  0.00     0.169 HD
ENDBRANCH  11  14
ENDBRANCH   7   8
ENDBRANCH   1   7
BRANCH   3  19
HETATM   19  C   UNL     1      -9.322   4.061 -33.448  1.00  0.00     0.253 C 
HETATM   20  N   UNL     1     -10.009   2.971 -32.970  1.00  0.00    -0.325 N 
HETATM   21  H   UNL     1      -9.567   2.351 -32.300  1.00  0.00     0.169 HD
HETATM   22  O   UNL     1      -9.620   4.728 -34.442  1.00  0.00    -0.271 OA
BRANCH  20  23
HETATM   23  C   UNL     1     -11.290   2.544 -33.409  1.00  0.00     0.036 A 
HETATM   24  C   UNL     1     -12.470   2.760 -32.683  1.00  0.00     0.048 A 
HETATM   25  C   UNL     1     -13.706   2.289 -33.145  1.00  0.00     0.002 A 
HETATM   26  C   UNL     1     -13.746   1.574 -34.346  1.00  0.00     0.018 A 
HETATM   27  C   UNL     1     -12.579   1.344 -35.074  1.00  0.00     0.004 A 
HETATM   28  C   UNL     1     -11.355   1.824 -34.606  1.00  0.00     0.029 A 
BRANCH  25  29
HETATM   29  S   UNL     1     -15.248   2.487 -32.259  1.00  0.00    -0.134 SA
HETATM   30  C   UNL     1     -15.277   4.258 -31.867  1.00  0.00     0.095 C 
ENDBRANCH  25  29
ENDBRANCH  20  23
ENDBRANCH   3  19
BRANCH   5  31
HETATM   31  N   UNL     1      -4.855   6.150 -32.896  1.00  0.00    -0.276 N 
HETATM   32  N   UNL     1      -4.626   5.740 -34.152  1.00  0.00     0.005 NA
HETATM   33  N   UNL     1      -3.364   6.024 -34.439  1.00  0.00    -0.152 NA
HETATM   34  C   UNL     1      -2.797   6.640 -33.347  1.00  0.00     0.166 A 
HETATM   35  C   UNL     1      -3.761   6.754 -32.362  1.00  0.00     0.147 A 
BRANCH  34  36
HETATM   36  C   UNL     1      -1.399   7.031 -33.249  1.00  0.00     0.314 C 
HETATM   37  O   UNL     1      -0.628   6.972 -34.200  1.00  0.00    -0.257 OA
BRANCH  36  38
HETATM   38  O   UNL     1      -1.075   7.513 -32.016  1.00  0.00    -0.321 OA
HETATM   39  C   UNL     1      -0.027   6.795 -31.363  1.00  0.00     0.213 C 
ENDBRANCH  36  38
ENDBRANCH  34  36
ENDBRANCH   5  31
TORSDOF 9
ENDMDL
MODEL 2
REMARK VINA RESULT:      -8.8      1.443      1.840
REMARK  9 active torsions:
REMARK  status: ('A' for Active; 'I' for Inactive)
REMARK       I    between atoms: C_2  and  N_3 
REMARK    1  A    between atoms: N_3  and  C_4 
REMARK    2  A    between atoms: C_7  and  C_8 
REMARK    3  A    between atoms: C_8  and  N_9 
REMARK    4  A    between atoms: C_11  and  C_12 
REMARK       I    between atoms: C_12  and  N_13 
REMARK    5  A    between atoms: N_13  and  C_14 
REMARK    6  A    between atoms: C_16  and  S_17 
REMARK    7  A    between atoms: C_24  and  N_25 
REMARK    8  A    between atoms: C_28  and  C_29 
REMARK    9  A    between atoms: C_29  and  O_30 
ROOT
HETATM    1  N   UNL     1      -6.447   3.335 -31.447  1.00  0.00    -0.052 N 
HETATM    2  H   UNL     1      -6.836   2.420 -31.172  1.00  0.00     0.281 HD
HETATM    3  C   UNL     1      -7.554   4.390 -31.257  1.00  0.00     0.282 C 
HETATM    4  C   UNL     1      -6.757   5.684 -31.226  1.00  0.00     0.072 C 
HETATM    5  C   UNL     1      -5.489   5.314 -30.427  1.00  0.00     0.134 C 
HETATM    6  C   UNL     1      -5.360   3.783 -30.505  1.00  0.00     0.263 C 
ENDROOT
BRANCH   1   7
HETATM    7  C   UNL     1      -6.002   3.170 -32.895  1.00  0.00     0.274 C 
BRANCH   7   8
HETATM    8  C   UNL     1      -6.077   1.763 -33.414  1.00  0.00    -0.032 A 
HETATM    9  C   UNL     1      -5.527   0.705 -32.679  1.00  0.00     0.011 A 
HETATM   10  C   UNL     1      -5.713  -0.618 -33.093  1.00  0.00     0.030 A 
HETATM   11  C   UNL     1      -6.456  -0.911 -34.237  1.00  0.00     0.034 A 
HETATM   12  C   UNL     1      -6.966   0.149 -34.996  1.00  0.00     0.030 A 
HETATM   13  C   UNL     1      -6.779   1.474 -34.590  1.00  0.00     0.011 A 
BRANCH  11  14
HETATM   14  N   UNL     1      -6.772  -2.219 -34.657  1.00  0.00    -0.328 N 
HETATM   15  C   UNL     1      -5.886  -3.231 -34.980  1.00  0.00     0.218 C 
HETATM   16  C   UNL     1      -6.576  -4.550 -35.227  1.00  0.00     0.117 C 
HETATM   17  O   UNL     1      -4.664  -3.142 -35.035  1.00  0.00    -0.274 OA
HETATM   18  H   UNL     1      -7.755  -2.462 -34.663  1.00  0.00     0.169 HD
ENDBRANCH  11  14
ENDBRANCH   7   8
ENDBRANCH   1   7
BRANCH   3  19
HETATM   19  C   UNL     1      -8.703   4.163 -32.254  1.00  0.00     0.253 C 
HETATM   20  N   UNL     1      -9.413   2.992 -32.149  1.00  0.00    -0.325 N 
HETATM   21  H   UNL     1      -9.006   2.197 -31.668  1.00  0.00     0.169 HD
HETATM   22  O   UNL     1      -8.949   5.095 -33.023  1.00  0.00    -0.271 OA
BRANCH  20  23
HETATM   23  C   UNL     1     -10.670   2.730 -32.755  1.00  0.00     0.036 A 
HETATM   24  C   UNL     1     -11.875   3.298 -32.317  1.00  0.00     0.048 A 
HETATM   25  C   UNL     1     -13.095   2.981 -32.930  1.00  0.00     0.002 A 
HETATM   26  C   UNL     1     -13.097   2.065 -33.986  1.00  0.00     0.018 A 
HETATM   27  C   UNL     1     -11.907   1.486 -34.427  1.00  0.00     0.004 A 
HETATM   28  C   UNL     1     -10.698   1.814 -33.811  1.00  0.00     0.029 A 
BRANCH  25  29
HETATM   29  S   UNL     1     -14.677   3.629 -32.405  1.00  0.00    -0.134 SA
HETATM   30  C   UNL     1     -15.658   2.134 -32.099  1.00  0.00     0.095 C 
ENDBRANCH  25  29
ENDBRANCH  20  23
ENDBRANCH   3  19
BRANCH   5  31
HETATM   31  N   UNL     1      -4.272   5.937 -30.897  1.00  0.00    -0.276 N 
HETATM   32  N   UNL     1      -3.949   7.165 -30.466  1.00  0.00     0.005 NA
HETATM   33  N   UNL     1      -2.996   7.629 -31.261  1.00  0.00    -0.152 NA
HETATM   34  C   UNL     1      -2.705   6.665 -32.199  1.00  0.00     0.166 A 
HETATM   35  C   UNL     1      -3.500   5.561 -31.951  1.00  0.00     0.147 A 
BRANCH  34  36
HETATM   36  C   UNL     1      -1.765   6.835 -33.297  1.00  0.00     0.314 C 
HETATM   37  O   UNL     1      -1.545   7.922 -33.817  1.00  0.00    -0.257 OA
BRANCH  36  38
HETATM   38  O   UNL     1      -1.131   5.673 -33.627  1.00  0.00    -0.321 OA
HETATM   39  C   UNL     1      -1.384   5.229 -34.961  1.00  0.00     0.213 C 
ENDBRANCH  36  38
ENDBRANCH  34  36
ENDBRANCH   5  31
TORSDOF 9
ENDMDL
MODEL 3
REMARK VINA RESULT:      -8.8      1.371      1.539
REMARK  9 active torsions:
REMARK  status: ('A' for Active; 'I' for Inactive)
REMARK       I    between atoms: C_2  and  N_3 
REMARK    1  A    between atoms: N_3  and  C_4 
REMARK    2  A    between atoms: C_7  and  C_8 
REMARK    3  A    between atoms: C_8  and  N_9 
REMARK    4  A    between atoms: C_11  and  C_12 
REMARK       I    between atoms: C_12  and  N_13 
REMARK    5  A    between atoms: N_13  and  C_14 
REMARK    6  A    between atoms: C_16  and  S_17 
REMARK    7  A    between atoms: C_24  and  N_25 
REMARK    8  A    between atoms: C_28  and  C_29 
REMARK    9  A    between atoms: C_29  and  O_30 
ROOT
HETATM    1  N   UNL     1      -6.515   2.872 -31.443  1.00  0.00    -0.052 N 
HETATM    2  H   UNL     1      -6.602   1.929 -31.034  1.00  0.00     0.281 HD
HETATM    3  C   UNL     1      -7.690   3.721 -30.919  1.00  0.00     0.282 C 
HETATM    4  C   UNL     1      -7.200   5.136 -31.184  1.00  0.00     0.072 C 
HETATM    5  C   UNL     1      -5.696   5.074 -30.845  1.00  0.00     0.134 C 
HETATM    6  C   UNL     1      -5.296   3.590 -30.927  1.00  0.00     0.263 C 
ENDROOT
BRANCH   1   7
HETATM    7  C   UNL     1      -6.537   2.665 -32.952  1.00  0.00     0.274 C 
BRANCH   7   8
HETATM    8  C   UNL     1      -6.735   1.240 -33.383  1.00  0.00    -0.032 A 
HETATM    9  C   UNL     1      -7.271   0.948 -34.644  1.00  0.00     0.011 A 
HETATM   10  C   UNL     1      -7.333  -0.373 -35.100  1.00  0.00     0.030 A 
HETATM   11  C   UNL     1      -6.853  -1.423 -34.315  1.00  0.00     0.034 A 
HETATM   12  C   UNL     1      -6.360  -1.134 -33.037  1.00  0.00     0.030 A 
HETATM   13  C   UNL     1      -6.301   0.184 -32.573  1.00  0.00     0.011 A 
BRANCH  11  14
HETATM   14  N   UNL     1      -6.785  -2.762 -34.748  1.00  0.00    -0.328 N 
HETATM   15  C   UNL     1      -5.644  -3.504 -35.000  1.00  0.00     0.218 C 
HETATM   16  C   UNL     1      -5.946  -4.954 -35.287  1.00  0.00     0.117 C 
HETATM   17  O   UNL     1      -4.488  -3.097 -34.967  1.00  0.00    -0.274 OA
HETATM   18  H   UNL     1      -7.668  -3.254 -34.823  1.00  0.00     0.169 HD
ENDBRANCH  11  14
ENDBRANCH   7   8
ENDBRANCH   1   7
BRANCH   3  19
HETATM   19  C   UNL     1      -9.028   3.203 -31.470  1.00  0.00     0.253 C 
HETATM   20  N   UNL     1      -9.736   4.035 -32.305  1.00  0.00    -0.325 N 
HETATM   21  H   UNL     1      -9.552   5.032 -32.297  1.00  0.00     0.169 HD
HETATM   22  O   UNL     1      -9.323   2.042 -31.181  1.00  0.00    -0.271 OA
BRANCH  20  23
HETATM   23  C   UNL     1     -10.814   3.643 -33.141  1.00  0.00     0.036 A 
HETATM   24  C   UNL     1     -12.027   3.135 -32.654  1.00  0.00     0.048 A 
HETATM   25  C   UNL     1     -13.049   2.731 -33.524  1.00  0.00     0.002 A 
HETATM   26  C   UNL     1     -12.833   2.825 -34.902  1.00  0.00     0.018 A 
HETATM   27  C   UNL     1     -11.628   3.320 -35.401  1.00  0.00     0.004 A 
HETATM   28  C   UNL     1     -10.621   3.724 -34.524  1.00  0.00     0.029 A 
BRANCH  25  29
HETATM   29  S   UNL     1     -14.606   2.035 -32.984  1.00  0.00    -0.134 SA
HETATM   30  C   UNL     1     -14.941   0.755 -34.225  1.00  0.00     0.095 C 
ENDBRANCH  25  29
ENDBRANCH  20  23
ENDBRANCH   3  19
BRANCH   5  31
HETATM   31  N   UNL     1      -4.846   5.864 -31.707  1.00  0.00    -0.276 N 
HETATM   32  N   UNL     1      -5.164   6.000 -33.003  1.00  0.00     0.005 NA
HETATM   33  N   UNL     1      -4.098   6.479 -33.627  1.00  0.00    -0.152 NA
HETATM   34  C   UNL     1      -3.098   6.663 -32.700  1.00  0.00     0.166 A 
HETATM   35  C   UNL     1      -3.583   6.299 -31.456  1.00  0.00     0.147 A 
BRANCH  34  36
HETATM   36  C   UNL     1      -1.746   7.100 -33.015  1.00  0.00     0.314 C 
HETATM   37  O   UNL     1      -1.514   8.126 -33.643  1.00  0.00    -0.257 OA
BRANCH  36  38
HETATM   38  O   UNL     1      -0.794   6.279 -32.488  1.00  0.00    -0.321 OA
HETATM   39  C   UNL     1       0.075   6.917 -31.549  1.00  0.00     0.213 C 
ENDBRANCH  36  38
ENDBRANCH  34  36
ENDBRANCH   5  31
TORSDOF 9
ENDMDL
MODEL 4
REMARK VINA RESULT:      -8.5      1.656      2.178
REMARK  9 active torsions:
REMARK  status: ('A' for Active; 'I' for Inactive)
REMARK       I    between atoms: C_2  and  N_3 
REMARK    1  A    between atoms: N_3  and  C_4 
REMARK    2  A    between atoms: C_7  and  C_8 
REMARK    3  A    between atoms: C_8  and  N_9 
REMARK    4  A    between atoms: C_11  and  C_12 
REMARK       I    between atoms: C_12  and  N_13 
REMARK    5  A    between atoms: N_13  and  C_14 
REMARK    6  A    between atoms: C_16  and  S_17 
REMARK    7  A    between atoms: C_24  and  N_25 
REMARK    8  A    between atoms: C_28  and  C_29 
REMARK    9  A    between atoms: C_29  and  O_30 
ROOT
HETATM    1  N   UNL     1      -6.210   2.885 -31.367  1.00  0.00    -0.052 N 
HETATM    2  H   UNL     1      -6.737   2.068 -31.024  1.00  0.00     0.281 HD
HETATM    3  C   UNL     1      -6.970   4.151 -30.925  1.00  0.00     0.282 C 
HETATM    4  C   UNL     1      -5.900   5.223 -31.054  1.00  0.00     0.072 C 
HETATM    5  C   UNL     1      -4.617   4.523 -30.558  1.00  0.00     0.134 C 
HETATM    6  C   UNL     1      -4.875   3.011 -30.682  1.00  0.00     0.263 C 
ENDROOT
BRANCH   1   7
HETATM    7  C   UNL     1      -6.132   2.716 -32.878  1.00  0.00     0.274 C 
BRANCH   7   8
HETATM    8  C   UNL     1      -6.444   1.331 -33.367  1.00  0.00    -0.032 A 
HETATM    9  C   UNL     1      -6.904   1.125 -34.674  1.00  0.00     0.011 A 
HETATM   10  C   UNL     1      -7.067  -0.171 -35.174  1.00  0.00     0.030 A 
HETATM   11  C   UNL     1      -6.766  -1.283 -34.387  1.00  0.00     0.034 A 
HETATM   12  C   UNL     1      -6.351  -1.078 -33.065  1.00  0.00     0.030 A 
HETATM   13  C   UNL     1      -6.191   0.216 -32.558  1.00  0.00     0.011 A 
BRANCH  11  14
HETATM   14  N   UNL     1      -6.805  -2.612 -34.853  1.00  0.00    -0.328 N 
HETATM   15  C   UNL     1      -5.735  -3.475 -35.014  1.00  0.00     0.218 C 
HETATM   16  C   UNL     1      -6.167  -4.874 -35.376  1.00  0.00     0.117 C 
HETATM   17  O   UNL     1      -4.549  -3.205 -34.853  1.00  0.00    -0.274 OA
HETATM   18  H   UNL     1      -7.725  -2.997 -35.032  1.00  0.00     0.169 HD
ENDBRANCH  11  14
ENDBRANCH   7   8
ENDBRANCH   1   7
BRANCH   3  19
HETATM   19  C   UNL     1      -8.323   4.257 -31.647  1.00  0.00     0.253 C 
HETATM   20  N   UNL     1      -9.233   3.248 -31.443  1.00  0.00    -0.325 N 
HETATM   21  H   UNL     1      -8.917   2.345 -31.106  1.00  0.00     0.169 HD
HETATM   22  O   UNL     1      -8.516   5.289 -32.293  1.00  0.00    -0.271 OA
BRANCH  20  23
HETATM   23  C   UNL     1     -10.615   3.305 -31.763  1.00  0.00     0.036 A 
HETATM   24  C   UNL     1     -11.173   2.698 -32.898  1.00  0.00     0.048 A 
HETATM   25  C   UNL     1     -12.539   2.811 -33.187  1.00  0.00     0.002 A 
HETATM   26  C   UNL     1     -13.347   3.562 -32.328  1.00  0.00     0.018 A 
HETATM   27  C   UNL     1     -12.804   4.179 -31.200  1.00  0.00     0.004 A 
HETATM   28  C   UNL     1     -11.442   4.053 -30.921  1.00  0.00     0.029 A 
BRANCH  25  29
HETATM   29  S   UNL     1     -13.319   2.103 -34.633  1.00  0.00    -0.134 SA
HETATM   30  C   UNL     1     -14.699   1.154 -33.938  1.00  0.00     0.095 C 
ENDBRANCH  25  29
ENDBRANCH  20  23
ENDBRANCH   3  19
BRANCH   5  31
HETATM   31  N   UNL     1      -3.414   4.880 -31.277  1.00  0.00    -0.276 N 
HETATM   32  N   UNL     1      -2.467   3.953 -31.482  1.00  0.00     0.005 NA
HETATM   33  N   UNL     1      -1.366   4.584 -31.862  1.00  0.00    -0.152 NA
HETATM   34  C   UNL     1      -1.634   5.933 -31.912  1.00  0.00     0.166 A 
HETATM   35  C   UNL     1      -2.960   6.128 -31.568  1.00  0.00     0.147 A 
BRANCH  34  36
HETATM   36  C   UNL     1      -0.650   6.962 -32.212  1.00  0.00     0.314 C 
HETATM   37  O   UNL     1      -0.870   7.878 -32.996  1.00  0.00    -0.257 OA
BRANCH  36  38
HETATM   38  O   UNL     1       0.496   6.818 -31.488  1.00  0.00    -0.321 OA
HETATM   39  C   UNL     1       0.357   7.138 -30.103  1.00  0.00     0.213 C 
ENDBRANCH  36  38
ENDBRANCH  34  36
ENDBRANCH   5  31
TORSDOF 9
ENDMDL
MODEL 5
REMARK VINA RESULT:      -8.5      3.416      8.510
REMARK  9 active torsions:
REMARK  status: ('A' for Active; 'I' for Inactive)
REMARK       I    between atoms: C_2  and  N_3 
REMARK    1  A    between atoms: N_3  and  C_4 
REMARK    2  A    between atoms: C_7  and  C_8 
REMARK    3  A    between atoms: C_8  and  N_9 
REMARK    4  A    between atoms: C_11  and  C_12 
REMARK       I    between atoms: C_12  and  N_13 
REMARK    5  A    between atoms: N_13  and  C_14 
REMARK    6  A    between atoms: C_16  and  S_17 
REMARK    7  A    between atoms: C_24  and  N_25 
REMARK    8  A    between atoms: C_28  and  C_29 
REMARK    9  A    between atoms: C_29  and  O_30 
ROOT
HETATM    1  N   UNL     1      -9.217   2.992 -34.384  1.00  0.00    -0.052 N 
HETATM    2  H   UNL     1      -8.536   2.651 -35.078  1.00  0.00     0.281 HD
HETATM    3  C   UNL     1      -8.811   4.426 -33.993  1.00  0.00     0.282 C 
HETATM    4  C   UNL     1     -10.093   4.962 -33.378  1.00  0.00     0.072 C 
HETATM    5  C   UNL     1     -11.204   4.377 -34.276  1.00  0.00     0.134 C 
HETATM    6  C   UNL     1     -10.587   3.159 -34.987  1.00  0.00     0.263 C 
ENDROOT
BRANCH   1   7
HETATM    7  C   UNL     1      -9.152   2.002 -33.227  1.00  0.00     0.274 C 
BRANCH   7   8
HETATM    8  C   UNL     1      -8.217   0.848 -33.448  1.00  0.00    -0.032 A 
HETATM    9  C   UNL     1      -7.925   0.407 -34.744  1.00  0.00     0.011 A 
HETATM   10  C   UNL     1      -6.955  -0.577 -34.959  1.00  0.00     0.030 A 
HETATM   11  C   UNL     1      -6.251  -1.131 -33.889  1.00  0.00     0.034 A 
HETATM   12  C   UNL     1      -6.576  -0.724 -32.589  1.00  0.00     0.030 A 
HETATM   13  C   UNL     1      -7.549   0.256 -32.368  1.00  0.00     0.011 A 
BRANCH  11  14
HETATM   14  N   UNL     1      -5.191  -2.048 -34.034  1.00  0.00    -0.328 N 
HETATM   15  C   UNL     1      -5.273  -3.363 -34.455  1.00  0.00     0.218 C 
HETATM   16  C   UNL     1      -3.918  -3.996 -34.651  1.00  0.00     0.117 C 
HETATM   17  O   UNL     1      -6.300  -3.988 -34.701  1.00  0.00    -0.274 OA
HETATM   18  H   UNL     1      -4.259  -1.685 -33.870  1.00  0.00     0.169 HD
ENDBRANCH  11  14
ENDBRANCH   7   8
ENDBRANCH   1   7
BRANCH   3  19
HETATM   19  C   UNL     1      -7.477   4.428 -33.230  1.00  0.00     0.253 C 
HETATM   20  N   UNL     1      -6.363   3.975 -33.896  1.00  0.00    -0.325 N 
HETATM   21  H   UNL     1      -6.470   3.382 -34.712  1.00  0.00     0.169 HD
HETATM   22  O   UNL     1      -7.497   4.915 -32.097  1.00  0.00    -0.271 OA
BRANCH  20  23
HETATM   23  C   UNL     1      -5.018   4.174 -33.487  1.00  0.00     0.036 A 
HETATM   24  C   UNL     1      -4.251   5.287 -33.861  1.00  0.00     0.048 A 
HETATM   25  C   UNL     1      -2.915   5.420 -33.457  1.00  0.00     0.002 A 
HETATM   26  C   UNL     1      -2.344   4.407 -32.682  1.00  0.00     0.018 A 
HETATM   27  C   UNL     1      -3.093   3.290 -32.310  1.00  0.00     0.004 A 
HETATM   28  C   UNL     1      -4.423   3.172 -32.714  1.00  0.00     0.029 A 
BRANCH  25  29
HETATM   29  S   UNL     1      -1.860   6.787 -33.926  1.00  0.00    -0.134 SA
HETATM   30  C   UNL     1      -1.944   7.889 -32.488  1.00  0.00     0.095 C 
ENDBRANCH  25  29
ENDBRANCH  20  23
ENDBRANCH   3  19
BRANCH   5  31
HETATM   31  N   UNL     1     -12.407   3.983 -33.575  1.00  0.00    -0.276 N 
HETATM   32  N   UNL     1     -12.480   4.146 -32.246  1.00  0.00     0.005 NA
HETATM   33  N   UNL     1     -13.513   3.437 -31.814  1.00  0.00    -0.152 NA
HETATM   34  C   UNL     1     -14.108   2.832 -32.897  1.00  0.00     0.166 A 
HETATM   35  C   UNL     1     -13.420   3.205 -34.038  1.00  0.00     0.147 A 
BRANCH  34  36
HETATM   36  C   UNL     1     -15.227   1.905 -32.817  1.00  0.00     0.314 C 
HETATM   37  O   UNL     1     -15.432   1.042 -33.662  1.00  0.00    -0.257 OA
BRANCH  36  38
HETATM   38  O   UNL     1     -15.967   2.075 -31.684  1.00  0.00    -0.321 OA
HETATM   39  C   UNL     1     -17.241   2.682 -31.903  1.00  0.00     0.213 C 
ENDBRANCH  36  38
ENDBRANCH  34  36
ENDBRANCH   5  31
TORSDOF 9
ENDMDL
MODEL 6
REMARK VINA RESULT:      -8.3      3.585      8.799
REMARK  9 active torsions:
REMARK  status: ('A' for Active; 'I' for Inactive)
REMARK       I    between atoms: C_2  and  N_3 
REMARK    1  A    between atoms: N_3  and  C_4 
REMARK    2  A    between atoms: C_7  and  C_8 
REMARK    3  A    between atoms: C_8  and  N_9 
REMARK    4  A    between atoms: C_11  and  C_12 
REMARK       I    between atoms: C_12  and  N_13 
REMARK    5  A    between atoms: N_13  and  C_14 
REMARK    6  A    between atoms: C_16  and  S_17 
REMARK    7  A    between atoms: C_24  and  N_25 
REMARK    8  A    between atoms: C_28  and  C_29 
REMARK    9  A    between atoms: C_29  and  O_30 
ROOT
HETATM    1  N   UNL     1      -5.833   1.607 -31.306  1.00  0.00    -0.052 N 
HETATM    2  H   UNL     1      -6.483   2.072 -30.654  1.00  0.00     0.281 HD
HETATM    3  C   UNL     1      -4.400   2.019 -30.913  1.00  0.00     0.282 C 
HETATM    4  C   UNL     1      -3.565   0.945 -31.592  1.00  0.00     0.072 C 
HETATM    5  C   UNL     1      -4.395  -0.343 -31.399  1.00  0.00     0.134 C 
HETATM    6  C   UNL     1      -5.839   0.112 -31.123  1.00  0.00     0.263 C 
ENDROOT
BRANCH   1   7
HETATM    7  C   UNL     1      -6.243   2.076 -32.696  1.00  0.00     0.274 C 
BRANCH   7   8
HETATM    8  C   UNL     1      -7.704   1.911 -33.004  1.00  0.00    -0.032 A 
HETATM    9  C   UNL     1      -8.128   0.969 -33.949  1.00  0.00     0.011 A 
HETATM   10  C   UNL     1      -9.491   0.719 -34.140  1.00  0.00     0.030 A 
HETATM   11  C   UNL     1     -10.453   1.393 -33.386  1.00  0.00     0.034 A 
HETATM   12  C   UNL     1     -10.030   2.367 -32.474  1.00  0.00     0.030 A 
HETATM   13  C   UNL     1      -8.669   2.625 -32.283  1.00  0.00     0.011 A 
BRANCH  11  14
HETATM   14  N   UNL     1     -11.835   1.120 -33.448  1.00  0.00    -0.328 N 
HETATM   15  C   UNL     1     -12.667   1.261 -34.544  1.00  0.00     0.218 C 
HETATM   16  C   UNL     1     -14.053   0.719 -34.294  1.00  0.00     0.117 C 
HETATM   17  O   UNL     1     -12.362   1.725 -35.638  1.00  0.00    -0.274 OA
HETATM   18  H   UNL     1     -12.250   0.720 -32.615  1.00  0.00     0.169 HD
ENDBRANCH  11  14
ENDBRANCH   7   8
ENDBRANCH   1   7
BRANCH   3  19
HETATM   19  C   UNL     1      -4.171   3.516 -31.172  1.00  0.00     0.253 C 
HETATM   20  N   UNL     1      -2.882   3.931 -31.406  1.00  0.00    -0.325 N 
HETATM   21  H   UNL     1      -2.104   3.351 -31.108  1.00  0.00     0.169 HD
HETATM   22  O   UNL     1      -5.181   4.220 -31.229  1.00  0.00    -0.271 OA
BRANCH  20  23
HETATM   23  C   UNL     1      -2.503   5.185 -31.953  1.00  0.00     0.036 A 
HETATM   24  C   UNL     1      -2.628   6.400 -31.264  1.00  0.00     0.048 A 
HETATM   25  C   UNL     1      -2.270   7.616 -31.862  1.00  0.00     0.002 A 
HETATM   26  C   UNL     1      -1.800   7.604 -33.178  1.00  0.00     0.018 A 
HETATM   27  C   UNL     1      -1.679   6.404 -33.879  1.00  0.00     0.004 A 
HETATM   28  C   UNL     1      -2.033   5.199 -33.270  1.00  0.00     0.029 A 
BRANCH  25  29
HETATM   29  S   UNL     1      -2.438   9.210 -31.067  1.00  0.00    -0.134 SA
HETATM   30  C   UNL     1      -4.229   9.371 -30.833  1.00  0.00     0.095 C 
ENDBRANCH  25  29
ENDBRANCH  20  23
ENDBRANCH   3  19
BRANCH   5  31
HETATM   31  N   UNL     1      -4.369  -1.255 -32.520  1.00  0.00    -0.276 N 
HETATM   32  N   UNL     1      -5.193  -1.049 -33.558  1.00  0.00     0.005 NA
HETATM   33  N   UNL     1      -5.209  -2.160 -34.280  1.00  0.00    -0.152 NA
HETATM   34  C   UNL     1      -4.366  -3.074 -33.692  1.00  0.00     0.166 A 
HETATM   35  C   UNL     1      -3.796  -2.486 -32.576  1.00  0.00     0.147 A 
BRANCH  34  36
HETATM   36  C   UNL     1      -4.178  -4.443 -34.149  1.00  0.00     0.314 C 
HETATM   37  O   UNL     1      -3.070  -4.947 -34.286  1.00  0.00    -0.257 OA
BRANCH  36  38
HETATM   38  O   UNL     1      -5.359  -5.096 -34.344  1.00  0.00    -0.321 OA
HETATM   39  C   UNL     1      -6.071  -4.681 -35.511  1.00  0.00     0.213 C 
ENDBRANCH  36  38
ENDBRANCH  34  36
ENDBRANCH   5  31
TORSDOF 9
ENDMDL
MODEL 7
REMARK VINA RESULT:      -8.3      3.717      6.891
REMARK  9 active torsions:
REMARK  status: ('A' for Active; 'I' for Inactive)
REMARK       I    between atoms: C_2  and  N_3 
REMARK    1  A    between atoms: N_3  and  C_4 
REMARK    2  A    between atoms: C_7  and  C_8 
REMARK    3  A    between atoms: C_8  and  N_9 
REMARK    4  A    between atoms: C_11  and  C_12 
REMARK       I    between atoms: C_12  and  N_13 
REMARK    5  A    between atoms: N_13  and  C_14 
REMARK    6  A    between atoms: C_16  and  S_17 
REMARK    7  A    between atoms: C_24  and  N_25 
REMARK    8  A    between atoms: C_28  and  C_29 
REMARK    9  A    between atoms: C_29  and  O_30 
ROOT
HETATM    1  N   UNL     1      -6.373   3.369 -33.038  1.00  0.00    -0.052 N 
HETATM    2  H   UNL     1      -6.836   3.114 -33.924  1.00  0.00     0.281 HD
HETATM    3  C   UNL     1      -5.041   2.597 -32.965  1.00  0.00     0.282 C 
HETATM    4  C   UNL     1      -4.274   3.388 -31.919  1.00  0.00     0.072 C 
HETATM    5  C   UNL     1      -4.638   4.856 -32.227  1.00  0.00     0.134 C 
HETATM    6  C   UNL     1      -5.950   4.815 -33.031  1.00  0.00     0.263 C 
ENDROOT
BRANCH   1   7
HETATM    7  C   UNL     1      -7.358   2.994 -31.939  1.00  0.00     0.274 C 
BRANCH   7   8
HETATM    8  C   UNL     1      -8.704   2.549 -32.434  1.00  0.00    -0.032 A 
HETATM    9  C   UNL     1      -8.973   1.189 -32.636  1.00  0.00     0.011 A 
HETATM   10  C   UNL     1     -10.263   0.762 -32.967  1.00  0.00     0.030 A 
HETATM   11  C   UNL     1     -11.309   1.678 -33.093  1.00  0.00     0.034 A 
HETATM   12  C   UNL     1     -11.029   3.041 -32.937  1.00  0.00     0.030 A 
HETATM   13  C   UNL     1      -9.740   3.475 -32.610  1.00  0.00     0.011 A 
BRANCH  11  14
HETATM   14  N   UNL     1     -12.651   1.315 -33.321  1.00  0.00    -0.328 N 
HETATM   15  C   UNL     1     -13.317   1.289 -34.534  1.00  0.00     0.218 C 
HETATM   16  C   UNL     1     -14.697   0.690 -34.426  1.00  0.00     0.117 C 
HETATM   17  O   UNL     1     -12.875   1.657 -35.617  1.00  0.00    -0.274 OA
HETATM   18  H   UNL     1     -13.166   0.976 -32.517  1.00  0.00     0.169 HD
ENDBRANCH  11  14
ENDBRANCH   7   8
ENDBRANCH   1   7
BRANCH   3  19
HETATM   19  C   UNL     1      -5.292   1.087 -32.826  1.00  0.00     0.253 C 
HETATM   20  N   UNL     1      -5.752   0.414 -33.932  1.00  0.00    -0.325 N 
HETATM   21  H   UNL     1      -6.203   0.928 -34.682  1.00  0.00     0.169 HD
HETATM   22  O   UNL     1      -4.980   0.581 -31.746  1.00  0.00    -0.271 OA
BRANCH  20  23
HETATM   23  C   UNL     1      -5.757  -0.995 -34.099  1.00  0.00     0.036 A 
HETATM   24  C   UNL     1      -4.703  -1.827 -33.694  1.00  0.00     0.048 A 
HETATM   25  C   UNL     1      -4.742  -3.211 -33.912  1.00  0.00     0.002 A 
HETATM   26  C   UNL     1      -5.851  -3.757 -34.564  1.00  0.00     0.018 A 
HETATM   27  C   UNL     1      -6.903  -2.940 -34.980  1.00  0.00     0.004 A 
HETATM   28  C   UNL     1      -6.855  -1.564 -34.752  1.00  0.00     0.029 A 
BRANCH  25  29
HETATM   29  S   UNL     1      -3.422  -4.332 -33.464  1.00  0.00    -0.134 SA
HETATM   30  C   UNL     1      -2.915  -3.743 -31.825  1.00  0.00     0.095 C 
ENDBRANCH  25  29
ENDBRANCH  20  23
ENDBRANCH   3  19
BRANCH   5  31
HETATM   31  N   UNL     1      -4.799   5.699 -31.063  1.00  0.00    -0.276 N 
HETATM   32  N   UNL     1      -4.293   6.941 -31.072  1.00  0.00     0.005 NA
HETATM   33  N   UNL     1      -4.286   7.378 -29.822  1.00  0.00    -0.152 NA
HETATM   34  C   UNL     1      -4.814   6.396 -29.015  1.00  0.00     0.166 A 
HETATM   35  C   UNL     1      -5.176   5.325 -29.812  1.00  0.00     0.147 A 
BRANCH  34  36
HETATM   36  C   UNL     1      -4.899   6.472 -27.564  1.00  0.00     0.314 C 
HETATM   37  O   UNL     1      -5.690   5.800 -26.913  1.00  0.00    -0.257 OA
BRANCH  36  38
HETATM   38  O   UNL     1      -3.974   7.319 -27.029  1.00  0.00    -0.321 OA
HETATM   39  C   UNL     1      -4.517   8.283 -26.125  1.00  0.00     0.213 C 
ENDBRANCH  36  38
ENDBRANCH  34  36
ENDBRANCH   5  31
TORSDOF 9
ENDMDL
MODEL 8
REMARK VINA RESULT:      -8.2      3.334      7.871
REMARK  9 active torsions:
REMARK  status: ('A' for Active; 'I' for Inactive)
REMARK       I    between atoms: C_2  and  N_3 
REMARK    1  A    between atoms: N_3  and  C_4 
REMARK    2  A    between atoms: C_7  and  C_8 
REMARK    3  A    between atoms: C_8  and  N_9 
REMARK    4  A    between atoms: C_11  and  C_12 
REMARK       I    between atoms: C_12  and  N_13 
REMARK    5  A    between atoms: N_13  and  C_14 
REMARK    6  A    between atoms: C_16  and  S_17 
REMARK    7  A    between atoms: C_24  and  N_25 
REMARK    8  A    between atoms: C_28  and  C_29 
REMARK    9  A    between atoms: C_29  and  O_30 
ROOT
HETATM    1  N   UNL     1      -8.237   3.454 -31.885  1.00  0.00    -0.052 N 
HETATM    2  H   UNL     1      -7.791   3.432 -30.956  1.00  0.00     0.281 HD
HETATM    3  C   UNL     1      -9.049   2.154 -32.047  1.00  0.00     0.282 C 
HETATM    4  C   UNL     1      -9.996   2.512 -33.181  1.00  0.00     0.072 C 
HETATM    5  C   UNL     1     -10.381   3.978 -32.890  1.00  0.00     0.134 C 
HETATM    6  C   UNL     1      -9.278   4.540 -31.975  1.00  0.00     0.263 C 
ENDROOT
BRANCH   1   7
HETATM    7  C   UNL     1      -7.095   3.590 -32.884  1.00  0.00     0.274 C 
BRANCH   7   8
HETATM    8  C   UNL     1      -5.750   3.833 -32.262  1.00  0.00    -0.032 A 
HETATM    9  C   UNL     1      -4.776   2.827 -32.259  1.00  0.00     0.011 A 
HETATM   10  C   UNL     1      -3.481   3.093 -31.802  1.00  0.00     0.030 A 
HETATM   11  C   UNL     1      -3.130   4.366 -31.351  1.00  0.00     0.034 A 
HETATM   12  C   UNL     1      -4.117   5.359 -31.310  1.00  0.00     0.030 A 
HETATM   13  C   UNL     1      -5.415   5.097 -31.761  1.00  0.00     0.011 A 
BRANCH  11  14
HETATM   14  N   UNL     1      -1.824   4.737 -30.975  1.00  0.00    -0.328 N 
HETATM   15  C   UNL     1      -0.822   5.223 -31.797  1.00  0.00     0.218 C 
HETATM   16  C   UNL     1       0.394   5.672 -31.026  1.00  0.00     0.117 C 
HETATM   17  O   UNL     1      -0.873   5.342 -33.017  1.00  0.00    -0.274 OA
HETATM   18  H   UNL     1      -1.615   4.700 -29.984  1.00  0.00     0.169 HD
ENDBRANCH  11  14
ENDBRANCH   7   8
ENDBRANCH   1   7
BRANCH   3  19
HETATM   19  C   UNL     1      -8.118   0.933 -32.116  1.00  0.00     0.253 C 
HETATM   20  N   UNL     1      -7.903   0.366 -33.350  1.00  0.00    -0.325 N 
HETATM   21  H   UNL     1      -8.562   0.534 -34.103  1.00  0.00     0.169 HD
HETATM   22  O   UNL     1      -7.568   0.607 -31.062  1.00  0.00    -0.271 OA
BRANCH  20  23
HETATM   23  C   UNL     1      -6.869  -0.552 -33.668  1.00  0.00     0.036 A 
HETATM   24  C   UNL     1      -7.104  -1.847 -34.154  1.00  0.00     0.048 A 
HETATM   25  C   UNL     1      -6.047  -2.727 -34.423  1.00  0.00     0.002 A 
HETATM   26  C   UNL     1      -4.739  -2.300 -34.178  1.00  0.00     0.018 A 
HETATM   27  C   UNL     1      -4.491  -1.018 -33.687  1.00  0.00     0.004 A 
HETATM   28  C   UNL     1      -5.552  -0.149 -33.429  1.00  0.00     0.029 A 
BRANCH  25  29
HETATM   29  S   UNL     1      -6.266  -4.405 -35.004  1.00  0.00    -0.134 SA
HETATM   30  C   UNL     1      -4.776  -5.250 -34.404  1.00  0.00     0.095 C 
ENDBRANCH  25  29
ENDBRANCH  20  23
ENDBRANCH   3  19
BRANCH   5  31
HETATM   31  N   UNL     1     -10.523   4.812 -34.063  1.00  0.00    -0.276 N 
HETATM   32  N   UNL     1      -9.455   5.050 -34.837  1.00  0.00     0.005 NA
HETATM   33  N   UNL     1      -9.758   6.066 -35.633  1.00  0.00    -0.152 NA
HETATM   34  C   UNL     1     -11.049   6.460 -35.362  1.00  0.00     0.166 A 
HETATM   35  C   UNL     1     -11.558   5.636 -34.374  1.00  0.00     0.147 A 
BRANCH  34  36
HETATM   36  C   UNL     1     -11.713   7.599 -35.977  1.00  0.00     0.314 C 
HETATM   37  O   UNL     1     -12.896   7.580 -36.297  1.00  0.00    -0.257 OA
BRANCH  36  38
HETATM   38  O   UNL     1     -10.893   8.681 -36.098  1.00  0.00    -0.321 OA
HETATM   39  C   UNL     1     -10.828   9.500 -34.929  1.00  0.00     0.213 C 
ENDBRANCH  36  38
ENDBRANCH  34  36
ENDBRANCH   5  31
TORSDOF 9
ENDMDL
MODEL 9
REMARK VINA RESULT:      -8.1      3.590      8.582
REMARK  9 active torsions:
REMARK  status: ('A' for Active; 'I' for Inactive)
REMARK       I    between atoms: C_2  and  N_3 
REMARK    1  A    between atoms: N_3  and  C_4 
REMARK    2  A    between atoms: C_7  and  C_8 
REMARK    3  A    between atoms: C_8  and  N_9 
REMARK    4  A    between atoms: C_11  and  C_12 
REMARK       I    between atoms: C_12  and  N_13 
REMARK    5  A    between atoms: N_13  and  C_14 
REMARK    6  A    between atoms: C_16  and  S_17 
REMARK    7  A    between atoms: C_24  and  N_25 
REMARK    8  A    between atoms: C_28  and  C_29 
REMARK    9  A    between atoms: C_29  and  O_30 
ROOT
HETATM    1  N   UNL     1      -5.010   3.728 -33.065  1.00  0.00    -0.052 N 
HETATM    2  H   UNL     1      -4.078   3.564 -33.475  1.00  0.00     0.281 HD
HETATM    3  C   UNL     1      -5.116   5.228 -32.725  1.00  0.00     0.282 C 
HETATM    4  C   UNL     1      -6.618   5.419 -32.597  1.00  0.00     0.072 C 
HETATM    5  C   UNL     1      -7.198   4.539 -33.725  1.00  0.00     0.134 C 
HETATM    6  C   UNL     1      -6.107   3.512 -34.075  1.00  0.00     0.263 C 
ENDROOT
BRANCH   1   7
HETATM    7  C   UNL     1      -5.086   2.819 -31.845  1.00  0.00     0.274 C 
BRANCH   7   8
HETATM    8  C   UNL     1      -4.836   1.367 -32.133  1.00  0.00    -0.032 A 
HETATM    9  C   UNL     1      -5.901   0.460 -32.191  1.00  0.00     0.011 A 
HETATM   10  C   UNL     1      -5.686  -0.863 -32.591  1.00  0.00     0.030 A 
HETATM   11  C   UNL     1      -4.411  -1.303 -32.950  1.00  0.00     0.034 A 
HETATM   12  C   UNL     1      -3.339  -0.408 -32.847  1.00  0.00     0.030 A 
HETATM   13  C   UNL     1      -3.547   0.914 -32.443  1.00  0.00     0.011 A 
BRANCH  11  14
HETATM   14  N   UNL     1      -4.136  -2.587 -33.460  1.00  0.00    -0.328 N 
HETATM   15  C   UNL     1      -3.491  -3.625 -32.811  1.00  0.00     0.218 C 
HETATM   16  C   UNL     1      -3.518  -4.910 -33.601  1.00  0.00     0.117 C 
HETATM   17  O   UNL     1      -2.972  -3.582 -31.700  1.00  0.00    -0.274 OA
HETATM   18  H   UNL     1      -4.506  -2.792 -34.381  1.00  0.00     0.169 HD
ENDBRANCH  11  14
ENDBRANCH   7   8
ENDBRANCH   1   7
BRANCH   3  19
HETATM   19  C   UNL     1      -4.146   5.602 -31.593  1.00  0.00     0.253 C 
HETATM   20  N   UNL     1      -2.799   5.512 -31.854  1.00  0.00    -0.325 N 
HETATM   21  H   UNL     1      -2.472   4.934 -32.621  1.00  0.00     0.169 HD
HETATM   22  O   UNL     1      -4.657   6.033 -30.558  1.00  0.00    -0.271 OA
BRANCH  20  23
HETATM   23  C   UNL     1      -1.766   6.086 -31.069  1.00  0.00     0.036 A 
HETATM   24  C   UNL     1      -1.963   6.586 -29.773  1.00  0.00     0.048 A 
HETATM   25  C   UNL     1      -0.915   7.173 -29.051  1.00  0.00     0.002 A 
HETATM   26  C   UNL     1       0.342   7.274 -29.655  1.00  0.00     0.018 A 
HETATM   27  C   UNL     1       0.550   6.790 -30.946  1.00  0.00     0.004 A 
HETATM   28  C   UNL     1      -0.500   6.202 -31.652  1.00  0.00     0.029 A 
BRANCH  25  29
HETATM   29  S   UNL     1      -1.096   7.870 -27.413  1.00  0.00    -0.134 SA
HETATM   30  C   UNL     1      -0.786   9.637 -27.677  1.00  0.00     0.095 C 
ENDBRANCH  25  29
ENDBRANCH  20  23
ENDBRANCH   3  19
BRANCH   5  31
HETATM   31  N   UNL     1      -8.429   3.857 -33.391  1.00  0.00    -0.276 N 
HETATM   32  N   UNL     1      -9.010   4.087 -32.205  1.00  0.00     0.005 NA
HETATM   33  N   UNL     1      -9.913   3.136 -32.012  1.00  0.00    -0.152 NA
HETATM   34  C   UNL     1      -9.908   2.304 -33.107  1.00  0.00     0.166 A 
HETATM   35  C   UNL     1      -8.978   2.781 -34.014  1.00  0.00     0.147 A 
BRANCH  34  36
HETATM   36  C   UNL     1     -10.707   1.094 -33.232  1.00  0.00     0.314 C 
HETATM   37  O   UNL     1     -10.243  -0.025 -33.053  1.00  0.00    -0.257 OA
BRANCH  36  38
HETATM   38  O   UNL     1     -12.016   1.358 -33.510  1.00  0.00    -0.321 OA
HETATM   39  C   UNL     1     -12.300   1.511 -34.901  1.00  0.00     0.213 C 
ENDBRANCH  36  38
ENDBRANCH  34  36
ENDBRANCH   5  31
TORSDOF 9
ENDMDL
MODEL 10
REMARK VINA RESULT:      -8.0      2.159      6.366
REMARK  9 active torsions:
REMARK  status: ('A' for Active; 'I' for Inactive)
REMARK       I    between atoms: C_2  and  N_3 
REMARK    1  A    between atoms: N_3  and  C_4 
REMARK    2  A    between atoms: C_7  and  C_8 
REMARK    3  A    between atoms: C_8  and  N_9 
REMARK    4  A    between atoms: C_11  and  C_12 
REMARK       I    between atoms: C_12  and  N_13 
REMARK    5  A    between atoms: N_13  and  C_14 
REMARK    6  A    between atoms: C_16  and  S_17 
REMARK    7  A    between atoms: C_24  and  N_25 
REMARK    8  A    between atoms: C_28  and  C_29 
REMARK    9  A    between atoms: C_29  and  O_30 
ROOT
HETATM    1  N   UNL     1      -7.750   1.602 -34.323  1.00  0.00    -0.052 N 
HETATM    2  H   UNL     1      -8.053   2.516 -34.692  1.00  0.00     0.281 HD
HETATM    3  C   UNL     1      -8.963   0.652 -34.370  1.00  0.00     0.282 C 
HETATM    4  C   UNL     1      -8.300  -0.713 -34.272  1.00  0.00     0.072 C 
HETATM    5  C   UNL     1      -7.027  -0.566 -35.133  1.00  0.00     0.134 C 
HETATM    6  C   UNL     1      -6.744   0.944 -35.230  1.00  0.00     0.263 C 
ENDROOT
BRANCH   1   7
HETATM    7  C   UNL     1      -7.245   1.878 -32.912  1.00  0.00     0.274 C 
BRANCH   7   8
HETATM    8  C   UNL     1      -6.161   2.913 -32.830  1.00  0.00    -0.032 A 
HETATM    9  C   UNL     1      -4.920   2.599 -32.261  1.00  0.00     0.011 A 
HETATM   10  C   UNL     1      -3.866   3.518 -32.304  1.00  0.00     0.030 A 
HETATM   11  C   UNL     1      -4.025   4.758 -32.923  1.00  0.00     0.034 A 
HETATM   12  C   UNL     1      -5.278   5.089 -33.451  1.00  0.00     0.030 A 
HETATM   13  C   UNL     1      -6.338   4.177 -33.406  1.00  0.00     0.011 A 
BRANCH  11  14
HETATM   14  N   UNL     1      -2.982   5.690 -33.097  1.00  0.00    -0.328 N 
HETATM   15  C   UNL     1      -2.031   5.703 -34.102  1.00  0.00     0.218 C 
HETATM   16  C   UNL     1      -1.171   6.942 -34.071  1.00  0.00     0.117 C 
HETATM   17  O   UNL     1      -1.880   4.856 -34.976  1.00  0.00    -0.274 OA
HETATM   18  H   UNL     1      -2.966   6.470 -32.451  1.00  0.00     0.169 HD
ENDBRANCH  11  14
ENDBRANCH   7   8
ENDBRANCH   1   7
BRANCH   3  19
HETATM   19  C   UNL     1     -10.051   1.104 -33.383  1.00  0.00     0.253 C 
HETATM   20  N   UNL     1     -10.916   2.087 -33.798  1.00  0.00    -0.325 N 
HETATM   21  H   UNL     1     -10.657   2.695 -34.566  1.00  0.00     0.169 HD
HETATM   22  O   UNL     1     -10.110   0.485 -32.318  1.00  0.00    -0.271 OA
BRANCH  20  23
HETATM   23  C   UNL     1     -12.146   2.423 -33.172  1.00  0.00     0.036 A 
HETATM   24  C   UNL     1     -12.291   3.485 -32.268  1.00  0.00     0.048 A 
HETATM   25  C   UNL     1     -13.520   3.755 -31.652  1.00  0.00     0.002 A 
HETATM   26  C   UNL     1     -14.611   2.929 -31.940  1.00  0.00     0.018 A 
HETATM   27  C   UNL     1     -14.479   1.863 -32.831  1.00  0.00     0.004 A 
HETATM   28  C   UNL     1     -13.250   1.609 -33.442  1.00  0.00     0.029 A 
BRANCH  25  29
HETATM   29  S   UNL     1     -13.776   5.062 -30.458  1.00  0.00    -0.134 SA
HETATM   30  C   UNL     1     -15.358   5.788 -30.969  1.00  0.00     0.095 C 
ENDBRANCH  25  29
ENDBRANCH  20  23
ENDBRANCH   3  19
BRANCH   5  31
HETATM   31  N   UNL     1      -5.864  -1.255 -34.620  1.00  0.00    -0.276 N 
HETATM   32  N   UNL     1      -5.771  -2.586 -34.758  1.00  0.00     0.005 NA
HETATM   33  N   UNL     1      -4.807  -3.004 -33.950  1.00  0.00    -0.152 NA
HETATM   34  C   UNL     1      -4.276  -1.910 -33.306  1.00  0.00     0.166 A 
HETATM   35  C   UNL     1      -4.929  -0.778 -33.756  1.00  0.00     0.147 A 
BRANCH  34  36
HETATM   36  C   UNL     1      -3.248  -1.974 -32.278  1.00  0.00     0.314 C 
HETATM   37  O   UNL     1      -2.994  -3.001 -31.660  1.00  0.00    -0.257 OA
BRANCH  36  38
HETATM   38  O   UNL     1      -2.580  -0.794 -32.132  1.00  0.00    -0.321 OA
HETATM   39  C   UNL     1      -2.973  -0.037 -30.985  1.00  0.00     0.213 C 
ENDBRANCH  36  38
ENDBRANCH  34  36
ENDBRANCH   5  31
TORSDOF 9
ENDMDL
