MODEL 1
REMARK VINA RESULT:     -10.0      0.000      0.000
REMARK  7 active torsions:
REMARK  status: ('A' for Active; 'I' for Inactive)
REMARK    1  A    between atoms: C_9  and  C_10 
REMARK       I    between atoms: C_10  and  N_11 
REMARK    2  A    between atoms: N_11  and  C_12 
REMARK    3  A    between atoms: C_12  and  C_13 
REMARK    4  A    between atoms: C_12  and  C_22 
REMARK       I    between atoms: C_13  and  N_14 
REMARK    5  A    between atoms: N_14  and  C_15 
REMARK    6  A    between atoms: C_15  and  C_16 
REMARK    7  A    between atoms: C_22  and  C_23 
ROOT
HETATM    1  C   UNL     1      -7.640   0.405 -33.502  1.00  0.00     0.180 C 
ENDROOT
BRANCH   1   2
HETATM    2  N   UNL     1      -8.524   1.509 -33.937  1.00  0.00    -0.346 N 
HETATM    3  C   UNL     1      -9.801   1.664 -33.482  1.00  0.00     0.249 C 
HETATM    4  O   UNL     1     -10.356   0.843 -32.750  1.00  0.00    -0.271 OA
HETATM    5  H   UNL     1      -8.028   2.242 -34.442  1.00  0.00     0.163 HD
BRANCH   3   6
HETATM    6  C   UNL     1     -10.609   2.864 -34.022  1.00  0.00     0.281 C 
HETATM    7  N   UNL     1     -11.222   2.529 -35.373  1.00  0.00    -0.058 N 
HETATM    8  C   UNL     1     -12.325   1.527 -35.296  1.00  0.00     0.272 C 
HETATM    9  H   UNL     1     -11.560   3.379 -35.836  1.00  0.00     0.278 HD
HETATM   10  H   UNL     1     -10.477   2.117 -35.954  1.00  0.00     0.278 HD
HETATM   11  C   UNL     1     -13.319   1.823 -34.212  1.00  0.00    -0.026 A 
HETATM   12  C   UNL     1     -13.003   2.682 -33.145  1.00  0.00    -0.048 A 
HETATM   13  C   UNL     1     -14.569   1.184 -34.233  1.00  0.00     0.009 A 
HETATM   14  C   UNL     1     -13.952   2.913 -32.138  1.00  0.00     0.008 A 
HETATM   15  C   UNL     1     -11.693   3.428 -33.100  1.00  0.00     0.082 C 
HETATM   16  C   UNL     1     -15.193   2.280 -32.178  1.00  0.00     0.001 A 
HETATM   17  C   UNL     1     -15.501   1.416 -33.223  1.00  0.00     0.001 A 
ENDBRANCH   3   6
ENDBRANCH   1   2
BRANCH   1  18
HETATM   18  C   UNL     1      -7.060   0.882 -32.152  1.00  0.00     0.241 C 
HETATM   19  N   UNL     1      -6.369   2.060 -32.163  1.00  0.00    -0.353 N 
HETATM   20  H   UNL     1      -6.449   2.697 -32.949  1.00  0.00     0.162 HD
HETATM   21  O   UNL     1      -7.188   0.180 -31.143  1.00  0.00    -0.271 OA
BRANCH  19  22
HETATM   22  C   UNL     1      -5.719   2.600 -30.987  1.00  0.00     0.187 C 
BRANCH  22  23
HETATM   23  C   UNL     1      -4.459   3.277 -31.378  1.00  0.00     0.070 A 
HETATM   24  O   UNL     1      -4.275   4.553 -30.927  1.00  0.00    -0.325 OA
HETATM   25  C   UNL     1      -3.082   4.979 -31.417  1.00  0.00     0.142 A 
HETATM   26  C   UNL     1      -2.503   4.002 -32.191  1.00  0.00     0.027 A 
HETATM   27  C   UNL     1      -3.391   2.900 -32.167  1.00  0.00     0.036 A 
ENDBRANCH  22  23
ENDBRANCH  19  22
ENDBRANCH   1  18
BRANCH   1  28
HETATM   28  C   UNL     1      -6.563   0.136 -34.559  1.00  0.00     0.075 C 
BRANCH  28  29
HETATM   29  C   UNL     1      -5.526  -0.874 -34.168  1.00  0.00    -0.028 A 
HETATM   30  C   UNL     1      -5.589  -2.288 -34.398  1.00  0.00    -0.002 A 
HETATM   31  C   UNL     1      -4.441  -2.854 -33.842  1.00  0.00     0.042 A 
HETATM   32  C   UNL     1      -6.523  -3.144 -35.015  1.00  0.00     0.014 A 
HETATM   33  C   UNL     1      -4.182  -4.230 -33.871  1.00  0.00     0.030 A 
HETATM   34  N   UNL     1      -3.707  -1.830 -33.296  1.00  0.00    -0.365 N 
HETATM   35  C   UNL     1      -5.127  -5.055 -34.484  1.00  0.00     0.002 A 
HETATM   36  C   UNL     1      -6.283  -4.523 -35.049  1.00  0.00     0.001 A 
HETATM   37  H   UNL     1      -2.827  -1.954 -32.811  1.00  0.00     0.165 HD
HETATM   38  C   UNL     1      -4.355  -0.635 -33.474  1.00  0.00     0.096 A 
ENDBRANCH  28  29
ENDBRANCH   1  28
TORSDOF 7
ENDMDL
MODEL 2
REMARK VINA RESULT:     -10.0      2.156      6.320
REMARK  7 active torsions:
REMARK  status: ('A' for Active; 'I' for Inactive)
REMARK    1  A    between atoms: C_9  and  C_10 
REMARK       I    between atoms: C_10  and  N_11 
REMARK    2  A    between atoms: N_11  and  C_12 
REMARK    3  A    between atoms: C_12  and  C_13 
REMARK    4  A    between atoms: C_12  and  C_22 
REMARK       I    between atoms: C_13  and  N_14 
REMARK    5  A    between atoms: N_14  and  C_15 
REMARK    6  A    between atoms: C_15  and  C_16 
REMARK    7  A    between atoms: C_22  and  C_23 
ROOT
HETATM    1  C   UNL     1      -5.686   1.482 -32.841  1.00  0.00     0.180 C 
ENDROOT
BRANCH   1   2
HETATM    2  N   UNL     1      -7.014   1.229 -32.240  1.00  0.00    -0.346 N 
HETATM    3  C   UNL     1      -8.026   0.602 -32.907  1.00  0.00     0.249 C 
HETATM    4  O   UNL     1      -7.951   0.286 -34.095  1.00  0.00    -0.271 OA
HETATM    5  H   UNL     1      -7.033   1.383 -31.233  1.00  0.00     0.163 HD
BRANCH   3   6
HETATM    6  C   UNL     1      -9.361   0.406 -32.154  1.00  0.00     0.281 C 
HETATM    7  N   UNL     1      -9.628   1.580 -31.225  1.00  0.00    -0.058 N 
HETATM    8  C   UNL     1      -9.955   2.846 -31.943  1.00  0.00     0.272 C 
HETATM    9  H   UNL     1     -10.379   1.354 -30.565  1.00  0.00     0.278 HD
HETATM   10  H   UNL     1      -8.764   1.749 -30.689  1.00  0.00     0.278 HD
HETATM   11  C   UNL     1     -10.971   2.664 -33.032  1.00  0.00    -0.026 A 
HETATM   12  C   UNL     1     -11.240   1.396 -33.576  1.00  0.00    -0.048 A 
HETATM   13  C   UNL     1     -11.625   3.790 -33.557  1.00  0.00     0.009 A 
HETATM   14  C   UNL     1     -12.179   1.272 -34.610  1.00  0.00     0.008 A 
HETATM   15  C   UNL     1     -10.600   0.150 -33.017  1.00  0.00     0.082 C 
HETATM   16  C   UNL     1     -12.829   2.397 -35.114  1.00  0.00     0.001 A 
HETATM   17  C   UNL     1     -12.552   3.655 -34.589  1.00  0.00     0.001 A 
ENDBRANCH   3   6
ENDBRANCH   1   2
BRANCH   1  18
HETATM   18  C   UNL     1      -4.913   0.160 -32.642  1.00  0.00     0.241 C 
HETATM   19  N   UNL     1      -4.791  -0.650 -33.734  1.00  0.00    -0.353 N 
HETATM   20  H   UNL     1      -4.975  -0.290 -34.666  1.00  0.00     0.162 HD
HETATM   21  O   UNL     1      -4.488  -0.143 -31.521  1.00  0.00    -0.271 OA
BRANCH  19  22
HETATM   22  C   UNL     1      -4.146  -1.946 -33.684  1.00  0.00     0.187 C 
BRANCH  22  23
HETATM   23  C   UNL     1      -5.057  -2.981 -34.229  1.00  0.00     0.070 A 
HETATM   24  O   UNL     1      -4.568  -4.252 -34.320  1.00  0.00    -0.325 OA
HETATM   25  C   UNL     1      -5.551  -5.018 -34.859  1.00  0.00     0.142 A 
HETATM   26  C   UNL     1      -6.661  -4.255 -35.133  1.00  0.00     0.027 A 
HETATM   27  C   UNL     1      -6.344  -2.936 -34.726  1.00  0.00     0.036 A 
ENDBRANCH  22  23
ENDBRANCH  19  22
ENDBRANCH   1  18
BRANCH   1  28
HETATM   28  C   UNL     1      -5.014   2.682 -32.165  1.00  0.00     0.075 C 
BRANCH  28  29
HETATM   29  C   UNL     1      -4.540   3.756 -33.098  1.00  0.00    -0.028 A 
HETATM   30  C   UNL     1      -3.285   4.446 -33.031  1.00  0.00    -0.002 A 
HETATM   31  C   UNL     1      -3.269   5.387 -34.061  1.00  0.00     0.042 A 
HETATM   32  C   UNL     1      -2.164   4.369 -32.179  1.00  0.00     0.014 A 
HETATM   33  C   UNL     1      -2.191   6.253 -34.282  1.00  0.00     0.030 A 
HETATM   34  N   UNL     1      -4.463   5.277 -34.731  1.00  0.00    -0.365 N 
HETATM   35  C   UNL     1      -1.096   6.159 -33.420  1.00  0.00     0.002 A 
HETATM   36  C   UNL     1      -1.079   5.231 -32.382  1.00  0.00     0.001 A 
HETATM   37  H   UNL     1      -4.729   5.851 -35.520  1.00  0.00     0.165 HD
HETATM   38  C   UNL     1      -5.242   4.308 -34.153  1.00  0.00     0.096 A 
ENDBRANCH  28  29
ENDBRANCH   1  28
TORSDOF 7
ENDMDL
MODEL 3
REMARK VINA RESULT:      -9.9      2.189      3.159
REMARK  7 active torsions:
REMARK  status: ('A' for Active; 'I' for Inactive)
REMARK    1  A    between atoms: C_9  and  C_10 
REMARK       I    between atoms: C_10  and  N_11 
REMARK    2  A    between atoms: N_11  and  C_12 
REMARK    3  A    between atoms: C_12  and  C_13 
REMARK    4  A    between atoms: C_12  and  C_22 
REMARK       I    between atoms: C_13  and  N_14 
REMARK    5  A    between atoms: N_14  and  C_15 
REMARK    6  A    between atoms: C_15  and  C_16 
REMARK    7  A    between atoms: C_22  and  C_23 
ROOT
HETATM    1  C   UNL     1      -5.181   1.669 -31.913  1.00  0.00     0.180 C 
ENDROOT
BRANCH   1   2
HETATM    2  N   UNL     1      -6.553   1.280 -31.519  1.00  0.00    -0.346 N 
HETATM    3  C   UNL     1      -7.565   1.106 -32.418  1.00  0.00     0.249 C 
HETATM    4  O   UNL     1      -7.446   1.355 -33.618  1.00  0.00    -0.271 OA
HETATM    5  H   UNL     1      -6.617   0.963 -30.553  1.00  0.00     0.163 HD
BRANCH   3   6
HETATM    6  C   UNL     1      -8.949   0.699 -31.863  1.00  0.00     0.281 C 
HETATM    7  N   UNL     1      -9.471   1.758 -30.904  1.00  0.00    -0.058 N 
HETATM    8  C   UNL     1      -9.860   3.032 -31.575  1.00  0.00     0.272 C 
HETATM    9  H   UNL     1     -10.264   1.396 -30.365  1.00  0.00     0.278 HD
HETATM   10  H   UNL     1      -8.707   1.981 -30.248  1.00  0.00     0.278 HD
HETATM   11  C   UNL     1     -10.702   2.824 -32.799  1.00  0.00    -0.026 A 
HETATM   12  C   UNL     1     -10.745   1.580 -33.455  1.00  0.00    -0.048 A 
HETATM   13  C   UNL     1     -11.419   3.906 -33.332  1.00  0.00     0.009 A 
HETATM   14  C   UNL     1     -11.526   1.434 -34.610  1.00  0.00     0.008 A 
HETATM   15  C   UNL     1     -10.030   0.375 -32.897  1.00  0.00     0.082 C 
HETATM   16  C   UNL     1     -12.241   2.515 -35.122  1.00  0.00     0.001 A 
HETATM   17  C   UNL     1     -12.188   3.750 -34.484  1.00  0.00     0.001 A 
ENDBRANCH   3   6
ENDBRANCH   1   2
BRANCH   1  18
HETATM   18  C   UNL     1      -5.296   3.162 -32.291  1.00  0.00     0.241 C 
HETATM   19  N   UNL     1      -5.041   3.487 -33.593  1.00  0.00    -0.353 N 
HETATM   20  H   UNL     1      -5.027   2.768 -34.310  1.00  0.00     0.162 HD
HETATM   21  O   UNL     1      -5.552   4.001 -31.420  1.00  0.00    -0.271 OA
BRANCH  19  22
HETATM   22  C   UNL     1      -5.051   4.851 -34.079  1.00  0.00     0.187 C 
BRANCH  22  23
HETATM   23  C   UNL     1      -3.661   5.359 -34.176  1.00  0.00     0.070 A 
HETATM   24  O   UNL     1      -3.427   6.619 -33.707  1.00  0.00    -0.325 OA
HETATM   25  C   UNL     1      -2.111   6.882 -33.914  1.00  0.00     0.142 A 
HETATM   26  C   UNL     1      -1.498   5.815 -34.527  1.00  0.00     0.027 A 
HETATM   27  C   UNL     1      -2.499   4.828 -34.697  1.00  0.00     0.036 A 
ENDBRANCH  22  23
ENDBRANCH  19  22
ENDBRANCH   1  18
BRANCH   1  28
HETATM   28  C   UNL     1      -4.689   0.790 -33.069  1.00  0.00     0.075 C 
BRANCH  28  29
HETATM   29  C   UNL     1      -4.009  -0.481 -32.656  1.00  0.00    -0.028 A 
HETATM   30  C   UNL     1      -4.211  -1.778 -33.235  1.00  0.00    -0.002 A 
HETATM   31  C   UNL     1      -3.414  -2.679 -32.529  1.00  0.00     0.042 A 
HETATM   32  C   UNL     1      -5.010  -2.273 -34.286  1.00  0.00     0.014 A 
HETATM   33  C   UNL     1      -3.376  -4.049 -32.819  1.00  0.00     0.030 A 
HETATM   34  N   UNL     1      -2.752  -1.965 -31.560  1.00  0.00    -0.365 N 
HETATM   35  C   UNL     1      -4.182  -4.513 -33.862  1.00  0.00     0.002 A 
HETATM   36  C   UNL     1      -4.989  -3.641 -34.586  1.00  0.00     0.001 A 
HETATM   37  H   UNL     1      -2.113  -2.370 -30.889  1.00  0.00     0.165 HD
HETATM   38  C   UNL     1      -3.112  -0.643 -31.618  1.00  0.00     0.096 A 
ENDBRANCH  28  29
ENDBRANCH   1  28
TORSDOF 7
ENDMDL
MODEL 4
REMARK VINA RESULT:      -9.9      1.665      7.633
REMARK  7 active torsions:
REMARK  status: ('A' for Active; 'I' for Inactive)
REMARK    1  A    between atoms: C_9  and  C_10 
REMARK       I    between atoms: C_10  and  N_11 
REMARK    2  A    between atoms: N_11  and  C_12 
REMARK    3  A    between atoms: C_12  and  C_13 
REMARK    4  A    between atoms: C_12  and  C_22 
REMARK       I    between atoms: C_13  and  N_14 
REMARK    5  A    between atoms: N_14  and  C_15 
REMARK    6  A    between atoms: C_15  and  C_16 
REMARK    7  A    between atoms: C_22  and  C_23 
ROOT
HETATM    1  C   UNL     1      -7.642   1.598 -33.392  1.00  0.00     0.180 C 
ENDROOT
BRANCH   1   2
HETATM    2  N   UNL     1      -6.973   2.312 -32.283  1.00  0.00    -0.346 N 
HETATM    3  C   UNL     1      -6.091   3.334 -32.478  1.00  0.00     0.249 C 
HETATM    4  O   UNL     1      -5.704   3.680 -33.596  1.00  0.00    -0.271 OA
HETATM    5  H   UNL     1      -7.381   2.106 -31.372  1.00  0.00     0.163 HD
BRANCH   3   6
HETATM    6  C   UNL     1      -5.468   3.988 -31.225  1.00  0.00     0.281 C 
HETATM    7  N   UNL     1      -4.295   3.162 -30.720  1.00  0.00    -0.058 N 
HETATM    8  C   UNL     1      -3.104   3.206 -31.617  1.00  0.00     0.272 C 
HETATM    9  H   UNL     1      -4.026   3.457 -29.776  1.00  0.00     0.278 HD
HETATM   10  H   UNL     1      -4.607   2.181 -30.678  1.00  0.00     0.278 HD
HETATM   11  C   UNL     1      -2.748   4.594 -32.062  1.00  0.00    -0.026 A 
HETATM   12  C   UNL     1      -3.679   5.646 -31.989  1.00  0.00    -0.048 A 
HETATM   13  C   UNL     1      -1.480   4.835 -32.614  1.00  0.00     0.009 A 
HETATM   14  C   UNL     1      -3.315   6.924 -32.438  1.00  0.00     0.008 A 
HETATM   15  C   UNL     1      -5.036   5.450 -31.361  1.00  0.00     0.082 C 
HETATM   16  C   UNL     1      -2.049   7.151 -32.974  1.00  0.00     0.001 A 
HETATM   17  C   UNL     1      -1.133   6.108 -33.063  1.00  0.00     0.001 A 
ENDBRANCH   3   6
ENDBRANCH   1   2
BRANCH   1  18
HETATM   18  C   UNL     1      -9.060   2.209 -33.445  1.00  0.00     0.241 C 
HETATM   19  N   UNL     1      -9.785   1.981 -34.581  1.00  0.00    -0.353 N 
HETATM   20  H   UNL     1      -9.507   1.252 -35.231  1.00  0.00     0.162 HD
HETATM   21  O   UNL     1      -9.466   2.911 -32.512  1.00  0.00    -0.271 OA
BRANCH  19  22
HETATM   22  C   UNL     1     -11.103   2.539 -34.797  1.00  0.00     0.187 C 
BRANCH  22  23
HETATM   23  C   UNL     1     -12.137   1.540 -34.435  1.00  0.00     0.070 A 
HETATM   24  O   UNL     1     -13.375   1.701 -34.986  1.00  0.00    -0.325 OA
HETATM   25  C   UNL     1     -14.157   0.701 -34.506  1.00  0.00     0.142 A 
HETATM   26  C   UNL     1     -13.445  -0.092 -33.638  1.00  0.00     0.027 A 
HETATM   27  C   UNL     1     -12.137   0.448 -33.591  1.00  0.00     0.036 A 
ENDBRANCH  22  23
ENDBRANCH  19  22
ENDBRANCH   1  18
BRANCH   1  28
HETATM   28  C   UNL     1      -7.646   0.088 -33.131  1.00  0.00     0.075 C 
BRANCH  28  29
HETATM   29  C   UNL     1      -6.367  -0.619 -33.469  1.00  0.00    -0.028 A 
HETATM   30  C   UNL     1      -6.245  -1.947 -33.997  1.00  0.00    -0.002 A 
HETATM   31  C   UNL     1      -4.884  -2.222 -34.126  1.00  0.00     0.042 A 
HETATM   32  C   UNL     1      -7.167  -2.948 -34.365  1.00  0.00     0.014 A 
HETATM   33  C   UNL     1      -4.398  -3.446 -34.603  1.00  0.00     0.030 A 
HETATM   34  N   UNL     1      -4.201  -1.110 -33.696  1.00  0.00    -0.365 N 
HETATM   35  C   UNL     1      -5.333  -4.422 -34.955  1.00  0.00     0.002 A 
HETATM   36  C   UNL     1      -6.699  -4.180 -34.838  1.00  0.00     0.001 A 
HETATM   37  H   UNL     1      -3.193  -1.036 -33.666  1.00  0.00     0.165 HD
HETATM   38  C   UNL     1      -5.082  -0.144 -33.286  1.00  0.00     0.096 A 
ENDBRANCH  28  29
ENDBRANCH   1  28
TORSDOF 7
ENDMDL
MODEL 5
REMARK VINA RESULT:      -9.7      1.864      2.369
REMARK  7 active torsions:
REMARK  status: ('A' for Active; 'I' for Inactive)
REMARK    1  A    between atoms: C_9  and  C_10 
REMARK       I    between atoms: C_10  and  N_11 
REMARK    2  A    between atoms: N_11  and  C_12 
REMARK    3  A    between atoms: C_12  and  C_13 
REMARK    4  A    between atoms: C_12  and  C_22 
REMARK       I    between atoms: C_13  and  N_14 
REMARK    5  A    between atoms: N_14  and  C_15 
REMARK    6  A    between atoms: C_15  and  C_16 
REMARK    7  A    between atoms: C_22  and  C_23 
ROOT
HETATM    1  C   UNL     1      -7.830   0.570 -33.908  1.00  0.00     0.180 C 
ENDROOT
BRANCH   1   2
HETATM    2  N   UNL     1      -8.862   1.393 -34.575  1.00  0.00    -0.346 N 
HETATM    3  C   UNL     1     -10.073   1.671 -34.012  1.00  0.00     0.249 C 
HETATM    4  O   UNL     1     -10.446   1.177 -32.947  1.00  0.00    -0.271 OA
HETATM    5  H   UNL     1      -8.509   1.892 -35.392  1.00  0.00     0.163 HD
BRANCH   3   6
HETATM    6  C   UNL     1     -11.054   2.545 -34.825  1.00  0.00     0.281 C 
HETATM    7  N   UNL     1     -12.034   1.673 -35.595  1.00  0.00    -0.058 N 
HETATM    8  C   UNL     1     -13.021   0.971 -34.724  1.00  0.00     0.272 C 
HETATM    9  H   UNL     1     -12.529   2.225 -36.302  1.00  0.00     0.278 HD
HETATM   10  H   UNL     1     -11.483   0.947 -36.077  1.00  0.00     0.278 HD
HETATM   11  C   UNL     1     -13.651   1.870 -33.701  1.00  0.00    -0.026 A 
HETATM   12  C   UNL     1     -13.062   3.094 -33.341  1.00  0.00    -0.048 A 
HETATM   13  C   UNL     1     -14.823   1.453 -33.050  1.00  0.00     0.009 A 
HETATM   14  C   UNL     1     -13.670   3.893 -32.362  1.00  0.00     0.008 A 
HETATM   15  C   UNL     1     -11.830   3.609 -34.043  1.00  0.00     0.082 C 
HETATM   16  C   UNL     1     -14.839   3.472 -31.731  1.00  0.00     0.001 A 
HETATM   17  C   UNL     1     -15.415   2.253 -32.074  1.00  0.00     0.001 A 
ENDBRANCH   3   6
ENDBRANCH   1   2
BRANCH   1  18
HETATM   18  C   UNL     1      -7.215   1.507 -32.846  1.00  0.00     0.241 C 
HETATM   19  N   UNL     1      -7.612   1.314 -31.553  1.00  0.00    -0.353 N 
HETATM   20  H   UNL     1      -8.081   0.456 -31.281  1.00  0.00     0.162 HD
HETATM   21  O   UNL     1      -6.447   2.413 -33.191  1.00  0.00    -0.271 OA
BRANCH  19  22
HETATM   22  C   UNL     1      -7.167   2.154 -30.461  1.00  0.00     0.187 C 
BRANCH  22  23
HETATM   23  C   UNL     1      -8.085   3.308 -30.309  1.00  0.00     0.070 A 
HETATM   24  O   UNL     1      -7.555   4.461 -29.807  1.00  0.00    -0.325 OA
HETATM   25  C   UNL     1      -8.565   5.365 -29.734  1.00  0.00     0.142 A 
HETATM   26  C   UNL     1      -9.744   4.805 -30.166  1.00  0.00     0.027 A 
HETATM   27  C   UNL     1      -9.436   3.474 -30.539  1.00  0.00     0.036 A 
ENDBRANCH  22  23
ENDBRANCH  19  22
ENDBRANCH   1  18
BRANCH   1  28
HETATM   28  C   UNL     1      -6.807   0.064 -34.931  1.00  0.00     0.075 C 
BRANCH  28  29
HETATM   29  C   UNL     1      -5.746  -0.839 -34.376  1.00  0.00    -0.028 A 
HETATM   30  C   UNL     1      -5.681  -2.264 -34.524  1.00  0.00    -0.002 A 
HETATM   31  C   UNL     1      -4.560  -2.706 -33.821  1.00  0.00     0.042 A 
HETATM   32  C   UNL     1      -6.481  -3.223 -35.179  1.00  0.00     0.014 A 
HETATM   33  C   UNL     1      -4.199  -4.057 -33.740  1.00  0.00     0.030 A 
HETATM   34  N   UNL     1      -3.964  -1.599 -33.268  1.00  0.00    -0.365 N 
HETATM   35  C   UNL     1      -5.012  -4.986 -34.394  1.00  0.00     0.002 A 
HETATM   36  C   UNL     1      -6.138  -4.578 -35.103  1.00  0.00     0.001 A 
HETATM   37  H   UNL     1      -3.133  -1.627 -32.691  1.00  0.00     0.165 HD
HETATM   38  C   UNL     1      -4.675  -0.471 -33.584  1.00  0.00     0.096 A 
ENDBRANCH  28  29
ENDBRANCH   1  28
TORSDOF 7
ENDMDL
MODEL 6
REMARK VINA RESULT:      -9.7      2.237      8.084
REMARK  7 active torsions:
REMARK  status: ('A' for Active; 'I' for Inactive)
REMARK    1  A    between atoms: C_9  and  C_10 
REMARK       I    between atoms: C_10  and  N_11 
REMARK    2  A    between atoms: N_11  and  C_12 
REMARK    3  A    between atoms: C_12  and  C_13 
REMARK    4  A    between atoms: C_12  and  C_22 
REMARK       I    between atoms: C_13  and  N_14 
REMARK    5  A    between atoms: N_14  and  C_15 
REMARK    6  A    between atoms: C_15  and  C_16 
REMARK    7  A    between atoms: C_22  and  C_23 
ROOT
HETATM    1  C   UNL     1      -7.251   1.923 -32.970  1.00  0.00     0.180 C 
ENDROOT
BRANCH   1   2
HETATM    2  N   UNL     1      -6.765   3.320 -32.939  1.00  0.00    -0.346 N 
HETATM    3  C   UNL     1      -6.852   4.115 -31.833  1.00  0.00     0.249 C 
HETATM    4  O   UNL     1      -7.432   3.768 -30.803  1.00  0.00    -0.271 OA
HETATM    5  H   UNL     1      -6.187   3.560 -33.743  1.00  0.00     0.163 HD
BRANCH   3   6
HETATM    6  C   UNL     1      -6.303   5.554 -31.945  1.00  0.00     0.281 C 
HETATM    7  N   UNL     1      -5.336   5.847 -30.808  1.00  0.00    -0.058 N 
HETATM    8  C   UNL     1      -4.048   5.103 -30.914  1.00  0.00     0.272 C 
HETATM    9  H   UNL     1      -5.149   6.852 -30.744  1.00  0.00     0.278 HD
HETATM   10  H   UNL     1      -5.791   5.544 -29.934  1.00  0.00     0.278 HD
HETATM   11  C   UNL     1      -3.441   5.161 -32.285  1.00  0.00    -0.026 A 
HETATM   12  C   UNL     1      -4.210   5.505 -33.411  1.00  0.00    -0.048 A 
HETATM   13  C   UNL     1      -2.092   4.812 -32.454  1.00  0.00     0.009 A 
HETATM   14  C   UNL     1      -3.610   5.525 -34.679  1.00  0.00     0.008 A 
HETATM   15  C   UNL     1      -5.650   5.934 -33.276  1.00  0.00     0.082 C 
HETATM   16  C   UNL     1      -2.267   5.186 -34.831  1.00  0.00     0.001 A 
HETATM   17  C   UNL     1      -1.508   4.829 -33.720  1.00  0.00     0.001 A 
ENDBRANCH   3   6
ENDBRANCH   1   2
BRANCH   1  18
HETATM   18  C   UNL     1      -5.973   1.073 -33.143  1.00  0.00     0.241 C 
HETATM   19  N   UNL     1      -6.126  -0.155 -33.721  1.00  0.00    -0.353 N 
HETATM   20  H   UNL     1      -6.976  -0.383 -34.228  1.00  0.00     0.162 HD
HETATM   21  O   UNL     1      -4.891   1.491 -32.716  1.00  0.00    -0.271 OA
BRANCH  19  22
HETATM   22  C   UNL     1      -5.030  -1.085 -33.893  1.00  0.00     0.187 C 
BRANCH  22  23
HETATM   23  C   UNL     1      -5.558  -2.418 -34.271  1.00  0.00     0.070 A 
HETATM   24  O   UNL     1      -4.668  -3.452 -34.301  1.00  0.00    -0.325 OA
HETATM   25  C   UNL     1      -5.355  -4.557 -34.688  1.00  0.00     0.142 A 
HETATM   26  C   UNL     1      -6.673  -4.247 -34.925  1.00  0.00     0.027 A 
HETATM   27  C   UNL     1      -6.807  -2.863 -34.655  1.00  0.00     0.036 A 
ENDBRANCH  22  23
ENDBRANCH  19  22
ENDBRANCH   1  18
BRANCH   1  28
HETATM   28  C   UNL     1      -8.260   1.734 -34.108  1.00  0.00     0.075 C 
BRANCH  28  29
HETATM   29  C   UNL     1      -9.524   1.024 -33.726  1.00  0.00    -0.028 A 
HETATM   30  C   UNL     1     -10.852   1.370 -34.144  1.00  0.00    -0.002 A 
HETATM   31  C   UNL     1     -11.730   0.478 -33.528  1.00  0.00     0.042 A 
HETATM   32  C   UNL     1     -11.391   2.370 -34.980  1.00  0.00     0.014 A 
HETATM   33  C   UNL     1     -13.119   0.535 -33.705  1.00  0.00     0.030 A 
HETATM   34  N   UNL     1     -10.973  -0.378 -32.767  1.00  0.00    -0.365 N 
HETATM   35  C   UNL     1     -13.626   1.539 -34.533  1.00  0.00     0.002 A 
HETATM   36  C   UNL     1     -12.778   2.445 -35.162  1.00  0.00     0.001 A 
HETATM   37  H   UNL     1     -11.353  -1.123 -32.197  1.00  0.00     0.165 HD
HETATM   38  C   UNL     1      -9.645  -0.051 -32.867  1.00  0.00     0.096 A 
ENDBRANCH  28  29
ENDBRANCH   1  28
TORSDOF 7
ENDMDL
MODEL 7
REMARK VINA RESULT:      -9.5      2.941      7.934
REMARK  7 active torsions:
REMARK  status: ('A' for Active; 'I' for Inactive)
REMARK    1  A    between atoms: C_9  and  C_10 
REMARK       I    between atoms: C_10  and  N_11 
REMARK    2  A    between atoms: N_11  and  C_12 
REMARK    3  A    between atoms: C_12  and  C_13 
REMARK    4  A    between atoms: C_12  and  C_22 
REMARK       I    between atoms: C_13  and  N_14 
REMARK    5  A    between atoms: N_14  and  C_15 
REMARK    6  A    between atoms: C_15  and  C_16 
REMARK    7  A    between atoms: C_22  and  C_23 
ROOT
HETATM    1  C   UNL     1      -4.188   3.871 -32.544  1.00  0.00     0.180 C 
ENDROOT
BRANCH   1   2
HETATM    2  N   UNL     1      -4.460   2.531 -31.981  1.00  0.00    -0.346 N 
HETATM    3  C   UNL     1      -5.125   2.336 -30.806  1.00  0.00     0.249 C 
HETATM    4  O   UNL     1      -5.464   3.262 -30.067  1.00  0.00    -0.271 OA
HETATM    5  H   UNL     1      -4.286   1.776 -32.644  1.00  0.00     0.163 HD
BRANCH   3   6
HETATM    6  C   UNL     1      -5.337   0.879 -30.339  1.00  0.00     0.281 C 
HETATM    7  N   UNL     1      -6.819   0.585 -30.166  1.00  0.00    -0.058 N 
HETATM    8  C   UNL     1      -7.570   0.524 -31.454  1.00  0.00     0.272 C 
HETATM    9  H   UNL     1      -6.955  -0.288 -29.647  1.00  0.00     0.278 HD
HETATM   10  H   UNL     1      -7.223   1.357 -29.616  1.00  0.00     0.278 HD
HETATM   11  C   UNL     1      -6.884  -0.303 -32.501  1.00  0.00    -0.026 A 
HETATM   12  C   UNL     1      -5.515  -0.610 -32.410  1.00  0.00    -0.048 A 
HETATM   13  C   UNL     1      -7.611  -0.732 -33.623  1.00  0.00     0.009 A 
HETATM   14  C   UNL     1      -4.906  -1.366 -33.422  1.00  0.00     0.008 A 
HETATM   15  C   UNL     1      -4.701  -0.214 -31.203  1.00  0.00     0.082 C 
HETATM   16  C   UNL     1      -5.643  -1.794 -34.525  1.00  0.00     0.001 A 
HETATM   17  C   UNL     1      -6.993  -1.477 -34.626  1.00  0.00     0.001 A 
ENDBRANCH   3   6
ENDBRANCH   1   2
BRANCH   1  18
HETATM   18  C   UNL     1      -5.408   4.168 -33.444  1.00  0.00     0.241 C 
HETATM   19  N   UNL     1      -6.439   4.857 -32.872  1.00  0.00    -0.353 N 
HETATM   20  H   UNL     1      -6.304   5.356 -31.998  1.00  0.00     0.162 HD
HETATM   21  O   UNL     1      -5.439   3.739 -34.603  1.00  0.00    -0.271 OA
BRANCH  19  22
HETATM   22  C   UNL     1      -7.671   5.154 -33.574  1.00  0.00     0.187 C 
BRANCH  22  23
HETATM   23  C   UNL     1      -8.689   4.123 -33.258  1.00  0.00     0.070 A 
HETATM   24  O   UNL     1      -9.274   4.186 -32.027  1.00  0.00    -0.325 OA
HETATM   25  C   UNL     1     -10.144   3.147 -31.946  1.00  0.00     0.142 A 
HETATM   26  C   UNL     1     -10.116   2.405 -33.103  1.00  0.00     0.027 A 
HETATM   27  C   UNL     1      -9.175   3.035 -33.954  1.00  0.00     0.036 A 
ENDBRANCH  22  23
ENDBRANCH  19  22
ENDBRANCH   1  18
BRANCH   1  28
HETATM   28  C   UNL     1      -2.860   3.870 -33.309  1.00  0.00     0.075 C 
BRANCH  28  29
HETATM   29  C   UNL     1      -2.025   5.104 -33.136  1.00  0.00    -0.028 A 
HETATM   30  C   UNL     1      -1.179   5.407 -32.018  1.00  0.00    -0.002 A 
HETATM   31  C   UNL     1      -0.621   6.665 -32.244  1.00  0.00     0.042 A 
HETATM   32  C   UNL     1      -0.847   4.733 -30.825  1.00  0.00     0.014 A 
HETATM   33  C   UNL     1       0.251   7.283 -31.340  1.00  0.00     0.030 A 
HETATM   34  N   UNL     1      -1.104   7.113 -33.450  1.00  0.00    -0.365 N 
HETATM   35  C   UNL     1       0.559   6.596 -30.163  1.00  0.00     0.002 A 
HETATM   36  C   UNL     1       0.019   5.339 -29.906  1.00  0.00     0.001 A 
HETATM   37  H   UNL     1      -0.874   8.009 -33.859  1.00  0.00     0.165 HD
HETATM   38  C   UNL     1      -1.960   6.188 -33.990  1.00  0.00     0.096 A 
ENDBRANCH  28  29
ENDBRANCH   1  28
TORSDOF 7
ENDMDL
MODEL 8
REMARK VINA RESULT:      -9.5      2.009      7.059
REMARK  7 active torsions:
REMARK  status: ('A' for Active; 'I' for Inactive)
REMARK    1  A    between atoms: C_9  and  C_10 
REMARK       I    between atoms: C_10  and  N_11 
REMARK    2  A    between atoms: N_11  and  C_12 
REMARK    3  A    between atoms: C_12  and  C_13 
REMARK    4  A    between atoms: C_12  and  C_22 
REMARK       I    between atoms: C_13  and  N_14 
REMARK    5  A    between atoms: N_14  and  C_15 
REMARK    6  A    between atoms: C_15  and  C_16 
REMARK    7  A    between atoms: C_22  and  C_23 
ROOT
HETATM    1  C   UNL     1      -8.244   0.773 -33.644  1.00  0.00     0.180 C 
ENDROOT
BRANCH   1   2
HETATM    2  N   UNL     1      -7.918   2.151 -33.217  1.00  0.00    -0.346 N 
HETATM    3  C   UNL     1      -6.927   2.894 -33.789  1.00  0.00     0.249 C 
HETATM    4  O   UNL     1      -6.158   2.443 -34.640  1.00  0.00    -0.271 OA
HETATM    5  H   UNL     1      -8.623   2.556 -32.603  1.00  0.00     0.163 HD
BRANCH   3   6
HETATM    6  C   UNL     1      -6.697   4.319 -33.240  1.00  0.00     0.281 C 
HETATM    7  N   UNL     1      -6.193   4.264 -31.807  1.00  0.00    -0.058 N 
HETATM    8  C   UNL     1      -4.799   3.745 -31.684  1.00  0.00     0.272 C 
HETATM    9  H   UNL     1      -6.256   5.187 -31.367  1.00  0.00     0.278 HD
HETATM   10  H   UNL     1      -6.805   3.615 -31.291  1.00  0.00     0.278 HD
HETATM   11  C   UNL     1      -3.847   4.368 -32.661  1.00  0.00    -0.026 A 
HETATM   12  C   UNL     1      -4.309   5.027 -33.814  1.00  0.00    -0.048 A 
HETATM   13  C   UNL     1      -2.465   4.243 -32.448  1.00  0.00     0.009 A 
HETATM   14  C   UNL     1      -3.384   5.575 -34.715  1.00  0.00     0.008 A 
HETATM   15  C   UNL     1      -5.782   5.229 -34.065  1.00  0.00     0.082 C 
HETATM   16  C   UNL     1      -2.015   5.453 -34.486  1.00  0.00     0.001 A 
HETATM   17  C   UNL     1      -1.555   4.787 -33.354  1.00  0.00     0.001 A 
ENDBRANCH   3   6
ENDBRANCH   1   2
BRANCH   1  18
HETATM   18  C   UNL     1      -9.788   0.731 -33.668  1.00  0.00     0.241 C 
HETATM   19  N   UNL     1     -10.408   1.513 -34.600  1.00  0.00    -0.353 N 
HETATM   20  H   UNL     1      -9.885   1.895 -35.382  1.00  0.00     0.162 HD
HETATM   21  O   UNL     1     -10.400   0.055 -32.834  1.00  0.00    -0.271 OA
BRANCH  19  22
HETATM   22  C   UNL     1     -11.849   1.622 -34.701  1.00  0.00     0.187 C 
BRANCH  22  23
HETATM   23  C   UNL     1     -12.236   3.049 -34.816  1.00  0.00     0.070 A 
HETATM   24  O   UNL     1     -12.616   3.682 -33.668  1.00  0.00    -0.325 OA
HETATM   25  C   UNL     1     -12.945   4.955 -34.007  1.00  0.00     0.142 A 
HETATM   26  C   UNL     1     -12.800   5.146 -35.360  1.00  0.00     0.027 A 
HETATM   27  C   UNL     1     -12.341   3.914 -35.887  1.00  0.00     0.036 A 
ENDBRANCH  22  23
ENDBRANCH  19  22
ENDBRANCH   1  18
BRANCH   1  28
HETATM   28  C   UNL     1      -7.628  -0.246 -32.679  1.00  0.00     0.075 C 
BRANCH  28  29
HETATM   29  C   UNL     1      -6.351  -0.877 -33.149  1.00  0.00    -0.028 A 
HETATM   30  C   UNL     1      -6.228  -2.118 -33.856  1.00  0.00    -0.002 A 
HETATM   31  C   UNL     1      -4.868  -2.349 -34.063  1.00  0.00     0.042 A 
HETATM   32  C   UNL     1      -7.147  -3.077 -34.329  1.00  0.00     0.014 A 
HETATM   33  C   UNL     1      -4.381  -3.488 -34.716  1.00  0.00     0.030 A 
HETATM   34  N   UNL     1      -4.187  -1.293 -33.507  1.00  0.00    -0.365 N 
HETATM   35  C   UNL     1      -5.313  -4.424 -35.169  1.00  0.00     0.002 A 
HETATM   36  C   UNL     1      -6.677  -4.225 -34.979  1.00  0.00     0.001 A 
HETATM   37  H   UNL     1      -3.179  -1.205 -33.498  1.00  0.00     0.165 HD
HETATM   38  C   UNL     1      -5.068  -0.407 -32.942  1.00  0.00     0.096 A 
ENDBRANCH  28  29
ENDBRANCH   1  28
TORSDOF 7
ENDMDL
MODEL 9
REMARK VINA RESULT:      -9.3      3.883      8.048
REMARK  7 active torsions:
REMARK  status: ('A' for Active; 'I' for Inactive)
REMARK    1  A    between atoms: C_9  and  C_10 
REMARK       I    between atoms: C_10  and  N_11 
REMARK    2  A    between atoms: N_11  and  C_12 
REMARK    3  A    between atoms: C_12  and  C_13 
REMARK    4  A    between atoms: C_12  and  C_22 
REMARK       I    between atoms: C_13  and  N_14 
REMARK    5  A    between atoms: N_14  and  C_15 
REMARK    6  A    between atoms: C_15  and  C_16 
REMARK    7  A    between atoms: C_22  and  C_23 
ROOT
HETATM    1  C   UNL     1      -2.937   4.586 -31.690  1.00  0.00     0.180 C 
ENDROOT
BRANCH   1   2
HETATM    2  N   UNL     1      -3.052   3.215 -31.147  1.00  0.00    -0.346 N 
HETATM    3  C   UNL     1      -3.724   2.214 -31.786  1.00  0.00     0.249 C 
HETATM    4  O   UNL     1      -4.373   2.395 -32.818  1.00  0.00    -0.271 OA
HETATM    5  H   UNL     1      -2.422   3.041 -30.365  1.00  0.00     0.163 HD
BRANCH   3   6
HETATM    6  C   UNL     1      -3.762   0.830 -31.101  1.00  0.00     0.281 C 
HETATM    7  N   UNL     1      -5.101   0.612 -30.412  1.00  0.00    -0.058 N 
HETATM    8  C   UNL     1      -6.237   0.429 -31.361  1.00  0.00     0.272 C 
HETATM    9  H   UNL     1      -5.052  -0.188 -29.774  1.00  0.00     0.278 HD
HETATM   10  H   UNL     1      -5.301   1.458 -29.858  1.00  0.00     0.278 HD
HETATM   11  C   UNL     1      -5.936  -0.540 -32.466  1.00  0.00    -0.026 A 
HETATM   12  C   UNL     1      -4.613  -0.885 -32.796  1.00  0.00    -0.048 A 
HETATM   13  C   UNL     1      -6.993  -1.071 -33.222  1.00  0.00     0.009 A 
HETATM   14  C   UNL     1      -4.372  -1.775 -33.852  1.00  0.00     0.008 A 
HETATM   15  C   UNL     1      -3.445  -0.379 -31.985  1.00  0.00     0.082 C 
HETATM   16  C   UNL     1      -5.432  -2.303 -34.588  1.00  0.00     0.001 A 
HETATM   17  C   UNL     1      -6.741  -1.950 -34.274  1.00  0.00     0.001 A 
ENDBRANCH   3   6
ENDBRANCH   1   2
BRANCH   1  18
HETATM   18  C   UNL     1      -1.438   4.931 -31.556  1.00  0.00     0.241 C 
HETATM   19  N   UNL     1      -0.963   5.121 -30.289  1.00  0.00    -0.353 N 
HETATM   20  H   UNL     1      -1.500   4.809 -29.486  1.00  0.00     0.162 HD
HETATM   21  O   UNL     1      -0.743   5.074 -32.568  1.00  0.00    -0.271 OA
BRANCH  19  22
HETATM   22  C   UNL     1       0.404   5.508 -30.012  1.00  0.00     0.187 C 
BRANCH  22  23
HETATM   23  C   UNL     1       0.442   6.407 -28.833  1.00  0.00     0.070 A 
HETATM   24  O   UNL     1       0.022   5.887 -27.643  1.00  0.00    -0.325 OA
HETATM   25  C   UNL     1       0.119   6.878 -26.720  1.00  0.00     0.142 A 
HETATM   26  C   UNL     1       0.579   8.035 -27.302  1.00  0.00     0.027 A 
HETATM   27  C   UNL     1       0.789   7.733 -28.670  1.00  0.00     0.036 A 
ENDBRANCH  22  23
ENDBRANCH  19  22
ENDBRANCH   1  18
BRANCH   1  28
HETATM   28  C   UNL     1      -3.849   5.545 -30.917  1.00  0.00     0.075 C 
BRANCH  28  29
HETATM   29  C   UNL     1      -5.230   5.702 -31.478  1.00  0.00    -0.028 A 
HETATM   30  C   UNL     1      -6.397   4.970 -31.079  1.00  0.00    -0.002 A 
HETATM   31  C   UNL     1      -7.455   5.399 -31.881  1.00  0.00     0.042 A 
HETATM   32  C   UNL     1      -6.650   3.970 -30.118  1.00  0.00     0.014 A 
HETATM   33  C   UNL     1      -8.751   4.879 -31.771  1.00  0.00     0.030 A 
HETATM   34  N   UNL     1      -6.957   6.354 -32.734  1.00  0.00    -0.365 N 
HETATM   35  C   UNL     1      -8.972   3.886 -30.815  1.00  0.00     0.002 A 
HETATM   36  C   UNL     1      -7.939   3.435 -29.999  1.00  0.00     0.001 A 
HETATM   37  H   UNL     1      -7.504   6.829 -33.439  1.00  0.00     0.165 HD
HETATM   38  C   UNL     1      -5.617   6.535 -32.510  1.00  0.00     0.096 A 
ENDBRANCH  28  29
ENDBRANCH   1  28
TORSDOF 7
ENDMDL
MODEL 10
REMARK VINA RESULT:      -9.1      3.112      8.427
REMARK  7 active torsions:
REMARK  status: ('A' for Active; 'I' for Inactive)
REMARK    1  A    between atoms: C_9  and  C_10 
REMARK       I    between atoms: C_10  and  N_11 
REMARK    2  A    between atoms: N_11  and  C_12 
REMARK    3  A    between atoms: C_12  and  C_13 
REMARK    4  A    between atoms: C_12  and  C_22 
REMARK       I    between atoms: C_13  and  N_14 
REMARK    5  A    between atoms: N_14  and  C_15 
REMARK    6  A    between atoms: C_15  and  C_16 
REMARK    7  A    between atoms: C_22  and  C_23 
ROOT
HETATM    1  C   UNL     1      -3.964   3.065 -32.674  1.00  0.00     0.180 C 
ENDROOT
BRANCH   1   2
HETATM    2  N   UNL     1      -2.695   3.822 -32.597  1.00  0.00    -0.346 N 
HETATM    3  C   UNL     1      -2.306   4.724 -33.544  1.00  0.00     0.249 C 
HETATM    4  O   UNL     1      -2.931   4.909 -34.590  1.00  0.00    -0.271 OA
HETATM    5  H   UNL     1      -2.245   3.755 -31.685  1.00  0.00     0.163 HD
BRANCH   3   6
HETATM    6  C   UNL     1      -0.954   5.441 -33.333  1.00  0.00     0.281 C 
HETATM    7  N   UNL     1      -1.037   6.885 -33.803  1.00  0.00    -0.058 N 
HETATM    8  C   UNL     1      -1.890   7.747 -32.935  1.00  0.00     0.272 C 
HETATM    9  H   UNL     1      -0.100   7.293 -33.879  1.00  0.00     0.278 HD
HETATM   10  H   UNL     1      -1.466   6.878 -34.739  1.00  0.00     0.278 HD
HETATM   11  C   UNL     1      -1.607   7.579 -31.471  1.00  0.00    -0.026 A 
HETATM   12  C   UNL     1      -0.934   6.445 -30.982  1.00  0.00    -0.048 A 
HETATM   13  C   UNL     1      -2.071   8.546 -30.566  1.00  0.00     0.009 A 
HETATM   14  C   UNL     1      -0.711   6.314 -29.604  1.00  0.00     0.008 A 
HETATM   15  C   UNL     1      -0.375   5.401 -31.916  1.00  0.00     0.082 C 
HETATM   16  C   UNL     1      -1.168   7.287 -28.717  1.00  0.00     0.001 A 
HETATM   17  C   UNL     1      -1.848   8.401 -29.197  1.00  0.00     0.001 A 
ENDBRANCH   3   6
ENDBRANCH   1   2
BRANCH   1  18
HETATM   18  C   UNL     1      -5.062   4.126 -32.438  1.00  0.00     0.241 C 
HETATM   19  N   UNL     1      -5.966   4.308 -33.445  1.00  0.00    -0.353 N 
HETATM   20  H   UNL     1      -6.059   3.619 -34.185  1.00  0.00     0.162 HD
HETATM   21  O   UNL     1      -5.058   4.798 -31.400  1.00  0.00    -0.271 OA
BRANCH  19  22
HETATM   22  C   UNL     1      -7.012   5.308 -33.390  1.00  0.00     0.187 C 
BRANCH  22  23
HETATM   23  C   UNL     1      -8.276   4.740 -33.920  1.00  0.00     0.070 A 
HETATM   24  O   UNL     1      -8.999   5.525 -34.771  1.00  0.00    -0.325 OA
HETATM   25  C   UNL     1     -10.112   4.825 -35.109  1.00  0.00     0.142 A 
HETATM   26  C   UNL     1     -10.124   3.606 -34.475  1.00  0.00     0.027 A 
HETATM   27  C   UNL     1      -8.937   3.548 -33.705  1.00  0.00     0.036 A 
ENDBRANCH  22  23
ENDBRANCH  19  22
ENDBRANCH   1  18
BRANCH   1  28
HETATM   28  C   UNL     1      -3.979   1.940 -31.634  1.00  0.00     0.075 C 
BRANCH  28  29
HETATM   29  C   UNL     1      -4.085   0.554 -32.198  1.00  0.00    -0.028 A 
HETATM   30  C   UNL     1      -5.070   0.090 -33.132  1.00  0.00    -0.002 A 
HETATM   31  C   UNL     1      -4.827  -1.265 -33.357  1.00  0.00     0.042 A 
HETATM   32  C   UNL     1      -6.156   0.694 -33.797  1.00  0.00     0.014 A 
HETATM   33  C   UNL     1      -5.615  -2.045 -34.212  1.00  0.00     0.030 A 
HETATM   34  N   UNL     1      -3.740  -1.616 -32.594  1.00  0.00    -0.365 N 
HETATM   35  C   UNL     1      -6.688  -1.423 -34.854  1.00  0.00     0.002 A 
HETATM   36  C   UNL     1      -6.958  -0.073 -34.651  1.00  0.00     0.001 A 
HETATM   37  H   UNL     1      -3.350  -2.548 -32.552  1.00  0.00     0.165 HD
HETATM   38  C   UNL     1      -3.293  -0.533 -31.882  1.00  0.00     0.096 A 
ENDBRANCH  28  29
ENDBRANCH   1  28
TORSDOF 7
ENDMDL
