MODEL 1
REMARK VINA RESULT:      -8.2      0.000      0.000
REMARK  6 active torsions:
REMARK  status: ('A' for Active; 'I' for Inactive)
REMARK    1  A    between atoms: C_3  and  N_4 
REMARK       I    between atoms: N_4  and  C_5 
REMARK    2  A    between atoms: C_5  and  C_6 
REMARK    3  A    between atoms: C_14  and  N_15 
REMARK       I    between atoms: N_15  and  C_16 
REMARK       I    between atoms: C_16  and  N_17 
REMARK    4  A    between atoms: N_17  and  C_18 
REMARK    5  A    between atoms: C_18  and  C_19 
REMARK    6  A    between atoms: C_19  and  N_20 
ROOT
HETATM    1  N   UNL     1      -7.722   3.557 -29.663  1.00  0.00    -0.309 N 
HETATM    2  C   UNL     1      -7.296   4.846 -29.730  1.00  0.00     0.321 C 
HETATM    3  N   UNL     1      -6.177   5.102 -30.472  1.00  0.00    -0.337 N 
HETATM    4  O   UNL     1      -7.886   5.732 -29.120  1.00  0.00    -0.247 OA
HETATM    5  H   UNL     1      -8.389   3.421 -28.909  1.00  0.00     0.170 HD
HETATM    6  H   UNL     1      -5.555   4.299 -30.455  1.00  0.00     0.164 HD
ENDROOT
BRANCH   1   7
HETATM    7  C   UNL     1      -7.397   2.414 -30.415  1.00  0.00     0.036 A 
HETATM    8  C   UNL     1      -6.378   1.527 -30.085  1.00  0.00     0.032 A 
HETATM    9  C   UNL     1      -6.126   0.404 -30.882  1.00  0.00     0.032 A 
HETATM   10  C   UNL     1      -6.882   0.143 -32.029  1.00  0.00     0.041 A 
HETATM   11  C   UNL     1      -7.887   1.059 -32.398  1.00  0.00    -0.033 A 
HETATM   12  C   UNL     1      -8.735   0.871 -33.629  1.00  0.00     0.050 C 
HETATM   13  C   UNL     1      -8.123   2.190 -31.590  1.00  0.00     0.038 A 
BRANCH  10  14
HETATM   14  N   UNL     1      -6.688  -1.012 -32.815  1.00  0.00    -0.321 N 
HETATM   15  C   UNL     1      -5.594  -1.359 -33.592  1.00  0.00     0.279 C 
HETATM   16  O   UNL     1      -4.613  -0.650 -33.794  1.00  0.00    -0.265 OA
HETATM   17  H   UNL     1      -7.427  -1.707 -32.822  1.00  0.00     0.169 HD
BRANCH  15  18
HETATM   18  C   UNL     1      -5.721  -2.686 -34.168  1.00  0.00     0.142 A 
HETATM   19  O   UNL     1      -4.677  -3.571 -34.053  1.00  0.00    -0.317 OA
HETATM   20  C   UNL     1      -5.046  -4.708 -34.699  1.00  0.00     0.143 A 
HETATM   21  C   UNL     1      -6.312  -4.581 -35.217  1.00  0.00     0.027 A 
HETATM   22  C   UNL     1      -6.749  -3.279 -34.875  1.00  0.00     0.045 A 
ENDBRANCH  15  18
ENDBRANCH  10  14
ENDBRANCH   1   7
BRANCH   3  23
HETATM   23  C   UNL     1      -5.503   6.396 -30.372  1.00  0.00     0.108 C 
HETATM   24  C   UNL     1      -4.399   6.323 -29.318  1.00  0.00     0.034 C 
BRANCH  23  25
HETATM   25  C   UNL     1      -5.033   7.037 -31.713  1.00  0.00     0.259 C 
BRANCH  25  26
HETATM   26  N   UNL     1      -3.586   6.851 -32.144  1.00  0.00    -0.069 N 
HETATM   27  H   UNL     1      -3.238   6.178 -31.447  1.00  0.00     0.280 HD
HETATM   28  C   UNL     1      -3.369   6.199 -33.480  1.00  0.00     0.239 C 
HETATM   29  C   UNL     1      -1.916   5.722 -33.570  1.00  0.00     0.007 C 
HETATM   30  C   UNL     1      -0.948   6.893 -33.349  1.00  0.00     0.007 C 
HETATM   31  C   UNL     1      -1.656   5.054 -34.919  1.00  0.00     0.011 C 
HETATM   32  C   UNL     1      -1.247   7.628 -32.044  1.00  0.00     0.028 C 
HETATM   33  C   UNL     1      -2.706   8.065 -31.955  1.00  0.00     0.235 C 
ENDBRANCH  25  26
ENDBRANCH  23  25
ENDBRANCH   3  23
TORSDOF 6
ENDMDL
MODEL 2
REMARK VINA RESULT:      -8.2      3.340      5.187
REMARK  6 active torsions:
REMARK  status: ('A' for Active; 'I' for Inactive)
REMARK    1  A    between atoms: C_3  and  N_4 
REMARK       I    between atoms: N_4  and  C_5 
REMARK    2  A    between atoms: C_5  and  C_6 
REMARK    3  A    between atoms: C_14  and  N_15 
REMARK       I    between atoms: N_15  and  C_16 
REMARK       I    between atoms: C_16  and  N_17 
REMARK    4  A    between atoms: N_17  and  C_18 
REMARK    5  A    between atoms: C_18  and  C_19 
REMARK    6  A    between atoms: C_19  and  N_20 
ROOT
HETATM    1  N   UNL     1      -4.560   2.050 -31.753  1.00  0.00    -0.309 N 
HETATM    2  C   UNL     1      -3.750   3.111 -32.011  1.00  0.00     0.321 C 
HETATM    3  N   UNL     1      -4.244   4.099 -32.816  1.00  0.00    -0.337 N 
HETATM    4  O   UNL     1      -2.610   3.153 -31.558  1.00  0.00    -0.247 OA
HETATM    5  H   UNL     1      -4.041   1.266 -31.369  1.00  0.00     0.170 HD
HETATM    6  H   UNL     1      -4.900   3.710 -33.486  1.00  0.00     0.164 HD
ENDROOT
BRANCH   1   7
HETATM    7  C   UNL     1      -5.940   1.849 -31.937  1.00  0.00     0.036 A 
HETATM    8  C   UNL     1      -6.919   2.305 -31.060  1.00  0.00     0.032 A 
HETATM    9  C   UNL     1      -8.274   2.073 -31.324  1.00  0.00     0.032 A 
HETATM   10  C   UNL     1      -8.683   1.377 -32.465  1.00  0.00     0.041 A 
HETATM   11  C   UNL     1      -7.699   0.873 -33.337  1.00  0.00    -0.033 A 
HETATM   12  C   UNL     1      -8.046   0.092 -34.578  1.00  0.00     0.050 C 
HETATM   13  C   UNL     1      -6.337   1.106 -33.053  1.00  0.00     0.038 A 
BRANCH  10  14
HETATM   14  N   UNL     1     -10.043   1.183 -32.784  1.00  0.00    -0.321 N 
HETATM   15  C   UNL     1     -10.896   2.014 -33.492  1.00  0.00     0.279 C 
HETATM   16  O   UNL     1     -10.616   3.137 -33.900  1.00  0.00    -0.265 OA
HETATM   17  H   UNL     1     -10.480   0.320 -32.478  1.00  0.00     0.169 HD
BRANCH  15  18
HETATM   18  C   UNL     1     -12.200   1.415 -33.710  1.00  0.00     0.142 A 
HETATM   19  O   UNL     1     -12.382   0.082 -33.435  1.00  0.00    -0.317 OA
HETATM   20  C   UNL     1     -13.667  -0.221 -33.755  1.00  0.00     0.143 A 
HETATM   21  C   UNL     1     -14.325   0.893 -34.218  1.00  0.00     0.027 A 
HETATM   22  C   UNL     1     -13.381   1.949 -34.189  1.00  0.00     0.045 A 
ENDBRANCH  15  18
ENDBRANCH  10  14
ENDBRANCH   1   7
BRANCH   3  23
HETATM   23  C   UNL     1      -3.354   5.124 -33.361  1.00  0.00     0.108 C 
HETATM   24  C   UNL     1      -3.608   5.284 -34.859  1.00  0.00     0.034 C 
BRANCH  23  25
HETATM   25  C   UNL     1      -3.309   6.481 -32.595  1.00  0.00     0.259 C 
BRANCH  25  26
HETATM   26  N   UNL     1      -2.106   6.783 -31.715  1.00  0.00    -0.069 N 
HETATM   27  H   UNL     1      -1.939   7.779 -31.912  1.00  0.00     0.280 HD
HETATM   28  C   UNL     1      -2.330   6.699 -30.231  1.00  0.00     0.239 C 
HETATM   29  C   UNL     1      -1.182   7.415 -29.514  1.00  0.00     0.007 C 
HETATM   30  C   UNL     1       0.170   6.809 -29.917  1.00  0.00     0.007 C 
HETATM   31  C   UNL     1      -1.374   7.348 -28.000  1.00  0.00     0.011 C 
HETATM   32  C   UNL     1       0.345   6.788 -31.434  1.00  0.00     0.028 C 
HETATM   33  C   UNL     1      -0.825   6.103 -32.134  1.00  0.00     0.235 C 
ENDBRANCH  25  26
ENDBRANCH  23  25
ENDBRANCH   3  23
TORSDOF 6
ENDMDL
MODEL 3
REMARK VINA RESULT:      -8.1      3.477      5.154
REMARK  6 active torsions:
REMARK  status: ('A' for Active; 'I' for Inactive)
REMARK    1  A    between atoms: C_3  and  N_4 
REMARK       I    between atoms: N_4  and  C_5 
REMARK    2  A    between atoms: C_5  and  C_6 
REMARK    3  A    between atoms: C_14  and  N_15 
REMARK       I    between atoms: N_15  and  C_16 
REMARK       I    between atoms: C_16  and  N_17 
REMARK    4  A    between atoms: N_17  and  C_18 
REMARK    5  A    between atoms: C_18  and  C_19 
REMARK    6  A    between atoms: C_19  and  N_20 
ROOT
HETATM    1  N   UNL     1      -4.604   1.975 -31.953  1.00  0.00    -0.309 N 
HETATM    2  C   UNL     1      -3.758   3.022 -32.143  1.00  0.00     0.321 C 
HETATM    3  N   UNL     1      -4.133   3.980 -33.043  1.00  0.00    -0.337 N 
HETATM    4  O   UNL     1      -2.687   3.076 -31.546  1.00  0.00    -0.247 OA
HETATM    5  H   UNL     1      -4.148   1.205 -31.475  1.00  0.00     0.170 HD
HETATM    6  H   UNL     1      -4.699   3.567 -33.778  1.00  0.00     0.164 HD
ENDROOT
BRANCH   1   7
HETATM    7  C   UNL     1      -5.950   1.773 -32.309  1.00  0.00     0.036 A 
HETATM    8  C   UNL     1      -6.361   1.070 -33.437  1.00  0.00     0.032 A 
HETATM    9  C   UNL     1      -7.723   0.902 -33.713  1.00  0.00     0.032 A 
HETATM   10  C   UNL     1      -8.706   1.436 -32.874  1.00  0.00     0.041 A 
HETATM   11  C   UNL     1      -8.301   2.186 -31.753  1.00  0.00    -0.033 A 
HETATM   12  C   UNL     1      -9.289   2.817 -30.807  1.00  0.00     0.050 C 
HETATM   13  C   UNL     1      -6.925   2.355 -31.493  1.00  0.00     0.038 A 
BRANCH  10  14
HETATM   14  N   UNL     1     -10.083   1.230 -33.098  1.00  0.00    -0.321 N 
HETATM   15  C   UNL     1     -10.914   1.843 -34.022  1.00  0.00     0.279 C 
HETATM   16  O   UNL     1     -10.589   2.762 -34.768  1.00  0.00    -0.265 OA
HETATM   17  H   UNL     1     -10.554   0.535 -32.528  1.00  0.00     0.169 HD
BRANCH  15  18
HETATM   18  C   UNL     1     -12.252   1.283 -34.023  1.00  0.00     0.142 A 
HETATM   19  O   UNL     1     -12.467   0.055 -33.446  1.00  0.00    -0.317 OA
HETATM   20  C   UNL     1     -13.782  -0.240 -33.613  1.00  0.00     0.143 A 
HETATM   21  C   UNL     1     -14.426   0.778 -34.274  1.00  0.00     0.027 A 
HETATM   22  C   UNL     1     -13.442   1.761 -34.539  1.00  0.00     0.045 A 
ENDBRANCH  15  18
ENDBRANCH  10  14
ENDBRANCH   1   7
BRANCH   3  23
HETATM   23  C   UNL     1      -3.169   4.979 -33.504  1.00  0.00     0.108 C 
HETATM   24  C   UNL     1      -3.361   5.228 -35.000  1.00  0.00     0.034 C 
BRANCH  23  25
HETATM   25  C   UNL     1      -3.078   6.291 -32.668  1.00  0.00     0.259 C 
BRANCH  25  26
HETATM   26  N   UNL     1      -2.012   6.396 -31.588  1.00  0.00    -0.069 N 
HETATM   27  H   UNL     1      -2.470   5.940 -30.787  1.00  0.00     0.280 HD
HETATM   28  C   UNL     1      -0.746   5.621 -31.825  1.00  0.00     0.239 C 
HETATM   29  C   UNL     1       0.017   5.500 -30.504  1.00  0.00     0.007 C 
HETATM   30  C   UNL     1       0.307   6.889 -29.917  1.00  0.00     0.007 C 
HETATM   31  C   UNL     1       1.314   4.718 -30.706  1.00  0.00     0.011 C 
HETATM   32  C   UNL     1      -0.968   7.720 -29.787  1.00  0.00     0.028 C 
HETATM   33  C   UNL     1      -1.735   7.800 -31.103  1.00  0.00     0.235 C 
ENDBRANCH  25  26
ENDBRANCH  23  25
ENDBRANCH   3  23
TORSDOF 6
ENDMDL
MODEL 4
REMARK VINA RESULT:      -8.0      3.276      5.184
REMARK  6 active torsions:
REMARK  status: ('A' for Active; 'I' for Inactive)
REMARK    1  A    between atoms: C_3  and  N_4 
REMARK       I    between atoms: N_4  and  C_5 
REMARK    2  A    between atoms: C_5  and  C_6 
REMARK    3  A    between atoms: C_14  and  N_15 
REMARK       I    between atoms: N_15  and  C_16 
REMARK       I    between atoms: C_16  and  N_17 
REMARK    4  A    between atoms: N_17  and  C_18 
REMARK    5  A    between atoms: C_18  and  C_19 
REMARK    6  A    between atoms: C_19  and  N_20 
ROOT
HETATM    1  N   UNL     1      -4.042   2.543 -31.533  1.00  0.00    -0.309 N 
HETATM    2  C   UNL     1      -3.119   3.494 -31.836  1.00  0.00     0.321 C 
HETATM    3  N   UNL     1      -3.393   4.326 -32.885  1.00  0.00    -0.337 N 
HETATM    4  O   UNL     1      -2.071   3.572 -31.202  1.00  0.00    -0.247 OA
HETATM    5  H   UNL     1      -3.658   1.827 -30.924  1.00  0.00     0.170 HD
HETATM    6  H   UNL     1      -3.957   3.842 -33.578  1.00  0.00     0.164 HD
ENDROOT
BRANCH   1   7
HETATM    7  C   UNL     1      -5.384   2.373 -31.920  1.00  0.00     0.036 A 
HETATM    8  C   UNL     1      -6.472   2.842 -31.191  1.00  0.00     0.032 A 
HETATM    9  C   UNL     1      -7.778   2.641 -31.653  1.00  0.00     0.032 A 
HETATM   10  C   UNL     1      -8.029   1.964 -32.850  1.00  0.00     0.041 A 
HETATM   11  C   UNL     1      -6.937   1.446 -33.574  1.00  0.00    -0.033 A 
HETATM   12  C   UNL     1      -7.114   0.684 -34.861  1.00  0.00     0.050 C 
HETATM   13  C   UNL     1      -5.628   1.648 -33.091  1.00  0.00     0.038 A 
BRANCH  10  14
HETATM   14  N   UNL     1      -9.331   1.801 -33.367  1.00  0.00    -0.321 N 
HETATM   15  C   UNL     1     -10.237   0.780 -33.131  1.00  0.00     0.279 C 
HETATM   16  O   UNL     1     -10.011  -0.231 -32.473  1.00  0.00    -0.265 OA
HETATM   17  H   UNL     1      -9.684   2.521 -33.989  1.00  0.00     0.169 HD
BRANCH  15  18
HETATM   18  C   UNL     1     -11.523   1.022 -33.760  1.00  0.00     0.142 A 
HETATM   19  O   UNL     1     -11.690   2.143 -34.536  1.00  0.00    -0.317 OA
HETATM   20  C   UNL     1     -12.977   2.140 -34.969  1.00  0.00     0.143 A 
HETATM   21  C   UNL     1     -13.643   1.033 -34.501  1.00  0.00     0.027 A 
HETATM   22  C   UNL     1     -12.706   0.311 -33.722  1.00  0.00     0.045 A 
ENDBRANCH  15  18
ENDBRANCH  10  14
ENDBRANCH   1   7
BRANCH   3  23
HETATM   23  C   UNL     1      -2.346   5.182 -33.443  1.00  0.00     0.108 C 
HETATM   24  C   UNL     1      -2.444   5.189 -34.968  1.00  0.00     0.034 C 
BRANCH  23  25
HETATM   25  C   UNL     1      -2.216   6.608 -32.827  1.00  0.00     0.259 C 
BRANCH  25  26
HETATM   26  N   UNL     1      -2.048   6.740 -31.321  1.00  0.00    -0.069 N 
HETATM   27  H   UNL     1      -2.052   5.757 -31.016  1.00  0.00     0.280 HD
HETATM   28  C   UNL     1      -0.740   7.306 -30.845  1.00  0.00     0.239 C 
HETATM   29  C   UNL     1      -0.575   6.990 -29.355  1.00  0.00     0.007 C 
HETATM   30  C   UNL     1      -1.758   7.547 -28.550  1.00  0.00     0.007 C 
HETATM   31  C   UNL     1       0.746   7.553 -28.834  1.00  0.00     0.011 C 
HETATM   32  C   UNL     1      -3.094   7.064 -29.111  1.00  0.00     0.028 C 
HETATM   33  C   UNL     1      -3.226   7.354 -30.603  1.00  0.00     0.235 C 
ENDBRANCH  25  26
ENDBRANCH  23  25
ENDBRANCH   3  23
TORSDOF 6
ENDMDL
MODEL 5
REMARK VINA RESULT:      -7.9      2.809      3.744
REMARK  6 active torsions:
REMARK  status: ('A' for Active; 'I' for Inactive)
REMARK    1  A    between atoms: C_3  and  N_4 
REMARK       I    between atoms: N_4  and  C_5 
REMARK    2  A    between atoms: C_5  and  C_6 
REMARK    3  A    between atoms: C_14  and  N_15 
REMARK       I    between atoms: N_15  and  C_16 
REMARK       I    between atoms: C_16  and  N_17 
REMARK    4  A    between atoms: N_17  and  C_18 
REMARK    5  A    between atoms: C_18  and  C_19 
REMARK    6  A    between atoms: C_19  and  N_20 
ROOT
HETATM    1  N   UNL     1      -5.636   6.136 -29.608  1.00  0.00    -0.309 N 
HETATM    2  C   UNL     1      -4.828   7.021 -28.966  1.00  0.00     0.321 C 
HETATM    3  N   UNL     1      -3.664   6.541 -28.434  1.00  0.00    -0.337 N 
HETATM    4  O   UNL     1      -5.158   8.197 -28.849  1.00  0.00    -0.247 OA
HETATM    5  H   UNL     1      -6.569   6.510 -29.746  1.00  0.00     0.170 HD
HETATM    6  H   UNL     1      -3.782   5.572 -28.151  1.00  0.00     0.164 HD
ENDROOT
BRANCH   1   7
HETATM    7  C   UNL     1      -5.417   4.828 -30.079  1.00  0.00     0.036 A 
HETATM    8  C   UNL     1      -6.066   3.702 -29.585  1.00  0.00     0.032 A 
HETATM    9  C   UNL     1      -5.801   2.436 -30.119  1.00  0.00     0.032 A 
HETATM   10  C   UNL     1      -4.878   2.264 -31.156  1.00  0.00     0.041 A 
HETATM   11  C   UNL     1      -4.183   3.391 -31.634  1.00  0.00    -0.033 A 
HETATM   12  C   UNL     1      -3.155   3.297 -32.732  1.00  0.00     0.050 C 
HETATM   13  C   UNL     1      -4.454   4.659 -31.079  1.00  0.00     0.038 A 
BRANCH  10  14
HETATM   14  N   UNL     1      -4.637   1.008 -31.751  1.00  0.00    -0.321 N 
HETATM   15  C   UNL     1      -3.573   0.143 -31.551  1.00  0.00     0.279 C 
HETATM   16  O   UNL     1      -2.588   0.377 -30.859  1.00  0.00    -0.265 OA
HETATM   17  H   UNL     1      -5.325   0.659 -32.410  1.00  0.00     0.169 HD
BRANCH  15  18
HETATM   18  C   UNL     1      -3.735  -1.110 -32.267  1.00  0.00     0.142 A 
HETATM   19  O   UNL     1      -3.128  -2.243 -31.783  1.00  0.00    -0.317 OA
HETATM   20  C   UNL     1      -3.413  -3.250 -32.650  1.00  0.00     0.143 A 
HETATM   21  C   UNL     1      -4.204  -2.794 -33.677  1.00  0.00     0.027 A 
HETATM   22  C   UNL     1      -4.413  -1.415 -33.431  1.00  0.00     0.045 A 
ENDBRANCH  15  18
ENDBRANCH  10  14
ENDBRANCH   1   7
BRANCH   3  23
HETATM   23  C   UNL     1      -2.885   7.356 -27.502  1.00  0.00     0.108 C 
HETATM   24  C   UNL     1      -3.283   7.020 -26.065  1.00  0.00     0.034 C 
BRANCH  23  25
HETATM   25  C   UNL     1      -1.343   7.379 -27.726  1.00  0.00     0.259 C 
BRANCH  25  26
HETATM   26  N   UNL     1      -0.749   6.494 -28.811  1.00  0.00    -0.069 N 
HETATM   27  H   UNL     1      -1.355   5.663 -28.768  1.00  0.00     0.280 HD
HETATM   28  C   UNL     1      -0.861   7.003 -30.220  1.00  0.00     0.239 C 
HETATM   29  C   UNL     1      -0.603   5.846 -31.189  1.00  0.00     0.007 C 
HETATM   30  C   UNL     1       0.770   5.214 -30.925  1.00  0.00     0.007 C 
HETATM   31  C   UNL     1      -0.707   6.327 -32.635  1.00  0.00     0.011 C 
HETATM   32  C   UNL     1       0.927   4.804 -29.462  1.00  0.00     0.028 C 
HETATM   33  C   UNL     1       0.632   5.959 -28.510  1.00  0.00     0.235 C 
ENDBRANCH  25  26
ENDBRANCH  23  25
ENDBRANCH   3  23
TORSDOF 6
ENDMDL
MODEL 6
REMARK VINA RESULT:      -7.9      1.694      2.721
REMARK  6 active torsions:
REMARK  status: ('A' for Active; 'I' for Inactive)
REMARK    1  A    between atoms: C_3  and  N_4 
REMARK       I    between atoms: N_4  and  C_5 
REMARK    2  A    between atoms: C_5  and  C_6 
REMARK    3  A    between atoms: C_14  and  N_15 
REMARK       I    between atoms: N_15  and  C_16 
REMARK       I    between atoms: C_16  and  N_17 
REMARK    4  A    between atoms: N_17  and  C_18 
REMARK    5  A    between atoms: C_18  and  C_19 
REMARK    6  A    between atoms: C_19  and  N_20 
ROOT
HETATM    1  N   UNL     1      -5.457   3.675 -29.317  1.00  0.00    -0.309 N 
HETATM    2  C   UNL     1      -5.367   4.978 -29.692  1.00  0.00     0.321 C 
HETATM    3  N   UNL     1      -5.161   5.238 -31.018  1.00  0.00    -0.337 N 
HETATM    4  O   UNL     1      -5.440   5.875 -28.859  1.00  0.00    -0.247 OA
HETATM    5  H   UNL     1      -5.357   3.565 -28.312  1.00  0.00     0.170 HD
HETATM    6  H   UNL     1      -4.626   4.487 -31.444  1.00  0.00     0.164 HD
ENDROOT
BRANCH   1   7
HETATM    7  C   UNL     1      -5.636   2.489 -30.053  1.00  0.00     0.036 A 
HETATM    8  C   UNL     1      -6.876   1.988 -30.434  1.00  0.00     0.032 A 
HETATM    9  C   UNL     1      -6.968   0.806 -31.179  1.00  0.00     0.032 A 
HETATM   10  C   UNL     1      -5.825   0.096 -31.557  1.00  0.00     0.041 A 
HETATM   11  C   UNL     1      -4.566   0.571 -31.139  1.00  0.00    -0.033 A 
HETATM   12  C   UNL     1      -3.283  -0.142 -31.481  1.00  0.00     0.050 C 
HETATM   13  C   UNL     1      -4.490   1.757 -30.381  1.00  0.00     0.038 A 
BRANCH  10  14
HETATM   14  N   UNL     1      -5.887  -1.064 -32.357  1.00  0.00    -0.321 N 
HETATM   15  C   UNL     1      -5.998  -1.163 -33.735  1.00  0.00     0.279 C 
HETATM   16  O   UNL     1      -6.151  -0.219 -34.504  1.00  0.00    -0.265 OA
HETATM   17  H   UNL     1      -5.831  -1.963 -31.889  1.00  0.00     0.169 HD
BRANCH  15  18
HETATM   18  C   UNL     1      -5.919  -2.535 -34.201  1.00  0.00     0.142 A 
HETATM   19  O   UNL     1      -4.738  -3.223 -34.068  1.00  0.00    -0.317 OA
HETATM   20  C   UNL     1      -4.930  -4.455 -34.607  1.00  0.00     0.143 A 
HETATM   21  C   UNL     1      -6.216  -4.584 -35.073  1.00  0.00     0.027 A 
HETATM   22  C   UNL     1      -6.855  -3.347 -34.811  1.00  0.00     0.045 A 
ENDBRANCH  15  18
ENDBRANCH  10  14
ENDBRANCH   1   7
BRANCH   3  23
HETATM   23  C   UNL     1      -4.782   6.581 -31.458  1.00  0.00     0.108 C 
HETATM   24  C   UNL     1      -6.029   7.353 -31.892  1.00  0.00     0.034 C 
BRANCH  23  25
HETATM   25  C   UNL     1      -3.859   7.390 -30.498  1.00  0.00     0.259 C 
BRANCH  25  26
HETATM   26  N   UNL     1      -2.354   7.324 -30.705  1.00  0.00    -0.069 N 
HETATM   27  H   UNL     1      -2.142   8.270 -31.051  1.00  0.00     0.280 HD
HETATM   28  C   UNL     1      -1.520   7.151 -29.467  1.00  0.00     0.239 C 
HETATM   29  C   UNL     1      -0.068   7.514 -29.791  1.00  0.00     0.007 C 
HETATM   30  C   UNL     1       0.458   6.658 -30.951  1.00  0.00     0.007 C 
HETATM   31  C   UNL     1       0.813   7.348 -28.554  1.00  0.00     0.011 C 
HETATM   32  C   UNL     1      -0.457   6.744 -32.171  1.00  0.00     0.028 C 
HETATM   33  C   UNL     1      -1.905   6.413 -31.823  1.00  0.00     0.235 C 
ENDBRANCH  25  26
ENDBRANCH  23  25
ENDBRANCH   3  23
TORSDOF 6
ENDMDL
MODEL 7
REMARK VINA RESULT:      -7.7      1.972      2.345
REMARK  6 active torsions:
REMARK  status: ('A' for Active; 'I' for Inactive)
REMARK    1  A    between atoms: C_3  and  N_4 
REMARK       I    between atoms: N_4  and  C_5 
REMARK    2  A    between atoms: C_5  and  C_6 
REMARK    3  A    between atoms: C_14  and  N_15 
REMARK       I    between atoms: N_15  and  C_16 
REMARK       I    between atoms: C_16  and  N_17 
REMARK    4  A    between atoms: N_17  and  C_18 
REMARK    5  A    between atoms: C_18  and  C_19 
REMARK    6  A    between atoms: C_19  and  N_20 
ROOT
HETATM    1  N   UNL     1      -6.868   4.750 -28.662  1.00  0.00    -0.309 N 
HETATM    2  C   UNL     1      -6.213   5.876 -28.273  1.00  0.00     0.321 C 
HETATM    3  N   UNL     1      -4.898   5.994 -28.625  1.00  0.00    -0.337 N 
HETATM    4  O   UNL     1      -6.784   6.732 -27.604  1.00  0.00    -0.247 OA
HETATM    5  H   UNL     1      -7.741   4.629 -28.157  1.00  0.00     0.170 HD
HETATM    6  H   UNL     1      -4.466   5.076 -28.678  1.00  0.00     0.164 HD
ENDROOT
BRANCH   1   7
HETATM    7  C   UNL     1      -6.549   3.748 -29.596  1.00  0.00     0.036 A 
HETATM    8  C   UNL     1      -5.264   3.500 -30.067  1.00  0.00     0.032 A 
HETATM    9  C   UNL     1      -5.029   2.472 -30.988  1.00  0.00     0.032 A 
HETATM   10  C   UNL     1      -6.072   1.672 -31.464  1.00  0.00     0.041 A 
HETATM   11  C   UNL     1      -7.384   1.942 -31.028  1.00  0.00    -0.033 A 
HETATM   12  C   UNL     1      -8.570   1.145 -31.505  1.00  0.00     0.050 C 
HETATM   13  C   UNL     1      -7.606   2.986 -30.107  1.00  0.00     0.038 A 
BRANCH  10  14
HETATM   14  N   UNL     1      -5.853   0.593 -32.346  1.00  0.00    -0.321 N 
HETATM   15  C   UNL     1      -4.970  -0.467 -32.218  1.00  0.00     0.279 C 
HETATM   16  O   UNL     1      -4.143  -0.598 -31.321  1.00  0.00    -0.265 OA
HETATM   17  H   UNL     1      -6.413   0.554 -33.191  1.00  0.00     0.169 HD
BRANCH  15  18
HETATM   18  C   UNL     1      -5.114  -1.441 -33.284  1.00  0.00     0.142 A 
HETATM   19  O   UNL     1      -4.099  -2.337 -33.518  1.00  0.00    -0.317 OA
HETATM   20  C   UNL     1      -4.476  -3.101 -34.576  1.00  0.00     0.143 A 
HETATM   21  C   UNL     1      -5.721  -2.727 -35.023  1.00  0.00     0.027 A 
HETATM   22  C   UNL     1      -6.133  -1.658 -34.191  1.00  0.00     0.045 A 
ENDBRANCH  15  18
ENDBRANCH  10  14
ENDBRANCH   1   7
BRANCH   3  23
HETATM   23  C   UNL     1      -4.059   7.027 -28.019  1.00  0.00     0.108 C 
HETATM   24  C   UNL     1      -3.614   6.579 -26.627  1.00  0.00     0.034 C 
BRANCH  23  25
HETATM   25  C   UNL     1      -2.889   7.571 -28.894  1.00  0.00     0.259 C 
BRANCH  25  26
HETATM   26  N   UNL     1      -1.992   6.576 -29.613  1.00  0.00    -0.069 N 
HETATM   27  H   UNL     1      -2.105   5.729 -29.040  1.00  0.00     0.280 HD
HETATM   28  C   UNL     1      -2.413   6.183 -31.001  1.00  0.00     0.239 C 
HETATM   29  C   UNL     1      -1.666   4.908 -31.405  1.00  0.00     0.007 C 
HETATM   30  C   UNL     1      -0.148   5.118 -31.314  1.00  0.00     0.007 C 
HETATM   31  C   UNL     1      -2.068   4.478 -32.815  1.00  0.00     0.011 C 
HETATM   32  C   UNL     1       0.265   5.632 -29.935  1.00  0.00     0.028 C 
HETATM   33  C   UNL     1      -0.514   6.881 -29.534  1.00  0.00     0.235 C 
ENDBRANCH  25  26
ENDBRANCH  23  25
ENDBRANCH   3  23
TORSDOF 6
ENDMDL
MODEL 8
REMARK VINA RESULT:      -7.7      3.803      6.587
REMARK  6 active torsions:
REMARK  status: ('A' for Active; 'I' for Inactive)
REMARK    1  A    between atoms: C_3  and  N_4 
REMARK       I    between atoms: N_4  and  C_5 
REMARK    2  A    between atoms: C_5  and  C_6 
REMARK    3  A    between atoms: C_14  and  N_15 
REMARK       I    between atoms: N_15  and  C_16 
REMARK       I    between atoms: C_16  and  N_17 
REMARK    4  A    between atoms: N_17  and  C_18 
REMARK    5  A    between atoms: C_18  and  C_19 
REMARK    6  A    between atoms: C_19  and  N_20 
ROOT
HETATM    1  N   UNL     1      -8.685   3.974 -30.497  1.00  0.00    -0.309 N 
HETATM    2  C   UNL     1      -9.614   4.890 -30.881  1.00  0.00     0.321 C 
HETATM    3  N   UNL     1      -9.997   4.887 -32.193  1.00  0.00    -0.337 N 
HETATM    4  O   UNL     1     -10.060   5.702 -30.077  1.00  0.00    -0.247 OA
HETATM    5  H   UNL     1      -8.281   4.204 -29.594  1.00  0.00     0.170 HD
HETATM    6  H   UNL     1      -9.229   4.577 -32.781  1.00  0.00     0.164 HD
ENDROOT
BRANCH   1   7
HETATM    7  C   UNL     1      -8.189   2.814 -31.121  1.00  0.00     0.036 A 
HETATM    8  C   UNL     1      -6.837   2.555 -31.323  1.00  0.00     0.032 A 
HETATM    9  C   UNL     1      -6.425   1.369 -31.941  1.00  0.00     0.032 A 
HETATM   10  C   UNL     1      -7.352   0.417 -32.376  1.00  0.00     0.041 A 
HETATM   11  C   UNL     1      -8.724   0.688 -32.216  1.00  0.00    -0.033 A 
HETATM   12  C   UNL     1      -9.793  -0.270 -32.674  1.00  0.00     0.050 C 
HETATM   13  C   UNL     1      -9.125   1.892 -31.600  1.00  0.00     0.038 A 
BRANCH  10  14
HETATM   14  N   UNL     1      -6.960  -0.812 -32.947  1.00  0.00    -0.321 N 
HETATM   15  C   UNL     1      -6.667  -1.100 -34.271  1.00  0.00     0.279 C 
HETATM   16  O   UNL     1      -6.787  -0.320 -35.210  1.00  0.00    -0.265 OA
HETATM   17  H   UNL     1      -6.857  -1.609 -32.327  1.00  0.00     0.169 HD
BRANCH  15  18
HETATM   18  C   UNL     1      -6.192  -2.460 -34.451  1.00  0.00     0.142 A 
HETATM   19  O   UNL     1      -4.878  -2.754 -34.180  1.00  0.00    -0.317 OA
HETATM   20  C   UNL     1      -4.698  -4.071 -34.460  1.00  0.00     0.143 A 
HETATM   21  C   UNL     1      -5.872  -4.638 -34.893  1.00  0.00     0.027 A 
HETATM   22  C   UNL     1      -6.836  -3.601 -34.887  1.00  0.00     0.045 A 
ENDBRANCH  15  18
ENDBRANCH  10  14
ENDBRANCH   1   7
BRANCH   3  23
HETATM   23  C   UNL     1     -10.772   6.000 -32.740  1.00  0.00     0.108 C 
HETATM   24  C   UNL     1     -10.014   6.632 -33.908  1.00  0.00     0.034 C 
BRANCH  23  25
HETATM   25  C   UNL     1     -12.269   5.710 -33.062  1.00  0.00     0.259 C 
BRANCH  25  26
HETATM   26  N   UNL     1     -12.698   4.271 -33.303  1.00  0.00    -0.069 N 
HETATM   27  H   UNL     1     -12.039   3.747 -32.711  1.00  0.00     0.280 HD
HETATM   28  C   UNL     1     -14.068   3.895 -32.814  1.00  0.00     0.239 C 
HETATM   29  C   UNL     1     -14.174   2.369 -32.758  1.00  0.00     0.007 C 
HETATM   30  C   UNL     1     -13.878   1.755 -34.133  1.00  0.00     0.007 C 
HETATM   31  C   UNL     1     -15.557   1.947 -32.265  1.00  0.00     0.011 C 
HETATM   32  C   UNL     1     -12.535   2.232 -34.682  1.00  0.00     0.028 C 
HETATM   33  C   UNL     1     -12.433   3.755 -34.698  1.00  0.00     0.235 C 
ENDBRANCH  25  26
ENDBRANCH  23  25
ENDBRANCH   3  23
TORSDOF 6
ENDMDL
MODEL 9
REMARK VINA RESULT:      -7.5      1.656      2.215
REMARK  6 active torsions:
REMARK  status: ('A' for Active; 'I' for Inactive)
REMARK    1  A    between atoms: C_3  and  N_4 
REMARK       I    between atoms: N_4  and  C_5 
REMARK    2  A    between atoms: C_5  and  C_6 
REMARK    3  A    between atoms: C_14  and  N_15 
REMARK       I    between atoms: N_15  and  C_16 
REMARK       I    between atoms: C_16  and  N_17 
REMARK    4  A    between atoms: N_17  and  C_18 
REMARK    5  A    between atoms: C_18  and  C_19 
REMARK    6  A    between atoms: C_19  and  N_20 
ROOT
HETATM    1  N   UNL     1      -8.505   4.697 -32.648  1.00  0.00    -0.309 N 
HETATM    2  C   UNL     1      -7.905   5.656 -31.893  1.00  0.00     0.321 C 
HETATM    3  N   UNL     1      -6.778   5.303 -31.206  1.00  0.00    -0.337 N 
HETATM    4  O   UNL     1      -8.385   6.782 -31.817  1.00  0.00    -0.247 OA
HETATM    5  H   UNL     1      -9.448   4.963 -32.914  1.00  0.00     0.170 HD
HETATM    6  H   UNL     1      -6.818   4.321 -30.949  1.00  0.00     0.164 HD
ENDROOT
BRANCH   1   7
HETATM    7  C   UNL     1      -8.069   3.435 -33.092  1.00  0.00     0.036 A 
HETATM    8  C   UNL     1      -6.909   3.226 -33.829  1.00  0.00     0.032 A 
HETATM    9  C   UNL     1      -6.539   1.934 -34.222  1.00  0.00     0.032 A 
HETATM   10  C   UNL     1      -7.321   0.823 -33.893  1.00  0.00     0.041 A 
HETATM   11  C   UNL     1      -8.521   1.028 -33.185  1.00  0.00    -0.033 A 
HETATM   12  C   UNL     1      -9.437  -0.107 -32.807  1.00  0.00     0.050 C 
HETATM   13  C   UNL     1      -8.885   2.336 -32.804  1.00  0.00     0.038 A 
BRANCH  10  14
HETATM   14  N   UNL     1      -6.940  -0.494 -34.225  1.00  0.00    -0.321 N 
HETATM   15  C   UNL     1      -6.022  -1.317 -33.594  1.00  0.00     0.279 C 
HETATM   16  O   UNL     1      -5.303  -0.990 -32.655  1.00  0.00    -0.265 OA
HETATM   17  H   UNL     1      -7.392  -0.928 -35.023  1.00  0.00     0.169 HD
BRANCH  15  18
HETATM   18  C   UNL     1      -5.984  -2.650 -34.168  1.00  0.00     0.142 A 
HETATM   19  O   UNL     1      -4.811  -3.365 -34.131  1.00  0.00    -0.317 OA
HETATM   20  C   UNL     1      -5.045  -4.547 -34.758  1.00  0.00     0.143 A 
HETATM   21  C   UNL     1      -6.348  -4.618 -35.187  1.00  0.00     0.027 A 
HETATM   22  C   UNL     1      -6.955  -3.396 -34.807  1.00  0.00     0.045 A 
ENDBRANCH  15  18
ENDBRANCH  10  14
ENDBRANCH   1   7
BRANCH   3  23
HETATM   23  C   UNL     1      -6.238   6.182 -30.169  1.00  0.00     0.108 C 
HETATM   24  C   UNL     1      -6.901   5.867 -28.829  1.00  0.00     0.034 C 
BRANCH  23  25
HETATM   25  C   UNL     1      -4.685   6.276 -30.081  1.00  0.00     0.259 C 
BRANCH  25  26
HETATM   26  N   UNL     1      -3.855   5.778 -31.255  1.00  0.00    -0.069 N 
HETATM   27  H   UNL     1      -4.513   5.874 -32.041  1.00  0.00     0.280 HD
HETATM   28  C   UNL     1      -2.661   6.612 -31.626  1.00  0.00     0.239 C 
HETATM   29  C   UNL     1      -2.199   6.220 -33.033  1.00  0.00     0.007 C 
HETATM   30  C   UNL     1      -1.884   4.719 -33.101  1.00  0.00     0.007 C 
HETATM   31  C   UNL     1      -0.982   7.047 -33.444  1.00  0.00     0.011 C 
HETATM   32  C   UNL     1      -3.060   3.877 -32.611  1.00  0.00     0.028 C 
HETATM   33  C   UNL     1      -3.530   4.304 -31.223  1.00  0.00     0.235 C 
ENDBRANCH  25  26
ENDBRANCH  23  25
ENDBRANCH   3  23
TORSDOF 6
ENDMDL
MODEL 10
REMARK VINA RESULT:      -7.5      1.536      2.068
REMARK  6 active torsions:
REMARK  status: ('A' for Active; 'I' for Inactive)
REMARK    1  A    between atoms: C_3  and  N_4 
REMARK       I    between atoms: N_4  and  C_5 
REMARK    2  A    between atoms: C_5  and  C_6 
REMARK    3  A    between atoms: C_14  and  N_15 
REMARK       I    between atoms: N_15  and  C_16 
REMARK       I    between atoms: C_16  and  N_17 
REMARK    4  A    between atoms: N_17  and  C_18 
REMARK    5  A    between atoms: C_18  and  C_19 
REMARK    6  A    between atoms: C_19  and  N_20 
ROOT
HETATM    1  N   UNL     1      -5.612   4.415 -28.991  1.00  0.00    -0.309 N 
HETATM    2  C   UNL     1      -5.108   5.677 -29.026  1.00  0.00     0.321 C 
HETATM    3  N   UNL     1      -4.210   5.969 -30.013  1.00  0.00    -0.337 N 
HETATM    4  O   UNL     1      -5.433   6.503 -28.179  1.00  0.00    -0.247 OA
HETATM    5  H   UNL     1      -6.063   4.214 -28.103  1.00  0.00     0.170 HD
HETATM    6  H   UNL     1      -3.679   5.139 -30.261  1.00  0.00     0.164 HD
ENDROOT
BRANCH   1   7
HETATM    7  C   UNL     1      -5.601   3.368 -29.930  1.00  0.00     0.036 A 
HETATM    8  C   UNL     1      -4.474   2.969 -30.642  1.00  0.00     0.032 A 
HETATM    9  C   UNL     1      -4.546   1.906 -31.550  1.00  0.00     0.032 A 
HETATM   10  C   UNL     1      -5.743   1.221 -31.774  1.00  0.00     0.041 A 
HETATM   11  C   UNL     1      -6.901   1.644 -31.092  1.00  0.00    -0.033 A 
HETATM   12  C   UNL     1      -8.238   0.979 -31.287  1.00  0.00     0.050 C 
HETATM   13  C   UNL     1      -6.816   2.722 -30.187  1.00  0.00     0.038 A 
BRANCH  10  14
HETATM   14  N   UNL     1      -5.827   0.110 -32.639  1.00  0.00    -0.321 N 
HETATM   15  C   UNL     1      -5.070  -1.051 -32.637  1.00  0.00     0.279 C 
HETATM   16  O   UNL     1      -4.111  -1.271 -31.904  1.00  0.00    -0.265 OA
HETATM   17  H   UNL     1      -6.538   0.129 -33.363  1.00  0.00     0.169 HD
BRANCH  15  18
HETATM   18  C   UNL     1      -5.530  -2.015 -33.619  1.00  0.00     0.142 A 
HETATM   19  O   UNL     1      -4.662  -2.979 -34.072  1.00  0.00    -0.317 OA
HETATM   20  C   UNL     1      -5.332  -3.717 -34.995  1.00  0.00     0.143 A 
HETATM   21  C   UNL     1      -6.620  -3.259 -35.139  1.00  0.00     0.027 A 
HETATM   22  C   UNL     1      -6.749  -2.163 -34.252  1.00  0.00     0.045 A 
ENDBRANCH  15  18
ENDBRANCH  10  14
ENDBRANCH   1   7
BRANCH   3  23
HETATM   23  C   UNL     1      -3.422   7.201 -29.956  1.00  0.00     0.108 C 
HETATM   24  C   UNL     1      -2.388   7.100 -28.835  1.00  0.00     0.034 C 
BRANCH  23  25
HETATM   25  C   UNL     1      -2.823   7.702 -31.305  1.00  0.00     0.259 C 
BRANCH  25  26
HETATM   26  N   UNL     1      -2.755   6.737 -32.478  1.00  0.00    -0.069 N 
HETATM   27  H   UNL     1      -2.302   5.915 -32.055  1.00  0.00     0.280 HD
HETATM   28  C   UNL     1      -4.071   6.243 -33.010  1.00  0.00     0.239 C 
HETATM   29  C   UNL     1      -3.823   5.004 -33.876  1.00  0.00     0.007 C 
HETATM   30  C   UNL     1      -2.840   5.325 -35.010  1.00  0.00     0.007 C 
HETATM   31  C   UNL     1      -5.141   4.474 -34.438  1.00  0.00     0.011 C 
HETATM   32  C   UNL     1      -1.547   5.937 -34.475  1.00  0.00     0.028 C 
HETATM   33  C   UNL     1      -1.814   7.148 -33.586  1.00  0.00     0.235 C 
ENDBRANCH  25  26
ENDBRANCH  23  25
ENDBRANCH   3  23
TORSDOF 6
ENDMDL
