MODEL 1
REMARK VINA RESULT:      -8.4      0.000      0.000
REMARK  5 active torsions:
REMARK  status: ('A' for Active; 'I' for Inactive)
REMARK    1  A    between atoms: O_2  and  C_3 
REMARK    2  A    between atoms: C_4  and  N_5 
REMARK    3  A    between atoms: N_5  and  C_6 
REMARK    4  A    between atoms: C_6  and  C_7 
REMARK       I    between atoms: C_7  and  N_8 
REMARK    5  A    between atoms: N_8  and  C_9 
ROOT
HETATM    1  C   UNL     1      -4.597   1.531 -31.633  1.00  0.00     0.235 C 
HETATM    2  N   UNL     1      -4.482   0.859 -32.840  1.00  0.00    -0.325 N 
HETATM    3  O   UNL     1      -5.597   1.588 -30.919  1.00  0.00    -0.272 OA
HETATM    4  H   UNL     1      -3.547   0.773 -33.206  1.00  0.00     0.169 HD
ENDROOT
BRANCH   1   5
HETATM    5  C   UNL     1      -3.299   2.229 -31.189  1.00  0.00     0.195 C 
BRANCH   5   6
HETATM    6  N   UNL     1      -3.506   3.684 -31.161  1.00  0.00    -0.282 NA
HETATM    7  H   UNL     1      -4.510   3.901 -31.131  1.00  0.00     0.128 HD
BRANCH   6   8
HETATM    8  C   UNL     1      -2.979   4.357 -32.288  1.00  0.00     0.042 A 
HETATM    9  C   UNL     1      -1.647   4.814 -32.268  1.00  0.00     0.089 A 
HETATM   10  C   UNL     1      -1.082   5.457 -33.369  1.00  0.00     0.038 A 
HETATM   11  C   UNL     1      -1.856   5.671 -34.507  1.00  0.00     0.003 A 
HETATM   12  C   UNL     1      -3.180   5.227 -34.544  1.00  0.00     0.002 A 
HETATM   13  C   UNL     1      -3.736   4.567 -33.444  1.00  0.00     0.026 A 
BRANCH   9  14
HETATM   14  O   UNL     1      -0.888   4.585 -31.145  1.00  0.00    -0.354 OA
HETATM   15  C   UNL     1       0.208   5.501 -31.096  1.00  0.00     0.210 C 
ENDBRANCH   9  14
ENDBRANCH   6   8
ENDBRANCH   5   6
ENDBRANCH   1   5
BRANCH   2  16
HETATM   16  C   UNL     1      -5.509   0.206 -33.576  1.00  0.00     0.045 A 
HETATM   17  C   UNL     1      -5.377  -1.186 -33.893  1.00  0.00     0.001 A 
HETATM   18  C   UNL     1      -6.401  -1.805 -34.661  1.00  0.00    -0.024 A 
HETATM   19  C   UNL     1      -4.295  -2.016 -33.494  1.00  0.00     0.014 A 
HETATM   20  C   UNL     1      -6.317  -3.166 -35.002  1.00  0.00     0.012 A 
HETATM   21  C   UNL     1      -7.510  -1.065 -35.088  1.00  0.00     0.012 A 
HETATM   22  C   UNL     1      -5.237  -3.943 -34.596  1.00  0.00     0.001 A 
HETATM   23  C   UNL     1      -4.227  -3.370 -33.841  1.00  0.00     0.001 A 
HETATM   24  C   UNL     1      -7.627   0.283 -34.772  1.00  0.00     0.003 A 
HETATM   25  C   UNL     1      -6.635   0.911 -34.025  1.00  0.00     0.030 A 
ENDBRANCH   2  16
TORSDOF 5
ENDMDL
MODEL 2
REMARK VINA RESULT:      -8.3      1.156      2.002
REMARK  5 active torsions:
REMARK  status: ('A' for Active; 'I' for Inactive)
REMARK    1  A    between atoms: O_2  and  C_3 
REMARK    2  A    between atoms: C_4  and  N_5 
REMARK    3  A    between atoms: N_5  and  C_6 
REMARK    4  A    between atoms: C_6  and  C_7 
REMARK       I    between atoms: C_7  and  N_8 
REMARK    5  A    between atoms: N_8  and  C_9 
ROOT
HETATM    1  C   UNL     1      -4.590   1.551 -31.541  1.00  0.00     0.235 C 
HETATM    2  N   UNL     1      -4.607   1.183 -32.877  1.00  0.00    -0.325 N 
HETATM    3  O   UNL     1      -5.438   1.275 -30.694  1.00  0.00    -0.272 OA
HETATM    4  H   UNL     1      -3.753   1.346 -33.387  1.00  0.00     0.169 HD
ENDROOT
BRANCH   1   5
HETATM    5  C   UNL     1      -3.343   2.359 -31.138  1.00  0.00     0.195 C 
BRANCH   5   6
HETATM    6  N   UNL     1      -3.629   3.796 -31.251  1.00  0.00    -0.282 NA
HETATM    7  H   UNL     1      -4.641   3.952 -31.350  1.00  0.00     0.128 HD
BRANCH   6   8
HETATM    8  C   UNL     1      -3.012   4.416 -32.363  1.00  0.00     0.042 A 
HETATM    9  C   UNL     1      -3.754   4.635 -33.540  1.00  0.00     0.089 A 
HETATM   10  C   UNL     1      -3.190   5.269 -34.647  1.00  0.00     0.038 A 
HETATM   11  C   UNL     1      -1.858   5.674 -34.599  1.00  0.00     0.003 A 
HETATM   12  C   UNL     1      -1.106   5.462 -33.441  1.00  0.00     0.002 A 
HETATM   13  C   UNL     1      -1.682   4.843 -32.327  1.00  0.00     0.026 A 
BRANCH   9  14
HETATM   14  O   UNL     1      -5.071   4.244 -33.572  1.00  0.00    -0.354 OA
HETATM   15  C   UNL     1      -5.925   5.389 -33.560  1.00  0.00     0.210 C 
ENDBRANCH   9  14
ENDBRANCH   6   8
ENDBRANCH   5   6
ENDBRANCH   1   5
BRANCH   2  16
HETATM   16  C   UNL     1      -5.649   0.529 -33.588  1.00  0.00     0.045 A 
HETATM   17  C   UNL     1      -5.520  -0.862 -33.916  1.00  0.00     0.001 A 
HETATM   18  C   UNL     1      -6.561  -1.482 -34.659  1.00  0.00    -0.024 A 
HETATM   19  C   UNL     1      -4.424  -1.688 -33.551  1.00  0.00     0.014 A 
HETATM   20  C   UNL     1      -6.480  -2.840 -35.009  1.00  0.00     0.012 A 
HETATM   21  C   UNL     1      -7.685  -0.745 -35.052  1.00  0.00     0.012 A 
HETATM   22  C   UNL     1      -5.386  -3.614 -34.637  1.00  0.00     0.001 A 
HETATM   23  C   UNL     1      -4.358  -3.040 -33.906  1.00  0.00     0.001 A 
HETATM   24  C   UNL     1      -7.800   0.601 -34.726  1.00  0.00     0.003 A 
HETATM   25  C   UNL     1      -6.791   1.230 -34.004  1.00  0.00     0.030 A 
ENDBRANCH   2  16
TORSDOF 5
ENDMDL
MODEL 3
REMARK VINA RESULT:      -8.3      1.145      2.477
REMARK  5 active torsions:
REMARK  status: ('A' for Active; 'I' for Inactive)
REMARK    1  A    between atoms: O_2  and  C_3 
REMARK    2  A    between atoms: C_4  and  N_5 
REMARK    3  A    between atoms: N_5  and  C_6 
REMARK    4  A    between atoms: C_6  and  C_7 
REMARK       I    between atoms: C_7  and  N_8 
REMARK    5  A    between atoms: N_8  and  C_9 
ROOT
HETATM    1  C   UNL     1      -4.290   2.095 -31.166  1.00  0.00     0.235 C 
HETATM    2  N   UNL     1      -3.668   1.371 -32.170  1.00  0.00    -0.325 N 
HETATM    3  O   UNL     1      -5.083   1.660 -30.333  1.00  0.00    -0.272 OA
HETATM    4  H   UNL     1      -2.921   1.844 -32.654  1.00  0.00     0.169 HD
ENDROOT
BRANCH   1   5
HETATM    5  C   UNL     1      -3.880   3.578 -31.130  1.00  0.00     0.195 C 
BRANCH   5   6
HETATM    6  N   UNL     1      -2.416   3.688 -31.190  1.00  0.00    -0.282 NA
HETATM    7  H   UNL     1      -2.038   3.939 -30.267  1.00  0.00     0.128 HD
BRANCH   6   8
HETATM    8  C   UNL     1      -1.954   4.669 -32.098  1.00  0.00     0.042 A 
HETATM    9  C   UNL     1      -1.222   5.773 -31.621  1.00  0.00     0.089 A 
HETATM   10  C   UNL     1      -0.725   6.746 -32.487  1.00  0.00     0.038 A 
HETATM   11  C   UNL     1      -0.975   6.638 -33.854  1.00  0.00     0.003 A 
HETATM   12  C   UNL     1      -1.702   5.551 -34.345  1.00  0.00     0.002 A 
HETATM   13  C   UNL     1      -2.182   4.568 -33.474  1.00  0.00     0.026 A 
BRANCH   9  14
HETATM   14  O   UNL     1      -0.969   5.863 -30.273  1.00  0.00    -0.354 OA
HETATM   15  C   UNL     1       0.388   5.505 -30.001  1.00  0.00     0.210 C 
ENDBRANCH   9  14
ENDBRANCH   6   8
ENDBRANCH   5   6
ENDBRANCH   1   5
BRANCH   2  16
HETATM   16  C   UNL     1      -3.899   0.018 -32.541  1.00  0.00     0.045 A 
HETATM   17  C   UNL     1      -5.012  -0.305 -33.386  1.00  0.00     0.001 A 
HETATM   18  C   UNL     1      -5.240  -1.670 -33.712  1.00  0.00    -0.024 A 
HETATM   19  C   UNL     1      -5.918   0.638 -33.939  1.00  0.00     0.014 A 
HETATM   20  C   UNL     1      -6.319  -2.040 -34.532  1.00  0.00     0.012 A 
HETATM   21  C   UNL     1      -4.389  -2.667 -33.219  1.00  0.00     0.012 A 
HETATM   22  C   UNL     1      -7.189  -1.085 -35.050  1.00  0.00     0.001 A 
HETATM   23  C   UNL     1      -6.988   0.254 -34.756  1.00  0.00     0.001 A 
HETATM   24  C   UNL     1      -3.313  -2.341 -32.404  1.00  0.00     0.003 A 
HETATM   25  C   UNL     1      -3.073  -1.012 -32.067  1.00  0.00     0.030 A 
ENDBRANCH   2  16
TORSDOF 5
ENDMDL
MODEL 4
REMARK VINA RESULT:      -8.2      4.082      7.168
REMARK  5 active torsions:
REMARK  status: ('A' for Active; 'I' for Inactive)
REMARK    1  A    between atoms: O_2  and  C_3 
REMARK    2  A    between atoms: C_4  and  N_5 
REMARK    3  A    between atoms: N_5  and  C_6 
REMARK    4  A    between atoms: C_6  and  C_7 
REMARK       I    between atoms: C_7  and  N_8 
REMARK    5  A    between atoms: N_8  and  C_9 
ROOT
HETATM    1  C   UNL     1      -7.729   1.663 -32.377  1.00  0.00     0.235 C 
HETATM    2  N   UNL     1      -7.295   0.464 -31.833  1.00  0.00    -0.325 N 
HETATM    3  O   UNL     1      -7.121   2.361 -33.187  1.00  0.00    -0.272 OA
HETATM    4  H   UNL     1      -7.987  -0.060 -31.320  1.00  0.00     0.169 HD
ENDROOT
BRANCH   1   5
HETATM    5  C   UNL     1      -9.128   2.088 -31.899  1.00  0.00     0.195 C 
BRANCH   5   6
HETATM    6  N   UNL     1     -10.144   1.221 -32.512  1.00  0.00    -0.282 NA
HETATM    7  H   UNL     1      -9.705   0.377 -32.901  1.00  0.00     0.128 HD
BRANCH   6   8
HETATM    8  C   UNL     1     -10.854   1.834 -33.572  1.00  0.00     0.042 A 
HETATM    9  C   UNL     1     -12.022   1.228 -34.072  1.00  0.00     0.089 A 
HETATM   10  C   UNL     1     -12.765   1.816 -35.096  1.00  0.00     0.038 A 
HETATM   11  C   UNL     1     -12.332   3.017 -35.653  1.00  0.00     0.003 A 
HETATM   12  C   UNL     1     -11.173   3.631 -35.171  1.00  0.00     0.002 A 
HETATM   13  C   UNL     1     -10.442   3.047 -34.132  1.00  0.00     0.026 A 
BRANCH   9  14
HETATM   14  O   UNL     1     -12.449   0.051 -33.506  1.00  0.00    -0.354 OA
HETATM   15  C   UNL     1     -13.872  -0.050 -33.590  1.00  0.00     0.210 C 
ENDBRANCH   9  14
ENDBRANCH   6   8
ENDBRANCH   5   6
ENDBRANCH   1   5
BRANCH   2  16
HETATM   16  C   UNL     1      -6.023  -0.152 -31.982  1.00  0.00     0.045 A 
HETATM   17  C   UNL     1      -5.840  -1.165 -32.981  1.00  0.00     0.001 A 
HETATM   18  C   UNL     1      -4.567  -1.791 -33.085  1.00  0.00    -0.024 A 
HETATM   19  C   UNL     1      -6.836  -1.601 -33.895  1.00  0.00     0.014 A 
HETATM   20  C   UNL     1      -4.337  -2.791 -34.044  1.00  0.00     0.012 A 
HETATM   21  C   UNL     1      -3.523  -1.415 -32.231  1.00  0.00     0.012 A 
HETATM   22  C   UNL     1      -5.342  -3.194 -34.918  1.00  0.00     0.001 A 
HETATM   23  C   UNL     1      -6.591  -2.598 -34.846  1.00  0.00     0.001 A 
HETATM   24  C   UNL     1      -3.712  -0.430 -31.269  1.00  0.00     0.003 A 
HETATM   25  C   UNL     1      -4.951   0.192 -31.146  1.00  0.00     0.030 A 
ENDBRANCH   2  16
TORSDOF 5
ENDMDL
MODEL 5
REMARK VINA RESULT:      -8.2      4.534      7.905
REMARK  5 active torsions:
REMARK  status: ('A' for Active; 'I' for Inactive)
REMARK    1  A    between atoms: O_2  and  C_3 
REMARK    2  A    between atoms: C_4  and  N_5 
REMARK    3  A    between atoms: N_5  and  C_6 
REMARK    4  A    between atoms: C_6  and  C_7 
REMARK       I    between atoms: C_7  and  N_8 
REMARK    5  A    between atoms: N_8  and  C_9 
ROOT
HETATM    1  C   UNL     1      -8.895   0.680 -33.727  1.00  0.00     0.235 C 
HETATM    2  N   UNL     1      -8.124  -0.271 -33.079  1.00  0.00    -0.325 N 
HETATM    3  O   UNL     1      -8.536   1.408 -34.652  1.00  0.00    -0.272 OA
HETATM    4  H   UNL     1      -8.623  -0.894 -32.463  1.00  0.00     0.169 HD
ENDROOT
BRANCH   1   5
HETATM    5  C   UNL     1     -10.342   0.761 -33.208  1.00  0.00     0.195 C 
BRANCH   5   6
HETATM    6  N   UNL     1     -11.156   1.559 -34.137  1.00  0.00    -0.282 NA
HETATM    7  H   UNL     1     -10.861   2.544 -34.114  1.00  0.00     0.128 HD
BRANCH   6   8
HETATM    8  C   UNL     1     -12.539   1.542 -33.842  1.00  0.00     0.042 A 
HETATM    9  C   UNL     1     -13.084   2.527 -32.996  1.00  0.00     0.089 A 
HETATM   10  C   UNL     1     -14.448   2.562 -32.704  1.00  0.00     0.038 A 
HETATM   11  C   UNL     1     -15.287   1.589 -33.243  1.00  0.00     0.003 A 
HETATM   12  C   UNL     1     -14.764   0.603 -34.081  1.00  0.00     0.002 A 
HETATM   13  C   UNL     1     -13.399   0.584 -34.385  1.00  0.00     0.026 A 
BRANCH   9  14
HETATM   14  O   UNL     1     -12.249   3.490 -32.481  1.00  0.00    -0.354 OA
HETATM   15  C   UNL     1     -12.581   4.770 -33.022  1.00  0.00     0.210 C 
ENDBRANCH   9  14
ENDBRANCH   6   8
ENDBRANCH   5   6
ENDBRANCH   1   5
BRANCH   2  16
HETATM   16  C   UNL     1      -6.735  -0.527 -33.242  1.00  0.00     0.045 A 
HETATM   17  C   UNL     1      -6.307  -1.758 -33.841  1.00  0.00     0.001 A 
HETATM   18  C   UNL     1      -4.911  -2.003 -33.958  1.00  0.00    -0.024 A 
HETATM   19  C   UNL     1      -7.172  -2.768 -34.339  1.00  0.00     0.014 A 
HETATM   20  C   UNL     1      -4.440  -3.196 -34.533  1.00  0.00     0.012 A 
HETATM   21  C   UNL     1      -3.986  -1.056 -33.503  1.00  0.00     0.012 A 
HETATM   22  C   UNL     1      -5.321  -4.164 -35.004  1.00  0.00     0.001 A 
HETATM   23  C   UNL     1      -6.687  -3.950 -34.910  1.00  0.00     0.001 A 
HETATM   24  C   UNL     1      -4.413   0.134 -32.928  1.00  0.00     0.003 A 
HETATM   25  C   UNL     1      -5.774   0.393 -32.797  1.00  0.00     0.030 A 
ENDBRANCH   2  16
TORSDOF 5
ENDMDL
MODEL 6
REMARK VINA RESULT:      -8.1      1.457      2.210
REMARK  5 active torsions:
REMARK  status: ('A' for Active; 'I' for Inactive)
REMARK    1  A    between atoms: O_2  and  C_3 
REMARK    2  A    between atoms: C_4  and  N_5 
REMARK    3  A    between atoms: N_5  and  C_6 
REMARK    4  A    between atoms: C_6  and  C_7 
REMARK       I    between atoms: C_7  and  N_8 
REMARK    5  A    between atoms: N_8  and  C_9 
ROOT
HETATM    1  C   UNL     1      -4.835   3.147 -32.309  1.00  0.00     0.235 C 
HETATM    2  N   UNL     1      -5.300   1.847 -32.195  1.00  0.00    -0.325 N 
HETATM    3  O   UNL     1      -5.062   3.928 -33.232  1.00  0.00    -0.272 OA
HETATM    4  H   UNL     1      -5.161   1.409 -31.298  1.00  0.00     0.169 HD
ENDROOT
BRANCH   1   5
HETATM    5  C   UNL     1      -3.980   3.605 -31.114  1.00  0.00     0.195 C 
BRANCH   5   6
HETATM    6  N   UNL     1      -2.555   3.466 -31.445  1.00  0.00    -0.282 NA
HETATM    7  H   UNL     1      -2.064   2.956 -30.699  1.00  0.00     0.128 HD
BRANCH   6   8
HETATM    8  C   UNL     1      -1.883   4.700 -31.604  1.00  0.00     0.042 A 
HETATM    9  C   UNL     1      -1.584   5.171 -32.897  1.00  0.00     0.089 A 
HETATM   10  C   UNL     1      -0.948   6.396 -33.096  1.00  0.00     0.038 A 
HETATM   11  C   UNL     1      -0.580   7.163 -31.993  1.00  0.00     0.003 A 
HETATM   12  C   UNL     1      -0.865   6.711 -30.703  1.00  0.00     0.002 A 
HETATM   13  C   UNL     1      -1.520   5.490 -30.509  1.00  0.00     0.026 A 
BRANCH   9  14
HETATM   14  O   UNL     1      -1.964   4.413 -33.979  1.00  0.00    -0.354 OA
HETATM   15  C   UNL     1      -2.460   5.255 -35.021  1.00  0.00     0.210 C 
ENDBRANCH   9  14
ENDBRANCH   6   8
ENDBRANCH   5   6
ENDBRANCH   1   5
BRANCH   2  16
HETATM   16  C   UNL     1      -6.021   1.090 -33.159  1.00  0.00     0.045 A 
HETATM   17  C   UNL     1      -5.579  -0.232 -33.497  1.00  0.00     0.001 A 
HETATM   18  C   UNL     1      -6.297  -0.952 -34.490  1.00  0.00    -0.024 A 
HETATM   19  C   UNL     1      -4.469  -0.896 -32.911  1.00  0.00     0.014 A 
HETATM   20  C   UNL     1      -5.903  -2.248 -34.861  1.00  0.00     0.012 A 
HETATM   21  C   UNL     1      -7.412  -0.377 -35.113  1.00  0.00     0.012 A 
HETATM   22  C   UNL     1      -4.806  -2.863 -34.266  1.00  0.00     0.001 A 
HETATM   23  C   UNL     1      -4.089  -2.189 -33.290  1.00  0.00     0.001 A 
HETATM   24  C   UNL     1      -7.832   0.903 -34.775  1.00  0.00     0.003 A 
HETATM   25  C   UNL     1      -7.141   1.629 -33.809  1.00  0.00     0.030 A 
ENDBRANCH   2  16
TORSDOF 5
ENDMDL
MODEL 7
REMARK VINA RESULT:      -8.1      1.287      3.066
REMARK  5 active torsions:
REMARK  status: ('A' for Active; 'I' for Inactive)
REMARK    1  A    between atoms: O_2  and  C_3 
REMARK    2  A    between atoms: C_4  and  N_5 
REMARK    3  A    between atoms: N_5  and  C_6 
REMARK    4  A    between atoms: C_6  and  C_7 
REMARK       I    between atoms: C_7  and  N_8 
REMARK    5  A    between atoms: N_8  and  C_9 
ROOT
HETATM    1  C   UNL     1      -4.315   2.297 -31.232  1.00  0.00     0.235 C 
HETATM    2  N   UNL     1      -3.855   1.626 -32.354  1.00  0.00    -0.325 N 
HETATM    3  O   UNL     1      -5.093   1.859 -30.385  1.00  0.00    -0.272 OA
HETATM    4  H   UNL     1      -3.093   2.067 -32.846  1.00  0.00     0.169 HD
ENDROOT
BRANCH   1   5
HETATM    5  C   UNL     1      -3.734   3.713 -31.077  1.00  0.00     0.195 C 
BRANCH   5   6
HETATM    6  N   UNL     1      -2.277   3.673 -31.267  1.00  0.00    -0.282 NA
HETATM    7  H   UNL     1      -1.806   3.479 -30.373  1.00  0.00     0.128 HD
BRANCH   6   8
HETATM    8  C   UNL     1      -1.732   4.882 -31.758  1.00  0.00     0.042 A 
HETATM    9  C   UNL     1      -1.984   5.272 -33.088  1.00  0.00     0.089 A 
HETATM   10  C   UNL     1      -1.488   6.470 -33.601  1.00  0.00     0.038 A 
HETATM   11  C   UNL     1      -0.708   7.291 -32.789  1.00  0.00     0.003 A 
HETATM   12  C   UNL     1      -0.446   6.920 -31.469  1.00  0.00     0.002 A 
HETATM   13  C   UNL     1      -0.961   5.726 -30.954  1.00  0.00     0.026 A 
BRANCH   9  14
HETATM   14  O   UNL     1      -2.765   4.461 -33.876  1.00  0.00    -0.354 OA
HETATM   15  C   UNL     1      -3.351   5.220 -34.935  1.00  0.00     0.210 C 
ENDBRANCH   9  14
ENDBRANCH   6   8
ENDBRANCH   5   6
ENDBRANCH   1   5
BRANCH   2  16
HETATM   16  C   UNL     1      -4.267   0.356 -32.842  1.00  0.00     0.045 A 
HETATM   17  C   UNL     1      -5.467   0.252 -33.621  1.00  0.00     0.001 A 
HETATM   18  C   UNL     1      -5.876  -1.035 -34.065  1.00  0.00    -0.024 A 
HETATM   19  C   UNL     1      -6.294   1.344 -33.996  1.00  0.00     0.014 A 
HETATM   20  C   UNL     1      -7.046  -1.191 -34.827  1.00  0.00     0.012 A 
HETATM   21  C   UNL     1      -5.113  -2.167 -33.750  1.00  0.00     0.012 A 
HETATM   22  C   UNL     1      -7.833  -0.097 -35.170  1.00  0.00     0.001 A 
HETATM   23  C   UNL     1      -7.457   1.172 -34.757  1.00  0.00     0.001 A 
HETATM   24  C   UNL     1      -3.951  -2.052 -32.998  1.00  0.00     0.003 A 
HETATM   25  C   UNL     1      -3.535  -0.803 -32.548  1.00  0.00     0.030 A 
ENDBRANCH   2  16
TORSDOF 5
ENDMDL
MODEL 8
REMARK VINA RESULT:      -8.0      4.183      6.192
REMARK  5 active torsions:
REMARK  status: ('A' for Active; 'I' for Inactive)
REMARK    1  A    between atoms: O_2  and  C_3 
REMARK    2  A    between atoms: C_4  and  N_5 
REMARK    3  A    between atoms: N_5  and  C_6 
REMARK    4  A    between atoms: C_6  and  C_7 
REMARK       I    between atoms: C_7  and  N_8 
REMARK    5  A    between atoms: N_8  and  C_9 
ROOT
HETATM    1  C   UNL     1      -8.900   0.168 -32.765  1.00  0.00     0.235 C 
HETATM    2  N   UNL     1      -8.044  -0.212 -33.787  1.00  0.00    -0.325 N 
HETATM    3  O   UNL     1      -8.594   0.372 -31.591  1.00  0.00    -0.272 OA
HETATM    4  H   UNL     1      -8.427  -0.168 -34.718  1.00  0.00     0.169 HD
ENDROOT
BRANCH   1   5
HETATM    5  C   UNL     1     -10.357   0.365 -33.221  1.00  0.00     0.195 C 
BRANCH   5   6
HETATM    6  N   UNL     1     -10.890   1.609 -32.648  1.00  0.00    -0.282 NA
HETATM    7  H   UNL     1     -11.774   1.425 -32.156  1.00  0.00     0.128 HD
BRANCH   6   8
HETATM    8  C   UNL     1     -11.161   2.610 -33.609  1.00  0.00     0.042 A 
HETATM    9  C   UNL     1     -10.281   3.699 -33.751  1.00  0.00     0.089 A 
HETATM   10  C   UNL     1     -10.498   4.691 -34.707  1.00  0.00     0.038 A 
HETATM   11  C   UNL     1     -11.623   4.616 -35.526  1.00  0.00     0.003 A 
HETATM   12  C   UNL     1     -12.509   3.545 -35.398  1.00  0.00     0.002 A 
HETATM   13  C   UNL     1     -12.276   2.543 -34.450  1.00  0.00     0.026 A 
BRANCH   9  14
HETATM   14  O   UNL     1      -9.167   3.756 -32.947  1.00  0.00    -0.354 OA
HETATM   15  C   UNL     1      -7.983   3.631 -33.737  1.00  0.00     0.210 C 
ENDBRANCH   9  14
ENDBRANCH   6   8
ENDBRANCH   5   6
ENDBRANCH   1   5
BRANCH   2  16
HETATM   16  C   UNL     1      -6.672  -0.572 -33.687  1.00  0.00     0.045 A 
HETATM   17  C   UNL     1      -6.259  -1.897 -34.051  1.00  0.00     0.001 A 
HETATM   18  C   UNL     1      -4.888  -2.241 -33.908  1.00  0.00    -0.024 A 
HETATM   19  C   UNL     1      -7.117  -2.909 -34.557  1.00  0.00     0.014 A 
HETATM   20  C   UNL     1      -4.433  -3.527 -34.246  1.00  0.00     0.012 A 
HETATM   21  C   UNL     1      -3.969  -1.300 -33.427  1.00  0.00     0.012 A 
HETATM   22  C   UNL     1      -5.307  -4.494 -34.733  1.00  0.00     0.001 A 
HETATM   23  C   UNL     1      -6.649  -4.186 -34.891  1.00  0.00     0.001 A 
HETATM   24  C   UNL     1      -4.381  -0.020 -33.080  1.00  0.00     0.003 A 
HETATM   25  C   UNL     1      -5.720   0.338 -33.207  1.00  0.00     0.030 A 
ENDBRANCH   2  16
TORSDOF 5
ENDMDL
MODEL 9
REMARK VINA RESULT:      -7.9      4.515      7.993
REMARK  5 active torsions:
REMARK  status: ('A' for Active; 'I' for Inactive)
REMARK    1  A    between atoms: O_2  and  C_3 
REMARK    2  A    between atoms: C_4  and  N_5 
REMARK    3  A    between atoms: N_5  and  C_6 
REMARK    4  A    between atoms: C_6  and  C_7 
REMARK       I    between atoms: C_7  and  N_8 
REMARK    5  A    between atoms: N_8  and  C_9 
ROOT
HETATM    1  C   UNL     1      -8.780   0.479 -33.831  1.00  0.00     0.235 C 
HETATM    2  N   UNL     1      -8.135  -0.530 -33.134  1.00  0.00    -0.325 N 
HETATM    3  O   UNL     1      -8.459   0.932 -34.929  1.00  0.00    -0.272 OA
HETATM    4  H   UNL     1      -8.628  -0.894 -32.334  1.00  0.00     0.169 HD
ENDROOT
BRANCH   1   5
HETATM    5  C   UNL     1     -10.030   1.023 -33.116  1.00  0.00     0.195 C 
BRANCH   5   6
HETATM    6  N   UNL     1     -10.908   1.685 -34.092  1.00  0.00    -0.282 NA
HETATM    7  H   UNL     1     -10.683   2.686 -34.152  1.00  0.00     0.128 HD
BRANCH   6   8
HETATM    8  C   UNL     1     -12.283   1.597 -33.773  1.00  0.00     0.042 A 
HETATM    9  C   UNL     1     -12.911   2.657 -33.092  1.00  0.00     0.089 A 
HETATM   10  C   UNL     1     -14.272   2.621 -32.786  1.00  0.00     0.038 A 
HETATM   11  C   UNL     1     -15.023   1.503 -33.141  1.00  0.00     0.003 A 
HETATM   12  C   UNL     1     -14.416   0.440 -33.815  1.00  0.00     0.002 A 
HETATM   13  C   UNL     1     -13.056   0.490 -34.136  1.00  0.00     0.026 A 
BRANCH   9  14
HETATM   14  O   UNL     1     -12.164   3.762 -32.758  1.00  0.00    -0.354 OA
HETATM   15  C   UNL     1     -12.912   4.954 -33.002  1.00  0.00     0.210 C 
ENDBRANCH   9  14
ENDBRANCH   6   8
ENDBRANCH   5   6
ENDBRANCH   1   5
BRANCH   2  16
HETATM   16  C   UNL     1      -6.907  -1.168 -33.460  1.00  0.00     0.045 A 
HETATM   17  C   UNL     1      -5.728  -0.867 -32.701  1.00  0.00     0.001 A 
HETATM   18  C   UNL     1      -4.507  -1.493 -33.072  1.00  0.00    -0.024 A 
HETATM   19  C   UNL     1      -5.677   0.014 -31.589  1.00  0.00     0.014 A 
HETATM   20  C   UNL     1      -3.323  -1.228 -32.363  1.00  0.00     0.012 A 
HETATM   21  C   UNL     1      -4.469  -2.385 -34.150  1.00  0.00     0.012 A 
HETATM   22  C   UNL     1      -3.313  -0.353 -31.282  1.00  0.00     0.001 A 
HETATM   23  C   UNL     1      -4.489   0.267 -30.892  1.00  0.00     0.001 A 
HETATM   24  C   UNL     1      -5.618  -2.671 -34.876  1.00  0.00     0.003 A 
HETATM   25  C   UNL     1      -6.824  -2.066 -34.534  1.00  0.00     0.030 A 
ENDBRANCH   2  16
TORSDOF 5
ENDMDL
MODEL 10
REMARK VINA RESULT:      -7.9      3.264      4.937
REMARK  5 active torsions:
REMARK  status: ('A' for Active; 'I' for Inactive)
REMARK    1  A    between atoms: O_2  and  C_3 
REMARK    2  A    between atoms: C_4  and  N_5 
REMARK    3  A    between atoms: N_5  and  C_6 
REMARK    4  A    between atoms: C_6  and  C_7 
REMARK       I    between atoms: C_7  and  N_8 
REMARK    5  A    between atoms: N_8  and  C_9 
ROOT
HETATM    1  C   UNL     1      -8.240   0.456 -34.282  1.00  0.00     0.235 C 
HETATM    2  N   UNL     1      -7.815  -0.576 -33.460  1.00  0.00    -0.325 N 
HETATM    3  O   UNL     1      -7.753   0.777 -35.364  1.00  0.00    -0.272 OA
HETATM    4  H   UNL     1      -8.431  -0.810 -32.696  1.00  0.00     0.169 HD
ENDROOT
BRANCH   1   5
HETATM    5  C   UNL     1      -9.463   1.215 -33.738  1.00  0.00     0.195 C 
BRANCH   5   6
HETATM    6  N   UNL     1      -9.113   2.626 -33.521  1.00  0.00    -0.282 NA
HETATM    7  H   UNL     1      -8.720   3.032 -34.380  1.00  0.00     0.128 HD
BRANCH   6   8
HETATM    8  C   UNL     1      -8.152   2.825 -32.502  1.00  0.00     0.042 A 
HETATM    9  C   UNL     1      -6.932   3.458 -32.807  1.00  0.00     0.089 A 
HETATM   10  C   UNL     1      -5.971   3.698 -31.825  1.00  0.00     0.038 A 
HETATM   11  C   UNL     1      -6.212   3.283 -30.517  1.00  0.00     0.003 A 
HETATM   12  C   UNL     1      -7.415   2.651 -30.196  1.00  0.00     0.002 A 
HETATM   13  C   UNL     1      -8.383   2.430 -31.182  1.00  0.00     0.026 A 
BRANCH   9  14
HETATM   14  O   UNL     1      -6.710   3.875 -34.098  1.00  0.00    -0.354 OA
HETATM   15  C   UNL     1      -5.473   4.585 -34.180  1.00  0.00     0.210 C 
ENDBRANCH   9  14
ENDBRANCH   6   8
ENDBRANCH   5   6
ENDBRANCH   1   5
BRANCH   2  16
HETATM   16  C   UNL     1      -6.665  -1.398 -33.614  1.00  0.00     0.045 A 
HETATM   17  C   UNL     1      -5.483  -1.112 -32.853  1.00  0.00     0.001 A 
HETATM   18  C   UNL     1      -4.336  -1.927 -33.054  1.00  0.00    -0.024 A 
HETATM   19  C   UNL     1      -5.360  -0.069 -31.897  1.00  0.00     0.014 A 
HETATM   20  C   UNL     1      -3.152  -1.686 -32.337  1.00  0.00     0.012 A 
HETATM   21  C   UNL     1      -4.372  -2.985 -33.970  1.00  0.00     0.012 A 
HETATM   22  C   UNL     1      -3.070  -0.650 -31.412  1.00  0.00     0.001 A 
HETATM   23  C   UNL     1      -4.174   0.158 -31.190  1.00  0.00     0.001 A 
HETATM   24  C   UNL     1      -5.524  -3.254 -34.699  1.00  0.00     0.003 A 
HETATM   25  C   UNL     1      -6.657  -2.466 -34.523  1.00  0.00     0.030 A 
ENDBRANCH   2  16
TORSDOF 5
ENDMDL
