MODEL 1
REMARK VINA RESULT:      -7.3      0.000      0.000
REMARK  4 active torsions:
REMARK  status: ('A' for Active; 'I' for Inactive)
REMARK    1  A    between atoms: C_2  and  O_3 
REMARK    2  A    between atoms: C_2  and  C_12 
REMARK    3  A    between atoms: O_3  and  C_4 
REMARK       I    between atoms: C_12  and  N_13 
REMARK    4  A    between atoms: N_13  and  C_14 
ROOT
HETATM    1  C   UNL     1      -7.881   0.381 -35.011  1.00  0.00     0.050 C 
HETATM    2  C   UNL     1      -7.798   0.370 -33.486  1.00  0.00     0.217 C 
ENDROOT
BRANCH   2   3
HETATM    3  O   UNL     1      -7.252  -0.871 -32.995  1.00  0.00    -0.336 OA
BRANCH   3   4
HETATM    4  C   UNL     1      -5.998  -0.734 -32.461  1.00  0.00     0.087 A 
HETATM    5  C   UNL     1      -4.879  -1.406 -32.966  1.00  0.00     0.047 A 
HETATM    6 BR   UNL     1      -4.996  -2.566 -34.463  1.00  0.00    -0.048 Br
HETATM    7  C   UNL     1      -3.623  -1.192 -32.394  1.00  0.00     0.064 A 
HETATM    8  C   UNL     1      -3.495  -0.287 -31.347  1.00  0.00     0.117 A 
HETATM    9  F   UNL     1      -2.291  -0.078 -30.800  1.00  0.00    -0.206 F 
HETATM   10  C   UNL     1      -4.592   0.421 -30.868  1.00  0.00     0.045 A 
HETATM   11  C   UNL     1      -5.847   0.205 -31.435  1.00  0.00     0.041 A 
ENDBRANCH   3   4
ENDBRANCH   2   3
BRANCH   2  12
HETATM   12  C   UNL     1      -9.207   0.538 -32.875  1.00  0.00     0.252 C 
HETATM   13  N   UNL     1     -10.146   0.884 -33.832  1.00  0.00    -0.309 N 
HETATM   14  H   UNL     1      -9.795   1.039 -34.769  1.00  0.00     0.170 HD
HETATM   15  O   UNL     1      -9.420   0.313 -31.688  1.00  0.00    -0.270 OA
BRANCH  13  16
HETATM   16  C   UNL     1     -11.500   1.143 -33.595  1.00  0.00     0.129 A 
HETATM   17  N   UNL     1     -11.917   2.374 -33.251  1.00  0.00    -0.242 NA
HETATM   18  C   UNL     1     -13.243   2.569 -33.060  1.00  0.00     0.142 A 
HETATM   19  C   UNL     1     -14.191   1.571 -33.193  1.00  0.00     0.051 A 
HETATM   20 CL   UNL     1     -15.857   1.889 -32.941  1.00  0.00    -0.083 Cl
HETATM   21  C   UNL     1     -13.755   0.301 -33.541  1.00  0.00     0.029 A 
HETATM   22  C   UNL     1     -12.390   0.082 -33.747  1.00  0.00     0.052 A 
ENDBRANCH  13  16
ENDBRANCH   2  12
TORSDOF 4
ENDMDL
MODEL 2
REMARK VINA RESULT:      -7.3      6.128      7.993
REMARK  4 active torsions:
REMARK  status: ('A' for Active; 'I' for Inactive)
REMARK    1  A    between atoms: C_2  and  O_3 
REMARK    2  A    between atoms: C_2  and  C_12 
REMARK    3  A    between atoms: O_3  and  C_4 
REMARK       I    between atoms: C_12  and  N_13 
REMARK    4  A    between atoms: N_13  and  C_14 
ROOT
HETATM    1  C   UNL     1      -5.441  -0.137 -31.147  1.00  0.00     0.050 C 
HETATM    2  C   UNL     1      -5.482   0.652 -32.455  1.00  0.00     0.217 C 
ENDROOT
BRANCH   2   3
HETATM    3  O   UNL     1      -4.650   0.045 -33.464  1.00  0.00    -0.336 OA
BRANCH   3   4
HETATM    4  C   UNL     1      -5.121  -1.169 -33.892  1.00  0.00     0.087 A 
HETATM    5  C   UNL     1      -6.339  -1.316 -34.567  1.00  0.00     0.047 A 
HETATM    6 BR   UNL     1      -7.449   0.169 -34.969  1.00  0.00    -0.048 Br
HETATM    7  C   UNL     1      -6.742  -2.579 -35.006  1.00  0.00     0.064 A 
HETATM    8  C   UNL     1      -5.910  -3.673 -34.793  1.00  0.00     0.117 A 
HETATM    9  F   UNL     1      -6.294  -4.883 -35.217  1.00  0.00    -0.206 F 
HETATM   10  C   UNL     1      -4.678  -3.530 -34.166  1.00  0.00     0.045 A 
HETATM   11  C   UNL     1      -4.276  -2.271 -33.724  1.00  0.00     0.041 A 
ENDBRANCH   3   4
ENDBRANCH   2   3
BRANCH   2  12
HETATM   12  C   UNL     1      -4.968   2.090 -32.225  1.00  0.00     0.252 C 
HETATM   13  N   UNL     1      -3.633   2.222 -32.568  1.00  0.00    -0.309 N 
HETATM   14  H   UNL     1      -3.159   1.377 -32.858  1.00  0.00     0.170 HD
HETATM   15  O   UNL     1      -5.718   2.983 -31.845  1.00  0.00    -0.270 OA
BRANCH  13  16
HETATM   16  C   UNL     1      -2.867   3.386 -32.443  1.00  0.00     0.129 A 
HETATM   17  N   UNL     1      -2.283   3.704 -31.274  1.00  0.00    -0.242 NA
HETATM   18  C   UNL     1      -1.531   4.830 -31.222  1.00  0.00     0.142 A 
HETATM   19  C   UNL     1      -1.336   5.672 -32.301  1.00  0.00     0.051 A 
HETATM   20 CL   UNL     1      -0.368   7.080 -32.166  1.00  0.00    -0.083 Cl
HETATM   21  C   UNL     1      -1.947   5.343 -33.503  1.00  0.00     0.029 A 
HETATM   22  C   UNL     1      -2.722   4.182 -33.576  1.00  0.00     0.052 A 
ENDBRANCH  13  16
ENDBRANCH   2  12
TORSDOF 4
ENDMDL
MODEL 3
REMARK VINA RESULT:      -7.3      6.152      7.901
REMARK  4 active torsions:
REMARK  status: ('A' for Active; 'I' for Inactive)
REMARK    1  A    between atoms: C_2  and  O_3 
REMARK    2  A    between atoms: C_2  and  C_12 
REMARK    3  A    between atoms: O_3  and  C_4 
REMARK       I    between atoms: C_12  and  N_13 
REMARK    4  A    between atoms: N_13  and  C_14 
ROOT
HETATM    1  C   UNL     1      -6.108   0.099 -30.807  1.00  0.00     0.050 C 
HETATM    2  C   UNL     1      -5.497   0.637 -32.099  1.00  0.00     0.217 C 
ENDROOT
BRANCH   2   3
HETATM    3  O   UNL     1      -4.400  -0.184 -32.548  1.00  0.00    -0.336 OA
BRANCH   3   4
HETATM    4  C   UNL     1      -4.797  -1.216 -33.357  1.00  0.00     0.087 A 
HETATM    5  C   UNL     1      -4.267  -2.509 -33.255  1.00  0.00     0.047 A 
HETATM    6 BR   UNL     1      -2.951  -2.954 -31.963  1.00  0.00    -0.048 Br
HETATM    7  C   UNL     1      -4.743  -3.522 -34.089  1.00  0.00     0.064 A 
HETATM    8  C   UNL     1      -5.762  -3.241 -34.992  1.00  0.00     0.117 A 
HETATM    9  F   UNL     1      -6.222  -4.214 -35.789  1.00  0.00    -0.206 F 
HETATM   10  C   UNL     1      -6.328  -1.974 -35.068  1.00  0.00     0.045 A 
HETATM   11  C   UNL     1      -5.851  -0.960 -34.240  1.00  0.00     0.041 A 
ENDBRANCH   3   4
ENDBRANCH   2   3
BRANCH   2  12
HETATM   12  C   UNL     1      -4.955   2.066 -31.877  1.00  0.00     0.252 C 
HETATM   13  N   UNL     1      -3.702   2.237 -32.443  1.00  0.00    -0.309 N 
HETATM   14  H   UNL     1      -3.286   1.417 -32.865  1.00  0.00     0.170 HD
HETATM   15  O   UNL     1      -5.627   2.925 -31.316  1.00  0.00    -0.270 OA
BRANCH  13  16
HETATM   16  C   UNL     1      -2.929   3.401 -32.385  1.00  0.00     0.129 A 
HETATM   17  N   UNL     1      -2.227   3.707 -31.280  1.00  0.00    -0.242 NA
HETATM   18  C   UNL     1      -1.475   4.834 -31.294  1.00  0.00     0.142 A 
HETATM   19  C   UNL     1      -1.396   5.690 -32.378  1.00  0.00     0.051 A 
HETATM   20 CL   UNL     1      -0.421   7.099 -32.328  1.00  0.00    -0.083 Cl
HETATM   21  C   UNL     1      -2.128   5.372 -33.513  1.00  0.00     0.029 A 
HETATM   22  C   UNL     1      -2.905   4.211 -33.518  1.00  0.00     0.052 A 
ENDBRANCH  13  16
ENDBRANCH   2  12
TORSDOF 4
ENDMDL
MODEL 4
REMARK VINA RESULT:      -7.2      2.780      3.461
REMARK  4 active torsions:
REMARK  status: ('A' for Active; 'I' for Inactive)
REMARK    1  A    between atoms: C_2  and  O_3 
REMARK    2  A    between atoms: C_2  and  C_12 
REMARK    3  A    between atoms: O_3  and  C_4 
REMARK       I    between atoms: C_12  and  N_13 
REMARK    4  A    between atoms: N_13  and  C_14 
ROOT
HETATM    1  C   UNL     1      -6.581   0.179 -30.874  1.00  0.00     0.050 C 
HETATM    2  C   UNL     1      -7.350  -0.045 -32.175  1.00  0.00     0.217 C 
ENDROOT
BRANCH   2   3
HETATM    3  O   UNL     1      -6.481   0.037 -33.323  1.00  0.00    -0.336 OA
BRANCH   3   4
HETATM    4  C   UNL     1      -6.080  -1.190 -33.783  1.00  0.00     0.087 A 
HETATM    5  C   UNL     1      -4.757  -1.640 -33.695  1.00  0.00     0.047 A 
HETATM    6 BR   UNL     1      -3.389  -0.587 -32.908  1.00  0.00    -0.048 Br
HETATM    7  C   UNL     1      -4.425  -2.917 -34.153  1.00  0.00     0.064 A 
HETATM    8  C   UNL     1      -5.424  -3.740 -34.662  1.00  0.00     0.117 A 
HETATM    9  F   UNL     1      -5.108  -4.966 -35.097  1.00  0.00    -0.206 F 
HETATM   10  C   UNL     1      -6.748  -3.321 -34.710  1.00  0.00     0.045 A 
HETATM   11  C   UNL     1      -7.080  -2.045 -34.258  1.00  0.00     0.041 A 
ENDBRANCH   3   4
ENDBRANCH   2   3
BRANCH   2  12
HETATM   12  C   UNL     1      -8.445   1.032 -32.338  1.00  0.00     0.252 C 
HETATM   13  N   UNL     1      -8.843   1.168 -33.657  1.00  0.00    -0.309 N 
HETATM   14  H   UNL     1      -8.342   0.610 -34.336  1.00  0.00     0.170 HD
HETATM   15  O   UNL     1      -8.916   1.617 -31.367  1.00  0.00    -0.270 OA
BRANCH  13  16
HETATM   16  C   UNL     1      -9.789   2.081 -34.137  1.00  0.00     0.129 A 
HETATM   17  N   UNL     1      -9.475   3.378 -34.299  1.00  0.00    -0.242 NA
HETATM   18  C   UNL     1     -10.425   4.208 -34.793  1.00  0.00     0.142 A 
HETATM   19  C   UNL     1     -11.700   3.796 -35.133  1.00  0.00     0.051 A 
HETATM   20 CL   UNL     1     -12.854   4.900 -35.758  1.00  0.00    -0.083 Cl
HETATM   21  C   UNL     1     -12.021   2.457 -34.958  1.00  0.00     0.029 A 
HETATM   22  C   UNL     1     -11.052   1.586 -34.454  1.00  0.00     0.052 A 
ENDBRANCH  13  16
ENDBRANCH   2  12
TORSDOF 4
ENDMDL
MODEL 5
REMARK VINA RESULT:      -7.0      4.339      5.511
REMARK  4 active torsions:
REMARK  status: ('A' for Active; 'I' for Inactive)
REMARK    1  A    between atoms: C_2  and  O_3 
REMARK    2  A    between atoms: C_2  and  C_12 
REMARK    3  A    between atoms: O_3  and  C_4 
REMARK       I    between atoms: C_12  and  N_13 
REMARK    4  A    between atoms: N_13  and  C_14 
ROOT
HETATM    1  C   UNL     1      -3.012  -0.024 -31.272  1.00  0.00     0.050 C 
HETATM    2  C   UNL     1      -4.307  -0.624 -31.816  1.00  0.00     0.217 C 
ENDROOT
BRANCH   2   3
HETATM    3  O   UNL     1      -4.353  -0.566 -33.256  1.00  0.00    -0.336 OA
BRANCH   3   4
HETATM    4  C   UNL     1      -4.960  -1.658 -33.819  1.00  0.00     0.087 A 
HETATM    5  C   UNL     1      -6.189  -1.583 -34.486  1.00  0.00     0.047 A 
HETATM    6 BR   UNL     1      -7.125   0.055 -34.687  1.00  0.00    -0.048 Br
HETATM    7  C   UNL     1      -6.735  -2.730 -35.067  1.00  0.00     0.064 A 
HETATM    8  C   UNL     1      -6.032  -3.928 -35.003  1.00  0.00     0.117 A 
HETATM    9  F   UNL     1      -6.553  -5.027 -35.564  1.00  0.00    -0.206 F 
HETATM   10  C   UNL     1      -4.790  -4.002 -34.385  1.00  0.00     0.045 A 
HETATM   11  C   UNL     1      -4.246  -2.860 -33.801  1.00  0.00     0.041 A 
ENDBRANCH   3   4
ENDBRANCH   2   3
BRANCH   2  12
HETATM   12  C   UNL     1      -5.524   0.158 -31.275  1.00  0.00     0.252 C 
HETATM   13  N   UNL     1      -5.464   1.501 -31.609  1.00  0.00    -0.309 N 
HETATM   14  H   UNL     1      -4.630   1.805 -32.095  1.00  0.00     0.170 HD
HETATM   15  O   UNL     1      -6.438  -0.408 -30.686  1.00  0.00    -0.270 OA
BRANCH  13  16
HETATM   16  C   UNL     1      -6.392   2.480 -31.239  1.00  0.00     0.129 A 
HETATM   17  N   UNL     1      -7.448   2.759 -32.022  1.00  0.00    -0.242 NA
HETATM   18  C   UNL     1      -8.328   3.698 -31.597  1.00  0.00     0.142 A 
HETATM   19  C   UNL     1      -8.196   4.388 -30.407  1.00  0.00     0.051 A 
HETATM   20 CL   UNL     1      -9.350   5.563 -29.928  1.00  0.00    -0.083 Cl
HETATM   21  C   UNL     1      -7.100   4.101 -29.605  1.00  0.00     0.029 A 
HETATM   22  C   UNL     1      -6.185   3.132 -30.025  1.00  0.00     0.052 A 
ENDBRANCH  13  16
ENDBRANCH   2  12
TORSDOF 4
ENDMDL
MODEL 6
REMARK VINA RESULT:      -6.9      5.550      7.657
REMARK  4 active torsions:
REMARK  status: ('A' for Active; 'I' for Inactive)
REMARK    1  A    between atoms: C_2  and  O_3 
REMARK    2  A    between atoms: C_2  and  C_12 
REMARK    3  A    between atoms: O_3  and  C_4 
REMARK       I    between atoms: C_12  and  N_13 
REMARK    4  A    between atoms: N_13  and  C_14 
ROOT
HETATM    1  C   UNL     1      -8.115   2.924 -32.481  1.00  0.00     0.050 C 
HETATM    2  C   UNL     1      -6.884   2.338 -33.170  1.00  0.00     0.217 C 
ENDROOT
BRANCH   2   3
HETATM    3  O   UNL     1      -6.312   1.260 -32.402  1.00  0.00    -0.336 OA
BRANCH   3   4
HETATM    4  C   UNL     1      -6.073   0.136 -33.148  1.00  0.00     0.087 A 
HETATM    5  C   UNL     1      -4.844  -0.534 -33.142  1.00  0.00     0.047 A 
HETATM    6 BR   UNL     1      -3.387   0.052 -32.077  1.00  0.00    -0.048 Br
HETATM    7  C   UNL     1      -4.681  -1.695 -33.900  1.00  0.00     0.064 A 
HETATM    8  C   UNL     1      -5.757  -2.191 -34.628  1.00  0.00     0.117 A 
HETATM    9  F   UNL     1      -5.604  -3.307 -35.352  1.00  0.00    -0.206 F 
HETATM   10  C   UNL     1      -6.995  -1.560 -34.604  1.00  0.00     0.045 A 
HETATM   11  C   UNL     1      -7.158  -0.399 -33.851  1.00  0.00     0.041 A 
ENDBRANCH   3   4
ENDBRANCH   2   3
BRANCH   2  12
HETATM   12  C   UNL     1      -5.800   3.425 -33.336  1.00  0.00     0.252 C 
HETATM   13  N   UNL     1      -4.899   3.420 -32.284  1.00  0.00    -0.309 N 
HETATM   14  H   UNL     1      -5.091   2.770 -31.534  1.00  0.00     0.170 HD
HETATM   15  O   UNL     1      -5.753   4.135 -34.336  1.00  0.00    -0.270 OA
BRANCH  13  16
HETATM   16  C   UNL     1      -3.825   4.302 -32.122  1.00  0.00     0.129 A 
HETATM   17  N   UNL     1      -3.956   5.419 -31.385  1.00  0.00    -0.242 NA
HETATM   18  C   UNL     1      -2.873   6.220 -31.243  1.00  0.00     0.142 A 
HETATM   19  C   UNL     1      -1.643   5.956 -31.817  1.00  0.00     0.051 A 
HETATM   20 CL   UNL     1      -0.311   7.012 -31.592  1.00  0.00    -0.083 Cl
HETATM   21  C   UNL     1      -1.515   4.805 -32.582  1.00  0.00     0.029 A 
HETATM   22  C   UNL     1      -2.621   3.964 -32.736  1.00  0.00     0.052 A 
ENDBRANCH  13  16
ENDBRANCH   2  12
TORSDOF 4
ENDMDL
MODEL 7
REMARK VINA RESULT:      -6.8      6.023      8.322
REMARK  4 active torsions:
REMARK  status: ('A' for Active; 'I' for Inactive)
REMARK    1  A    between atoms: C_2  and  O_3 
REMARK    2  A    between atoms: C_2  and  C_12 
REMARK    3  A    between atoms: O_3  and  C_4 
REMARK       I    between atoms: C_12  and  N_13 
REMARK    4  A    between atoms: N_13  and  C_14 
ROOT
HETATM    1  C   UNL     1      -6.636   3.365 -33.050  1.00  0.00     0.050 C 
HETATM    2  C   UNL     1      -5.569   2.339 -32.670  1.00  0.00     0.217 C 
ENDROOT
BRANCH   2   3
HETATM    3  O   UNL     1      -6.153   1.175 -32.051  1.00  0.00    -0.336 OA
BRANCH   3   4
HETATM    4  C   UNL     1      -6.079   0.054 -32.836  1.00  0.00     0.087 A 
HETATM    5  C   UNL     1      -7.195  -0.500 -33.475  1.00  0.00     0.047 A 
HETATM    6 BR   UNL     1      -8.923   0.268 -33.324  1.00  0.00    -0.048 Br
HETATM    7  C   UNL     1      -7.042  -1.624 -34.289  1.00  0.00     0.064 A 
HETATM    8  C   UNL     1      -5.773  -2.161 -34.480  1.00  0.00     0.117 A 
HETATM    9  F   UNL     1      -5.625  -3.236 -35.264  1.00  0.00    -0.206 F 
HETATM   10  C   UNL     1      -4.653  -1.590 -33.888  1.00  0.00     0.045 A 
HETATM   11  C   UNL     1      -4.805  -0.471 -33.072  1.00  0.00     0.041 A 
ENDBRANCH   3   4
ENDBRANCH   2   3
BRANCH   2  12
HETATM   12  C   UNL     1      -4.571   2.956 -31.666  1.00  0.00     0.252 C 
HETATM   13  N   UNL     1      -3.871   4.015 -32.219  1.00  0.00    -0.309 N 
HETATM   14  H   UNL     1      -4.048   4.208 -33.196  1.00  0.00     0.170 HD
HETATM   15  O   UNL     1      -4.500   2.557 -30.508  1.00  0.00    -0.270 OA
BRANCH  13  16
HETATM   16  C   UNL     1      -2.872   4.758 -31.581  1.00  0.00     0.129 A 
HETATM   17  N   UNL     1      -1.616   4.286 -31.485  1.00  0.00    -0.242 NA
HETATM   18  C   UNL     1      -0.687   5.063 -30.880  1.00  0.00     0.142 A 
HETATM   19  C   UNL     1      -0.959   6.311 -30.350  1.00  0.00     0.051 A 
HETATM   20 CL   UNL     1       0.269   7.245 -29.600  1.00  0.00    -0.083 Cl
HETATM   21  C   UNL     1      -2.257   6.791 -30.446  1.00  0.00     0.029 A 
HETATM   22  C   UNL     1      -3.228   6.005 -31.071  1.00  0.00     0.052 A 
ENDBRANCH  13  16
ENDBRANCH   2  12
TORSDOF 4
ENDMDL
MODEL 8
REMARK VINA RESULT:      -6.8      4.614      5.589
REMARK  4 active torsions:
REMARK  status: ('A' for Active; 'I' for Inactive)
REMARK    1  A    between atoms: C_2  and  O_3 
REMARK    2  A    between atoms: C_2  and  C_12 
REMARK    3  A    between atoms: O_3  and  C_4 
REMARK       I    between atoms: C_12  and  N_13 
REMARK    4  A    between atoms: N_13  and  C_14 
ROOT
HETATM    1  C   UNL     1      -7.682   0.332 -35.369  1.00  0.00     0.050 C 
HETATM    2  C   UNL     1      -6.523   0.322 -34.374  1.00  0.00     0.217 C 
ENDROOT
BRANCH   2   3
HETATM    3  O   UNL     1      -6.660  -0.747 -33.415  1.00  0.00    -0.336 OA
BRANCH   3   4
HETATM    4  C   UNL     1      -6.120  -1.930 -33.847  1.00  0.00     0.087 A 
HETATM    5  C   UNL     1      -4.777  -2.271 -33.648  1.00  0.00     0.047 A 
HETATM    6 BR   UNL     1      -3.575  -1.120 -32.736  1.00  0.00    -0.048 Br
HETATM    7  C   UNL     1      -4.302  -3.509 -34.084  1.00  0.00     0.064 A 
HETATM    8  C   UNL     1      -5.180  -4.404 -34.685  1.00  0.00     0.117 A 
HETATM    9  F   UNL     1      -4.727  -5.593 -35.101  1.00  0.00    -0.206 F 
HETATM   10  C   UNL     1      -6.526  -4.094 -34.846  1.00  0.00     0.045 A 
HETATM   11  C   UNL     1      -7.000  -2.857 -34.414  1.00  0.00     0.041 A 
ENDBRANCH   3   4
ENDBRANCH   2   3
BRANCH   2  12
HETATM   12  C   UNL     1      -6.482   1.653 -33.592  1.00  0.00     0.252 C 
HETATM   13  N   UNL     1      -6.605   1.453 -32.227  1.00  0.00    -0.309 N 
HETATM   14  H   UNL     1      -6.763   0.500 -31.926  1.00  0.00     0.170 HD
HETATM   15  O   UNL     1      -6.293   2.723 -34.160  1.00  0.00    -0.270 OA
BRANCH  13  16
HETATM   16  C   UNL     1      -6.641   2.456 -31.252  1.00  0.00     0.129 A 
HETATM   17  N   UNL     1      -5.506   3.011 -30.793  1.00  0.00    -0.242 NA
HETATM   18  C   UNL     1      -5.606   3.997 -29.869  1.00  0.00     0.142 A 
HETATM   19  C   UNL     1      -6.809   4.458 -29.367  1.00  0.00     0.051 A 
HETATM   20 CL   UNL     1      -6.863   5.713 -28.200  1.00  0.00    -0.083 Cl
HETATM   21  C   UNL     1      -7.977   3.876 -29.839  1.00  0.00     0.029 A 
HETATM   22  C   UNL     1      -7.893   2.862 -30.796  1.00  0.00     0.052 A 
ENDBRANCH  13  16
ENDBRANCH   2  12
TORSDOF 4
ENDMDL
MODEL 9
REMARK VINA RESULT:      -6.8      4.924      7.578
REMARK  4 active torsions:
REMARK  status: ('A' for Active; 'I' for Inactive)
REMARK    1  A    between atoms: C_2  and  O_3 
REMARK    2  A    between atoms: C_2  and  C_12 
REMARK    3  A    between atoms: O_3  and  C_4 
REMARK       I    between atoms: C_12  and  N_13 
REMARK    4  A    between atoms: N_13  and  C_14 
ROOT
HETATM    1  C   UNL     1      -6.111   3.606 -33.757  1.00  0.00     0.050 C 
HETATM    2  C   UNL     1      -7.139   2.482 -33.867  1.00  0.00     0.217 C 
ENDROOT
BRANCH   2   3
HETATM    3  O   UNL     1      -8.286   2.730 -33.030  1.00  0.00    -0.336 OA
BRANCH   3   4
HETATM    4  C   UNL     1      -9.475   2.656 -33.708  1.00  0.00     0.087 A 
HETATM    5  C   UNL     1     -10.285   1.514 -33.698  1.00  0.00     0.047 A 
HETATM    6 BR   UNL     1      -9.814  -0.043 -32.721  1.00  0.00    -0.048 Br
HETATM    7  C   UNL     1     -11.501   1.519 -34.384  1.00  0.00     0.064 A 
HETATM    8  C   UNL     1     -11.907   2.674 -35.044  1.00  0.00     0.117 A 
HETATM    9  F   UNL     1     -13.076   2.681 -35.699  1.00  0.00    -0.206 F 
HETATM   10  C   UNL     1     -11.133   3.827 -35.021  1.00  0.00     0.045 A 
HETATM   11  C   UNL     1      -9.917   3.822 -34.340  1.00  0.00     0.041 A 
ENDBRANCH   3   4
ENDBRANCH   2   3
BRANCH   2  12
HETATM   12  C   UNL     1      -6.513   1.143 -33.421  1.00  0.00     0.252 C 
HETATM   13  N   UNL     1      -6.380   0.257 -34.478  1.00  0.00    -0.309 N 
HETATM   14  H   UNL     1      -6.753   0.563 -35.368  1.00  0.00     0.170 HD
HETATM   15  O   UNL     1      -6.135   0.966 -32.268  1.00  0.00    -0.270 OA
BRANCH  13  16
HETATM   16  C   UNL     1      -5.883  -1.048 -34.396  1.00  0.00     0.129 A 
HETATM   17  N   UNL     1      -4.633  -1.282 -33.958  1.00  0.00    -0.242 NA
HETATM   18  C   UNL     1      -4.218  -2.569 -33.876  1.00  0.00     0.142 A 
HETATM   19  C   UNL     1      -5.004  -3.653 -34.223  1.00  0.00     0.051 A 
HETATM   20 CL   UNL     1      -4.414  -5.257 -34.090  1.00  0.00    -0.083 Cl
HETATM   21  C   UNL     1      -6.290  -3.404 -34.681  1.00  0.00     0.029 A 
HETATM   22  C   UNL     1      -6.738  -2.083 -34.768  1.00  0.00     0.052 A 
ENDBRANCH  13  16
ENDBRANCH   2  12
TORSDOF 4
ENDMDL
MODEL 10
REMARK VINA RESULT:      -6.6     15.538     17.363
REMARK  4 active torsions:
REMARK  status: ('A' for Active; 'I' for Inactive)
REMARK    1  A    between atoms: C_2  and  O_3 
REMARK    2  A    between atoms: C_2  and  C_12 
REMARK    3  A    between atoms: O_3  and  C_4 
REMARK       I    between atoms: C_12  and  N_13 
REMARK    4  A    between atoms: N_13  and  C_14 
ROOT
HETATM    1  C   UNL     1      -6.596 -14.999 -35.810  1.00  0.00     0.050 C 
HETATM    2  C   UNL     1      -6.224 -13.968 -36.875  1.00  0.00     0.217 C 
ENDROOT
BRANCH   2   3
HETATM    3  O   UNL     1      -6.550 -14.436 -38.199  1.00  0.00    -0.336 OA
BRANCH   3   4
HETATM    4  C   UNL     1      -7.548 -13.710 -38.796  1.00  0.00     0.087 A 
HETATM    5  C   UNL     1      -7.297 -12.708 -39.741  1.00  0.00     0.047 A 
HETATM    6 BR   UNL     1      -5.537 -12.270 -40.298  1.00  0.00    -0.048 Br
HETATM    7  C   UNL     1      -8.364 -12.031 -40.335  1.00  0.00     0.064 A 
HETATM    8  C   UNL     1      -9.667 -12.385 -40.003  1.00  0.00     0.117 A 
HETATM    9  F   UNL     1     -10.691 -11.740 -40.575  1.00  0.00    -0.206 F 
HETATM   10  C   UNL     1      -9.927 -13.411 -39.102  1.00  0.00     0.045 A 
HETATM   11  C   UNL     1      -8.863 -14.084 -38.505  1.00  0.00     0.041 A 
ENDBRANCH   3   4
ENDBRANCH   2   3
BRANCH   2  12
HETATM   12  C   UNL     1      -4.706 -13.687 -36.835  1.00  0.00     0.252 C 
HETATM   13  N   UNL     1      -4.015 -14.458 -37.754  1.00  0.00    -0.309 N 
HETATM   14  H   UNL     1      -4.561 -15.130 -38.276  1.00  0.00     0.170 HD
HETATM   15  O   UNL     1      -4.235 -12.823 -36.103  1.00  0.00    -0.270 OA
BRANCH  13  16
HETATM   16  C   UNL     1      -2.628 -14.464 -37.940  1.00  0.00     0.129 A 
HETATM   17  N   UNL     1      -1.856 -15.386 -37.339  1.00  0.00    -0.242 NA
HETATM   18  C   UNL     1      -0.523 -15.357 -37.579  1.00  0.00     0.142 A 
HETATM   19  C   UNL     1       0.087 -14.428 -38.401  1.00  0.00     0.051 A 
HETATM   20 CL   UNL     1       1.782 -14.451 -38.664  1.00  0.00    -0.083 Cl
HETATM   21  C   UNL     1      -0.713 -13.474 -39.014  1.00  0.00     0.029 A 
HETATM   22  C   UNL     1      -2.091 -13.492 -38.781  1.00  0.00     0.052 A 
ENDBRANCH  13  16
ENDBRANCH   2  12
TORSDOF 4
ENDMDL
