MODEL 1
REMARK VINA RESULT:      -8.7      0.000      0.000
REMARK  5 active torsions:
REMARK  status: ('A' for Active; 'I' for Inactive)
REMARK    1  A    between atoms: C_5  and  N_6 
REMARK    2  A    between atoms: C_9  and  C_10 
REMARK    3  A    between atoms: C_10  and  N_11 
REMARK       I    between atoms: N_11  and  C_12 
REMARK       I    between atoms: C_12  and  N_13 
REMARK    4  A    between atoms: N_13  and  C_14 
REMARK    5  A    between atoms: C_14  and  C_15 
ROOT
HETATM    1  N   UNL     1      -2.826   5.801 -32.597  1.00  0.00    -0.319 N 
HETATM    2  C   UNL     1      -4.169   5.458 -32.422  1.00  0.00     0.021 A 
HETATM    3  C   UNL     1      -4.889   5.555 -31.116  1.00  0.00     0.069 C 
HETATM    4  C   UNL     1      -4.703   5.112 -33.657  1.00  0.00    -0.016 A 
HETATM    5  C   UNL     1      -3.674   5.295 -34.612  1.00  0.00     0.035 A 
HETATM    6  C   UNL     1      -2.539   5.723 -33.957  1.00  0.00     0.014 A 
HETATM    7  C   UNL     1      -1.196   5.958 -34.562  1.00  0.00     0.068 C 
ENDROOT
BRANCH   4   8
HETATM    8  C   UNL     1      -6.100   4.684 -33.975  1.00  0.00     0.165 C 
BRANCH   8   9
HETATM    9  N   UNL     1      -6.065   3.272 -34.274  1.00  0.00    -0.339 N 
HETATM   10  C   UNL     1      -6.351   2.357 -33.299  1.00  0.00     0.316 C 
HETATM   11  N   UNL     1      -6.049   1.091 -33.717  1.00  0.00    -0.339 N 
HETATM   12  O   UNL     1      -6.777   2.637 -32.189  1.00  0.00    -0.247 OA
HETATM   13  H   UNL     1      -6.152   0.918 -34.705  1.00  0.00     0.164 HD
HETATM   14  H   UNL     1      -5.388   2.976 -34.960  1.00  0.00     0.164 HD
BRANCH  11  15
HETATM   15  C   UNL     1      -6.224  -0.040 -32.837  1.00  0.00     0.162 C 
BRANCH  15  16
HETATM   16  C   UNL     1      -5.959  -1.325 -33.579  1.00  0.00    -0.040 A 
HETATM   17  C   UNL     1      -7.029  -2.065 -34.106  1.00  0.00     0.009 A 
HETATM   18  C   UNL     1      -6.800  -3.264 -34.782  1.00  0.00     0.001 A 
HETATM   19  C   UNL     1      -5.497  -3.733 -34.943  1.00  0.00     0.000 A 
HETATM   20  C   UNL     1      -4.426  -3.002 -34.430  1.00  0.00     0.001 A 
HETATM   21  C   UNL     1      -4.655  -1.804 -33.751  1.00  0.00     0.009 A 
ENDBRANCH  15  16
ENDBRANCH  11  15
ENDBRANCH   8   9
ENDBRANCH   4   8
BRANCH   1  22
HETATM   22  C   UNL     1      -1.908   6.152 -31.565  1.00  0.00     0.039 A 
HETATM   23  C   UNL     1      -1.847   7.472 -31.103  1.00  0.00     0.030 A 
HETATM   24  C   UNL     1      -0.965   7.815 -30.074  1.00  0.00     0.009 A 
HETATM   25  C   UNL     1      -0.123   6.851 -29.509  1.00  0.00    -0.062 A 
HETATM   26  C   UNL     1       0.794   7.210 -28.378  1.00  0.00     0.048 C 
HETATM   27  C   UNL     1      -0.191   5.531 -29.971  1.00  0.00     0.009 A 
HETATM   28  C   UNL     1      -1.077   5.182 -30.996  1.00  0.00     0.030 A 
ENDBRANCH   1  22
TORSDOF 5
ENDMDL
MODEL 2
REMARK VINA RESULT:      -8.7      2.034      3.478
REMARK  5 active torsions:
REMARK  status: ('A' for Active; 'I' for Inactive)
REMARK    1  A    between atoms: C_5  and  N_6 
REMARK    2  A    between atoms: C_9  and  C_10 
REMARK    3  A    between atoms: C_10  and  N_11 
REMARK       I    between atoms: N_11  and  C_12 
REMARK       I    between atoms: C_12  and  N_13 
REMARK    4  A    between atoms: N_13  and  C_14 
REMARK    5  A    between atoms: C_14  and  C_15 
ROOT
HETATM    1  N   UNL     1      -1.072   6.473 -29.689  1.00  0.00    -0.319 N 
HETATM    2  C   UNL     1      -0.729   5.534 -30.665  1.00  0.00     0.021 A 
HETATM    3  C   UNL     1       0.564   4.785 -30.682  1.00  0.00     0.069 C 
HETATM    4  C   UNL     1      -1.809   5.373 -31.525  1.00  0.00    -0.016 A 
HETATM    5  C   UNL     1      -2.848   6.198 -31.032  1.00  0.00     0.035 A 
HETATM    6  C   UNL     1      -2.393   6.855 -29.909  1.00  0.00     0.014 A 
HETATM    7  C   UNL     1      -3.127   7.886 -29.119  1.00  0.00     0.068 C 
ENDROOT
BRANCH   4   8
HETATM    8  C   UNL     1      -1.921   4.474 -32.714  1.00  0.00     0.165 C 
BRANCH   8   9
HETATM    9  N   UNL     1      -3.246   3.901 -32.703  1.00  0.00    -0.339 N 
HETATM   10  C   UNL     1      -3.499   2.771 -31.976  1.00  0.00     0.316 C 
HETATM   11  N   UNL     1      -4.737   2.270 -32.270  1.00  0.00    -0.339 N 
HETATM   12  O   UNL     1      -2.710   2.254 -31.199  1.00  0.00    -0.247 OA
HETATM   13  H   UNL     1      -5.437   2.949 -32.526  1.00  0.00     0.164 HD
HETATM   14  H   UNL     1      -3.784   3.999 -33.550  1.00  0.00     0.164 HD
BRANCH  11  15
HETATM   15  C   UNL     1      -5.206   1.050 -31.657  1.00  0.00     0.162 C 
BRANCH  15  16
HETATM   16  C   UNL     1      -5.427  -0.009 -32.706  1.00  0.00    -0.040 A 
HETATM   17  C   UNL     1      -6.604  -0.006 -33.472  1.00  0.00     0.009 A 
HETATM   18  C   UNL     1      -6.828  -0.990 -34.435  1.00  0.00     0.001 A 
HETATM   19  C   UNL     1      -5.876  -1.985 -34.648  1.00  0.00     0.000 A 
HETATM   20  C   UNL     1      -4.700  -1.994 -33.898  1.00  0.00     0.001 A 
HETATM   21  C   UNL     1      -4.475  -1.012 -32.932  1.00  0.00     0.009 A 
ENDBRANCH  15  16
ENDBRANCH  11  15
ENDBRANCH   8   9
ENDBRANCH   4   8
BRANCH   1  22
HETATM   22  C   UNL     1      -0.217   6.964 -28.660  1.00  0.00     0.039 A 
HETATM   23  C   UNL     1       0.688   7.995 -28.936  1.00  0.00     0.030 A 
HETATM   24  C   UNL     1       1.511   8.495 -27.923  1.00  0.00     0.009 A 
HETATM   25  C   UNL     1       1.452   7.961 -26.630  1.00  0.00    -0.062 A 
HETATM   26  C   UNL     1       2.306   8.527 -25.534  1.00  0.00     0.048 C 
HETATM   27  C   UNL     1       0.541   6.935 -26.358  1.00  0.00     0.009 A 
HETATM   28  C   UNL     1      -0.289   6.435 -27.367  1.00  0.00     0.030 A 
ENDBRANCH   1  22
TORSDOF 5
ENDMDL
MODEL 3
REMARK VINA RESULT:      -8.6      2.103      9.482
REMARK  5 active torsions:
REMARK  status: ('A' for Active; 'I' for Inactive)
REMARK    1  A    between atoms: C_5  and  N_6 
REMARK    2  A    between atoms: C_9  and  C_10 
REMARK    3  A    between atoms: C_10  and  N_11 
REMARK       I    between atoms: N_11  and  C_12 
REMARK       I    between atoms: C_12  and  N_13 
REMARK    4  A    between atoms: N_13  and  C_14 
REMARK    5  A    between atoms: C_14  and  C_15 
ROOT
HETATM    1  N   UNL     1      -5.762   1.616 -31.881  1.00  0.00    -0.319 N 
HETATM    2  C   UNL     1      -5.559   2.910 -32.367  1.00  0.00     0.021 A 
HETATM    3  C   UNL     1      -5.701   3.291 -33.806  1.00  0.00     0.069 C 
HETATM    4  C   UNL     1      -5.302   3.753 -31.292  1.00  0.00    -0.016 A 
HETATM    5  C   UNL     1      -5.397   2.961 -30.123  1.00  0.00     0.035 A 
HETATM    6  C   UNL     1      -5.687   1.665 -30.491  1.00  0.00     0.014 A 
HETATM    7  C   UNL     1      -5.792   0.483 -29.588  1.00  0.00     0.068 C 
ENDROOT
BRANCH   4   8
HETATM    8  C   UNL     1      -5.033   5.223 -31.311  1.00  0.00     0.165 C 
BRANCH   8   9
HETATM    9  N   UNL     1      -3.958   5.481 -30.382  1.00  0.00    -0.339 N 
HETATM   10  C   UNL     1      -2.801   6.065 -30.816  1.00  0.00     0.316 C 
HETATM   11  N   UNL     1      -1.840   6.019 -29.844  1.00  0.00    -0.339 N 
HETATM   12  O   UNL     1      -2.633   6.527 -31.934  1.00  0.00    -0.247 OA
HETATM   13  H   UNL     1      -2.173   6.058 -28.893  1.00  0.00     0.164 HD
HETATM   14  H   UNL     1      -3.854   4.823 -29.624  1.00  0.00     0.164 HD
BRANCH  11  15
HETATM   15  C   UNL     1      -0.514   6.535 -30.090  1.00  0.00     0.162 C 
BRANCH  15  16
HETATM   16  C   UNL     1       0.115   6.995 -28.800  1.00  0.00    -0.040 A 
HETATM   17  C   UNL     1      -0.198   6.347 -27.595  1.00  0.00     0.009 A 
HETATM   18  C   UNL     1       0.364   6.772 -26.392  1.00  0.00     0.001 A 
HETATM   19  C   UNL     1       1.251   7.847 -26.380  1.00  0.00     0.000 A 
HETATM   20  C   UNL     1       1.574   8.495 -27.573  1.00  0.00     0.001 A 
HETATM   21  C   UNL     1       1.010   8.072 -28.777  1.00  0.00     0.009 A 
ENDBRANCH  15  16
ENDBRANCH  11  15
ENDBRANCH   8   9
ENDBRANCH   4   8
BRANCH   1  22
HETATM   22  C   UNL     1      -5.989   0.449 -32.668  1.00  0.00     0.039 A 
HETATM   23  C   UNL     1      -4.905  -0.316 -33.112  1.00  0.00     0.030 A 
HETATM   24  C   UNL     1      -5.125  -1.473 -33.864  1.00  0.00     0.009 A 
HETATM   25  C   UNL     1      -6.426  -1.870 -34.195  1.00  0.00    -0.062 A 
HETATM   26  C   UNL     1      -6.663  -3.134 -34.966  1.00  0.00     0.048 C 
HETATM   27  C   UNL     1      -7.507  -1.104 -33.743  1.00  0.00     0.009 A 
HETATM   28  C   UNL     1      -7.292   0.052 -32.985  1.00  0.00     0.030 A 
ENDBRANCH   1  22
TORSDOF 5
ENDMDL
MODEL 4
REMARK VINA RESULT:      -8.6      1.871      9.140
REMARK  5 active torsions:
REMARK  status: ('A' for Active; 'I' for Inactive)
REMARK    1  A    between atoms: C_5  and  N_6 
REMARK    2  A    between atoms: C_9  and  C_10 
REMARK    3  A    between atoms: C_10  and  N_11 
REMARK       I    between atoms: N_11  and  C_12 
REMARK       I    between atoms: C_12  and  N_13 
REMARK    4  A    between atoms: N_13  and  C_14 
REMARK    5  A    between atoms: C_14  and  C_15 
ROOT
HETATM    1  N   UNL     1      -5.810   0.324 -33.265  1.00  0.00    -0.319 N 
HETATM    2  C   UNL     1      -5.227   0.783 -32.081  1.00  0.00     0.021 A 
HETATM    3  C   UNL     1      -4.359  -0.058 -31.201  1.00  0.00     0.069 C 
HETATM    4  C   UNL     1      -5.522   2.133 -31.934  1.00  0.00    -0.016 A 
HETATM    5  C   UNL     1      -6.261   2.515 -33.080  1.00  0.00     0.035 A 
HETATM    6  C   UNL     1      -6.423   1.409 -33.888  1.00  0.00     0.014 A 
HETATM    7  C   UNL     1      -7.210   1.336 -35.152  1.00  0.00     0.068 C 
ENDROOT
BRANCH   4   8
HETATM    8  C   UNL     1      -5.110   3.057 -30.834  1.00  0.00     0.165 C 
BRANCH   8   9
HETATM    9  N   UNL     1      -4.348   4.129 -31.429  1.00  0.00    -0.339 N 
HETATM   10  C   UNL     1      -2.988   4.028 -31.532  1.00  0.00     0.316 C 
HETATM   11  N   UNL     1      -2.440   5.222 -31.912  1.00  0.00    -0.339 N 
HETATM   12  O   UNL     1      -2.345   3.021 -31.278  1.00  0.00    -0.247 OA
HETATM   13  H   UNL     1      -3.013   5.799 -32.508  1.00  0.00     0.164 HD
HETATM   14  H   UNL     1      -4.703   5.063 -31.289  1.00  0.00     0.164 HD
BRANCH  11  15
HETATM   15  C   UNL     1      -1.010   5.371 -32.043  1.00  0.00     0.162 C 
BRANCH  15  16
HETATM   16  C   UNL     1      -0.422   5.905 -30.762  1.00  0.00    -0.040 A 
HETATM   17  C   UNL     1       0.241   5.039 -29.878  1.00  0.00     0.009 A 
HETATM   18  C   UNL     1       0.776   5.518 -28.681  1.00  0.00     0.001 A 
HETATM   19  C   UNL     1       0.659   6.868 -28.358  1.00  0.00     0.000 A 
HETATM   20  C   UNL     1       0.008   7.739 -29.232  1.00  0.00     0.001 A 
HETATM   21  C   UNL     1      -0.531   7.261 -30.428  1.00  0.00     0.009 A 
ENDBRANCH  15  16
ENDBRANCH  11  15
ENDBRANCH   8   9
ENDBRANCH   4   8
BRANCH   1  22
HETATM   22  C   UNL     1      -5.795  -1.018 -33.744  1.00  0.00     0.039 A 
HETATM   23  C   UNL     1      -6.998  -1.715 -33.908  1.00  0.00     0.030 A 
HETATM   24  C   UNL     1      -6.988  -3.023 -34.400  1.00  0.00     0.009 A 
HETATM   25  C   UNL     1      -5.780  -3.655 -34.715  1.00  0.00    -0.062 A 
HETATM   26  C   UNL     1      -5.773  -5.044 -35.282  1.00  0.00     0.048 C 
HETATM   27  C   UNL     1      -4.580  -2.952 -34.554  1.00  0.00     0.009 A 
HETATM   28  C   UNL     1      -4.585  -1.641 -34.068  1.00  0.00     0.030 A 
ENDBRANCH   1  22
TORSDOF 5
ENDMDL
MODEL 5
REMARK VINA RESULT:      -8.6      1.883      3.161
REMARK  5 active torsions:
REMARK  status: ('A' for Active; 'I' for Inactive)
REMARK    1  A    between atoms: C_5  and  N_6 
REMARK    2  A    between atoms: C_9  and  C_10 
REMARK    3  A    between atoms: C_10  and  N_11 
REMARK       I    between atoms: N_11  and  C_12 
REMARK       I    between atoms: C_12  and  N_13 
REMARK    4  A    between atoms: N_13  and  C_14 
REMARK    5  A    between atoms: C_14  and  C_15 
ROOT
HETATM    1  N   UNL     1      -0.748   6.171 -29.833  1.00  0.00    -0.319 N 
HETATM    2  C   UNL     1      -2.113   6.309 -30.096  1.00  0.00     0.021 A 
HETATM    3  C   UNL     1      -3.008   7.264 -29.375  1.00  0.00     0.069 C 
HETATM    4  C   UNL     1      -2.443   5.490 -31.170  1.00  0.00    -0.016 A 
HETATM    5  C   UNL     1      -1.241   4.878 -31.599  1.00  0.00     0.035 A 
HETATM    6  C   UNL     1      -0.214   5.306 -30.784  1.00  0.00     0.014 A 
HETATM    7  C   UNL     1       1.205   4.849 -30.823  1.00  0.00     0.068 C 
ENDROOT
BRANCH   4   8
HETATM    8  C   UNL     1      -3.776   5.306 -31.819  1.00  0.00     0.165 C 
BRANCH   8   9
HETATM    9  N   UNL     1      -3.804   3.979 -32.388  1.00  0.00    -0.339 N 
HETATM   10  C   UNL     1      -4.289   2.930 -31.658  1.00  0.00     0.316 C 
HETATM   11  N   UNL     1      -4.027   1.741 -32.281  1.00  0.00    -0.339 N 
HETATM   12  O   UNL     1      -4.846   3.036 -30.576  1.00  0.00    -0.247 OA
HETATM   13  H   UNL     1      -4.002   1.769 -33.289  1.00  0.00     0.164 HD
HETATM   14  H   UNL     1      -3.061   3.752 -33.031  1.00  0.00     0.164 HD
BRANCH  11  15
HETATM   15  C   UNL     1      -4.405   0.488 -31.673  1.00  0.00     0.162 C 
BRANCH  15  16
HETATM   16  C   UNL     1      -5.129  -0.378 -32.671  1.00  0.00    -0.040 A 
HETATM   17  C   UNL     1      -6.497  -0.177 -32.916  1.00  0.00     0.009 A 
HETATM   18  C   UNL     1      -7.183  -0.982 -33.825  1.00  0.00     0.001 A 
HETATM   19  C   UNL     1      -6.508  -1.993 -34.506  1.00  0.00     0.000 A 
HETATM   20  C   UNL     1      -5.147  -2.198 -34.276  1.00  0.00     0.001 A 
HETATM   21  C   UNL     1      -4.460  -1.395 -33.364  1.00  0.00     0.009 A 
ENDBRANCH  15  16
ENDBRANCH  11  15
ENDBRANCH   8   9
ENDBRANCH   4   8
BRANCH   1  22
HETATM   22  C   UNL     1      -0.032   6.793 -28.769  1.00  0.00     0.039 A 
HETATM   23  C   UNL     1      -0.110   6.269 -27.474  1.00  0.00     0.030 A 
HETATM   24  C   UNL     1       0.610   6.862 -26.433  1.00  0.00     0.009 A 
HETATM   25  C   UNL     1       1.401   7.993 -26.669  1.00  0.00    -0.062 A 
HETATM   26  C   UNL     1       2.206   8.603 -25.561  1.00  0.00     0.048 C 
HETATM   27  C   UNL     1       1.480   8.509 -27.968  1.00  0.00     0.009 A 
HETATM   28  C   UNL     1       0.766   7.915 -29.014  1.00  0.00     0.030 A 
ENDBRANCH   1  22
TORSDOF 5
ENDMDL
MODEL 6
REMARK VINA RESULT:      -8.2      4.289      7.357
REMARK  5 active torsions:
REMARK  status: ('A' for Active; 'I' for Inactive)
REMARK    1  A    between atoms: C_5  and  N_6 
REMARK    2  A    between atoms: C_9  and  C_10 
REMARK    3  A    between atoms: C_10  and  N_11 
REMARK       I    between atoms: N_11  and  C_12 
REMARK       I    between atoms: C_12  and  N_13 
REMARK    4  A    between atoms: N_13  and  C_14 
REMARK    5  A    between atoms: C_14  and  C_15 
ROOT
HETATM    1  N   UNL     1      -7.882   2.323 -32.114  1.00  0.00    -0.319 N 
HETATM    2  C   UNL     1      -6.592   1.880 -32.416  1.00  0.00     0.021 A 
HETATM    3  C   UNL     1      -6.214   1.238 -33.712  1.00  0.00     0.069 C 
HETATM    4  C   UNL     1      -5.749   2.218 -31.364  1.00  0.00    -0.016 A 
HETATM    5  C   UNL     1      -6.536   2.925 -30.423  1.00  0.00     0.035 A 
HETATM    6  C   UNL     1      -7.830   2.991 -30.894  1.00  0.00     0.014 A 
HETATM    7  C   UNL     1      -9.008   3.570 -30.185  1.00  0.00     0.068 C 
ENDROOT
BRANCH   4   8
HETATM    8  C   UNL     1      -4.282   1.962 -31.234  1.00  0.00     0.165 C 
BRANCH   8   9
HETATM    9  N   UNL     1      -4.110   0.562 -30.924  1.00  0.00    -0.339 N 
HETATM   10  C   UNL     1      -3.419  -0.249 -31.780  1.00  0.00     0.316 C 
HETATM   11  N   UNL     1      -3.558  -1.562 -31.424  1.00  0.00    -0.339 N 
HETATM   12  O   UNL     1      -2.797   0.140 -32.756  1.00  0.00    -0.247 OA
HETATM   13  H   UNL     1      -3.670  -1.741 -30.437  1.00  0.00     0.164 HD
HETATM   14  H   UNL     1      -4.863   0.119 -30.420  1.00  0.00     0.164 HD
BRANCH  11  15
HETATM   15  C   UNL     1      -2.954  -2.611 -32.211  1.00  0.00     0.162 C 
BRANCH  15  16
HETATM   16  C   UNL     1      -3.958  -3.181 -33.179  1.00  0.00    -0.040 A 
HETATM   17  C   UNL     1      -3.908  -4.541 -33.525  1.00  0.00     0.009 A 
HETATM   18  C   UNL     1      -4.821  -5.078 -34.432  1.00  0.00     0.001 A 
HETATM   19  C   UNL     1      -5.799  -4.263 -34.999  1.00  0.00     0.000 A 
HETATM   20  C   UNL     1      -5.862  -2.912 -34.659  1.00  0.00     0.001 A 
HETATM   21  C   UNL     1      -4.947  -2.373 -33.753  1.00  0.00     0.009 A 
ENDBRANCH  15  16
ENDBRANCH  11  15
ENDBRANCH   8   9
ENDBRANCH   4   8
BRANCH   1  22
HETATM   22  C   UNL     1      -9.048   2.115 -32.907  1.00  0.00     0.039 A 
HETATM   23  C   UNL     1      -9.802   0.947 -32.747  1.00  0.00     0.030 A 
HETATM   24  C   UNL     1     -10.960   0.751 -33.505  1.00  0.00     0.009 A 
HETATM   25  C   UNL     1     -11.367   1.707 -34.442  1.00  0.00    -0.062 A 
HETATM   26  C   UNL     1     -12.631   1.514 -35.226  1.00  0.00     0.048 C 
HETATM   27  C   UNL     1     -10.612   2.876 -34.594  1.00  0.00     0.009 A 
HETATM   28  C   UNL     1      -9.457   3.080 -33.833  1.00  0.00     0.030 A 
ENDBRANCH   1  22
TORSDOF 5
ENDMDL
MODEL 7
REMARK VINA RESULT:      -8.2      2.174      8.421
REMARK  5 active torsions:
REMARK  status: ('A' for Active; 'I' for Inactive)
REMARK    1  A    between atoms: C_5  and  N_6 
REMARK    2  A    between atoms: C_9  and  C_10 
REMARK    3  A    between atoms: C_10  and  N_11 
REMARK       I    between atoms: N_11  and  C_12 
REMARK       I    between atoms: C_12  and  N_13 
REMARK    4  A    between atoms: N_13  and  C_14 
REMARK    5  A    between atoms: C_14  and  C_15 
ROOT
HETATM    1  N   UNL     1      -6.507   0.537 -32.809  1.00  0.00    -0.319 N 
HETATM    2  C   UNL     1      -6.535   0.847 -31.447  1.00  0.00     0.021 A 
HETATM    3  C   UNL     1      -6.156  -0.114 -30.366  1.00  0.00     0.069 C 
HETATM    4  C   UNL     1      -6.879   2.186 -31.304  1.00  0.00    -0.016 A 
HETATM    5  C   UNL     1      -7.016   2.713 -32.611  1.00  0.00     0.035 A 
HETATM    6  C   UNL     1      -6.778   1.703 -33.519  1.00  0.00     0.014 A 
HETATM    7  C   UNL     1      -6.898   1.792 -35.003  1.00  0.00     0.068 C 
ENDROOT
BRANCH   4   8
HETATM    8  C   UNL     1      -7.027   2.975 -30.043  1.00  0.00     0.165 C 
BRANCH   8   9
HETATM    9  N   UNL     1      -5.744   3.567 -29.748  1.00  0.00    -0.339 N 
HETATM   10  C   UNL     1      -5.466   4.842 -30.157  1.00  0.00     0.316 C 
HETATM   11  N   UNL     1      -4.142   5.132 -29.978  1.00  0.00    -0.339 N 
HETATM   12  O   UNL     1      -6.281   5.604 -30.655  1.00  0.00    -0.247 OA
HETATM   13  H   UNL     1      -3.693   4.676 -29.199  1.00  0.00     0.164 HD
HETATM   14  H   UNL     1      -4.955   2.939 -29.723  1.00  0.00     0.164 HD
BRANCH  11  15
HETATM   15  C   UNL     1      -3.603   6.409 -30.383  1.00  0.00     0.162 C 
BRANCH  15  16
HETATM   16  C   UNL     1      -2.869   6.274 -31.692  1.00  0.00    -0.040 A 
HETATM   17  C   UNL     1      -2.514   5.003 -32.171  1.00  0.00     0.009 A 
HETATM   18  C   UNL     1      -1.820   4.865 -33.374  1.00  0.00     0.001 A 
HETATM   19  C   UNL     1      -1.480   5.996 -34.114  1.00  0.00     0.000 A 
HETATM   20  C   UNL     1      -1.833   7.263 -33.651  1.00  0.00     0.001 A 
HETATM   21  C   UNL     1      -2.525   7.403 -32.446  1.00  0.00     0.009 A 
ENDBRANCH  15  16
ENDBRANCH  11  15
ENDBRANCH   8   9
ENDBRANCH   4   8
BRANCH   1  22
HETATM   22  C   UNL     1      -6.259  -0.749 -33.372  1.00  0.00     0.039 A 
HETATM   23  C   UNL     1      -7.330  -1.539 -33.808  1.00  0.00     0.030 A 
HETATM   24  C   UNL     1      -7.089  -2.790 -34.382  1.00  0.00     0.009 A 
HETATM   25  C   UNL     1      -5.782  -3.274 -34.512  1.00  0.00    -0.062 A 
HETATM   26  C   UNL     1      -5.523  -4.598 -35.166  1.00  0.00     0.048 C 
HETATM   27  C   UNL     1      -4.715  -2.478 -34.079  1.00  0.00     0.009 A 
HETATM   28  C   UNL     1      -4.950  -1.223 -33.509  1.00  0.00     0.030 A 
ENDBRANCH   1  22
TORSDOF 5
ENDMDL
MODEL 8
REMARK VINA RESULT:      -8.1      3.112      9.380
REMARK  5 active torsions:
REMARK  status: ('A' for Active; 'I' for Inactive)
REMARK    1  A    between atoms: C_5  and  N_6 
REMARK    2  A    between atoms: C_9  and  C_10 
REMARK    3  A    between atoms: C_10  and  N_11 
REMARK       I    between atoms: N_11  and  C_12 
REMARK       I    between atoms: C_12  and  N_13 
REMARK    4  A    between atoms: N_13  and  C_14 
REMARK    5  A    between atoms: C_14  and  C_15 
ROOT
HETATM    1  N   UNL     1      -7.987   1.787 -33.058  1.00  0.00    -0.319 N 
HETATM    2  C   UNL     1      -7.539   2.434 -31.904  1.00  0.00     0.021 A 
HETATM    3  C   UNL     1      -8.445   2.942 -30.829  1.00  0.00     0.069 C 
HETATM    4  C   UNL     1      -6.149   2.432 -31.905  1.00  0.00    -0.016 A 
HETATM    5  C   UNL     1      -5.744   1.726 -33.063  1.00  0.00     0.035 A 
HETATM    6  C   UNL     1      -6.870   1.330 -33.753  1.00  0.00     0.014 A 
HETATM    7  C   UNL     1      -6.909   0.634 -35.071  1.00  0.00     0.068 C 
ENDROOT
BRANCH   4   8
HETATM    8  C   UNL     1      -5.221   2.997 -30.878  1.00  0.00     0.165 C 
BRANCH   8   9
HETATM    9  N   UNL     1      -4.423   4.012 -31.524  1.00  0.00    -0.339 N 
HETATM   10  C   UNL     1      -3.065   3.873 -31.600  1.00  0.00     0.316 C 
HETATM   11  N   UNL     1      -2.482   5.027 -32.043  1.00  0.00    -0.339 N 
HETATM   12  O   UNL     1      -2.452   2.867 -31.276  1.00  0.00    -0.247 OA
HETATM   13  H   UNL     1      -3.032   5.581 -32.681  1.00  0.00     0.164 HD
HETATM   14  H   UNL     1      -4.757   4.961 -31.447  1.00  0.00     0.164 HD
BRANCH  11  15
HETATM   15  C   UNL     1      -1.047   5.133 -32.159  1.00  0.00     0.162 C 
BRANCH  15  16
HETATM   16  C   UNL     1      -0.467   5.758 -30.916  1.00  0.00    -0.040 A 
HETATM   17  C   UNL     1       0.218   4.963 -29.984  1.00  0.00     0.009 A 
HETATM   18  C   UNL     1       0.745   5.525 -28.821  1.00  0.00     0.001 A 
HETATM   19  C   UNL     1       0.599   6.890 -28.581  1.00  0.00     0.000 A 
HETATM   20  C   UNL     1      -0.073   7.691 -29.503  1.00  0.00     0.001 A 
HETATM   21  C   UNL     1      -0.605   7.129 -30.665  1.00  0.00     0.009 A 
ENDBRANCH  15  16
ENDBRANCH  11  15
ENDBRANCH   8   9
ENDBRANCH   4   8
BRANCH   1  22
HETATM   22  C   UNL     1      -9.345   1.636 -33.462  1.00  0.00     0.039 A 
HETATM   23  C   UNL     1     -10.072   0.508 -33.063  1.00  0.00     0.030 A 
HETATM   24  C   UNL     1     -11.411   0.369 -33.437  1.00  0.00     0.009 A 
HETATM   25  C   UNL     1     -12.034   1.342 -34.227  1.00  0.00    -0.062 A 
HETATM   26  C   UNL     1     -13.482   1.212 -34.593  1.00  0.00     0.048 C 
HETATM   27  C   UNL     1     -11.305   2.471 -34.618  1.00  0.00     0.009 A 
HETATM   28  C   UNL     1      -9.966   2.618 -34.241  1.00  0.00     0.030 A 
ENDBRANCH   1  22
TORSDOF 5
ENDMDL
MODEL 9
REMARK VINA RESULT:      -8.1      1.998      8.993
REMARK  5 active torsions:
REMARK  status: ('A' for Active; 'I' for Inactive)
REMARK    1  A    between atoms: C_5  and  N_6 
REMARK    2  A    between atoms: C_9  and  C_10 
REMARK    3  A    between atoms: C_10  and  N_11 
REMARK       I    between atoms: N_11  and  C_12 
REMARK       I    between atoms: C_12  and  N_13 
REMARK    4  A    between atoms: N_13  and  C_14 
REMARK    5  A    between atoms: C_14  and  C_15 
ROOT
HETATM    1  N   UNL     1      -6.151   1.306 -32.178  1.00  0.00    -0.319 N 
HETATM    2  C   UNL     1      -6.253   2.592 -32.715  1.00  0.00     0.021 A 
HETATM    3  C   UNL     1      -6.428   2.873 -34.173  1.00  0.00     0.069 C 
HETATM    4  C   UNL     1      -6.251   3.511 -31.673  1.00  0.00    -0.016 A 
HETATM    5  C   UNL     1      -6.194   2.763 -30.472  1.00  0.00     0.035 A 
HETATM    6  C   UNL     1      -6.144   1.423 -30.790  1.00  0.00     0.014 A 
HETATM    7  C   UNL     1      -5.991   0.285 -29.838  1.00  0.00     0.068 C 
ENDROOT
BRANCH   4   8
HETATM    8  C   UNL     1      -6.349   5.000 -31.750  1.00  0.00     0.165 C 
BRANCH   8   9
HETATM    9  N   UNL     1      -5.061   5.500 -32.168  1.00  0.00    -0.339 N 
HETATM   10  C   UNL     1      -4.532   6.613 -31.577  1.00  0.00     0.316 C 
HETATM   11  N   UNL     1      -3.427   7.047 -32.256  1.00  0.00    -0.339 N 
HETATM   12  O   UNL     1      -5.006   7.171 -30.599  1.00  0.00    -0.247 OA
HETATM   13  H   UNL     1      -2.880   6.331 -32.710  1.00  0.00     0.164 HD
HETATM   14  H   UNL     1      -4.825   5.374 -33.141  1.00  0.00     0.164 HD
BRANCH  11  15
HETATM   15  C   UNL     1      -2.725   8.238 -31.843  1.00  0.00     0.162 C 
BRANCH  15  16
HETATM   16  C   UNL     1      -1.570   7.878 -30.944  1.00  0.00    -0.040 A 
HETATM   17  C   UNL     1      -1.532   8.355 -29.624  1.00  0.00     0.009 A 
HETATM   18  C   UNL     1      -0.461   8.042 -28.786  1.00  0.00     0.001 A 
HETATM   19  C   UNL     1       0.579   7.243 -29.255  1.00  0.00     0.000 A 
HETATM   20  C   UNL     1       0.548   6.758 -30.563  1.00  0.00     0.001 A 
HETATM   21  C   UNL     1      -0.521   7.073 -31.403  1.00  0.00     0.009 A 
ENDBRANCH  15  16
ENDBRANCH  11  15
ENDBRANCH   8   9
ENDBRANCH   4   8
BRANCH   1  22
HETATM   22  C   UNL     1      -6.055   0.092 -32.918  1.00  0.00     0.039 A 
HETATM   23  C   UNL     1      -4.799  -0.447 -33.217  1.00  0.00     0.030 A 
HETATM   24  C   UNL     1      -4.702  -1.650 -33.921  1.00  0.00     0.009 A 
HETATM   25  C   UNL     1      -5.855  -2.318 -34.350  1.00  0.00    -0.062 A 
HETATM   26  C   UNL     1      -5.751  -3.630 -35.070  1.00  0.00     0.048 C 
HETATM   27  C   UNL     1      -7.109  -1.777 -34.043  1.00  0.00     0.009 A 
HETATM   28  C   UNL     1      -7.211  -0.577 -33.333  1.00  0.00     0.030 A 
ENDBRANCH   1  22
TORSDOF 5
ENDMDL
MODEL 10
REMARK VINA RESULT:      -8.1      1.994      8.784
REMARK  5 active torsions:
REMARK  status: ('A' for Active; 'I' for Inactive)
REMARK    1  A    between atoms: C_5  and  N_6 
REMARK    2  A    between atoms: C_9  and  C_10 
REMARK    3  A    between atoms: C_10  and  N_11 
REMARK       I    between atoms: N_11  and  C_12 
REMARK       I    between atoms: C_12  and  N_13 
REMARK    4  A    between atoms: N_13  and  C_14 
REMARK    5  A    between atoms: C_14  and  C_15 
ROOT
HETATM    1  N   UNL     1      -6.445   0.828 -32.644  1.00  0.00    -0.319 N 
HETATM    2  C   UNL     1      -6.505   1.074 -31.270  1.00  0.00     0.021 A 
HETATM    3  C   UNL     1      -6.244   0.037 -30.226  1.00  0.00     0.069 C 
HETATM    4  C   UNL     1      -6.755   2.427 -31.072  1.00  0.00    -0.016 A 
HETATM    5  C   UNL     1      -6.799   3.025 -32.354  1.00  0.00     0.035 A 
HETATM    6  C   UNL     1      -6.600   2.045 -33.303  1.00  0.00     0.014 A 
HETATM    7  C   UNL     1      -6.652   2.214 -34.784  1.00  0.00     0.068 C 
ENDROOT
BRANCH   4   8
HETATM    8  C   UNL     1      -6.895   3.163 -29.779  1.00  0.00     0.165 C 
BRANCH   8   9
HETATM    9  N   UNL     1      -5.627   3.793 -29.497  1.00  0.00    -0.339 N 
HETATM   10  C   UNL     1      -5.421   5.102 -29.833  1.00  0.00     0.316 C 
HETATM   11  N   UNL     1      -4.104   5.441 -29.689  1.00  0.00    -0.339 N 
HETATM   12  O   UNL     1      -6.288   5.857 -30.246  1.00  0.00    -0.247 OA
HETATM   13  H   UNL     1      -3.603   4.956 -28.960  1.00  0.00     0.164 HD
HETATM   14  H   UNL     1      -4.811   3.201 -29.546  1.00  0.00     0.164 HD
BRANCH  11  15
HETATM   15  C   UNL     1      -3.638   6.763 -30.030  1.00  0.00     0.162 C 
BRANCH  15  16
HETATM   16  C   UNL     1      -2.171   6.728 -30.373  1.00  0.00    -0.040 A 
HETATM   17  C   UNL     1      -1.722   5.961 -31.460  1.00  0.00     0.009 A 
HETATM   18  C   UNL     1      -0.365   5.907 -31.779  1.00  0.00     0.001 A 
HETATM   19  C   UNL     1       0.558   6.622 -31.018  1.00  0.00     0.000 A 
HETATM   20  C   UNL     1       0.122   7.392 -29.940  1.00  0.00     0.001 A 
HETATM   21  C   UNL     1      -1.235   7.445 -29.618  1.00  0.00     0.009 A 
ENDBRANCH  15  16
ENDBRANCH  11  15
ENDBRANCH   8   9
ENDBRANCH   4   8
BRANCH   1  22
HETATM   22  C   UNL     1      -6.271  -0.444 -33.262  1.00  0.00     0.039 A 
HETATM   23  C   UNL     1      -7.386  -1.162 -33.710  1.00  0.00     0.030 A 
HETATM   24  C   UNL     1      -7.218  -2.399 -34.338  1.00  0.00     0.009 A 
HETATM   25  C   UNL     1      -5.939  -2.941 -34.510  1.00  0.00    -0.062 A 
HETATM   26  C   UNL     1      -5.756  -4.249 -35.221  1.00  0.00     0.048 C 
HETATM   27  C   UNL     1      -4.827  -2.216 -34.066  1.00  0.00     0.009 A 
HETATM   28  C   UNL     1      -4.990  -0.975 -33.442  1.00  0.00     0.030 A 
ENDBRANCH   1  22
TORSDOF 5
ENDMDL
