MODEL 1
REMARK VINA RESULT:      -9.7      0.000      0.000
REMARK  7 active torsions:
REMARK  status: ('A' for Active; 'I' for Inactive)
REMARK    1  A    between atoms: C_4  and  C_5 
REMARK    2  A    between atoms: C_5  and  O_6 
REMARK    3  A    between atoms: C_5  and  C_7 
REMARK    4  A    between atoms: C_9  and  C_10 
REMARK    5  A    between atoms: C_10  and  N_11 
REMARK       I    between atoms: N_11  and  C_12 
REMARK    6  A    between atoms: C_12  and  C_13 
REMARK       I    between atoms: C_13  and  N_14 
REMARK    7  A    between atoms: N_14  and  C_15 
ROOT
HETATM    1  N   UNL     1      -6.398   4.182 -32.781  1.00  0.00    -0.348 N 
HETATM    2  C   UNL     1      -6.245   3.732 -31.495  1.00  0.00     0.310 C 
HETATM    3  O   UNL     1      -6.162   4.418 -30.488  1.00  0.00    -0.262 OA
HETATM    4  H   UNL     1      -6.351   3.473 -33.510  1.00  0.00     0.163 HD
ENDROOT
BRANCH   2   5
HETATM    5  C   UNL     1      -6.142   2.194 -31.408  1.00  0.00     0.313 C 
HETATM    6  N   UNL     1      -5.541   1.642 -32.519  1.00  0.00    -0.319 N 
HETATM    7  H   UNL     1      -5.242   2.318 -33.219  1.00  0.00     0.169 HD
HETATM    8  O   UNL     1      -6.604   1.639 -30.421  1.00  0.00    -0.262 OA
BRANCH   6   9
HETATM    9  C   UNL     1      -5.352   0.276 -32.796  1.00  0.00     0.036 A 
HETATM   10  C   UNL     1      -6.231  -0.482 -33.569  1.00  0.00     0.039 A 
HETATM   11  C   UNL     1      -5.959  -1.829 -33.851  1.00  0.00    -0.028 A 
HETATM   12  C   UNL     1      -4.806  -2.435 -33.340  1.00  0.00     0.050 A 
HETATM   13  C   UNL     1      -6.943  -2.657 -34.624  1.00  0.00     0.050 C 
HETATM   14  N   UNL     1      -4.537  -3.795 -33.650  1.00  0.00    -0.317 N 
HETATM   15  C   UNL     1      -3.948  -1.699 -32.510  1.00  0.00    -0.028 A 
HETATM   16  C   UNL     1      -5.228  -4.484 -34.644  1.00  0.00     0.224 C 
HETATM   17  C   UNL     1      -3.386  -4.454 -33.042  1.00  0.00     0.132 C 
HETATM   18  O   UNL     1      -4.991  -5.658 -34.937  1.00  0.00    -0.273 OA
HETATM   19  C   UNL     1      -6.211  -3.679 -35.463  1.00  0.00     0.108 C 
HETATM   20  C   UNL     1      -2.951  -3.828 -31.726  1.00  0.00     0.025 C 
HETATM   21  C   UNL     1      -2.723  -2.337 -31.916  1.00  0.00     0.042 C 
HETATM   22  C   UNL     1      -4.215  -0.341 -32.264  1.00  0.00     0.039 A 
ENDBRANCH   6   9
ENDBRANCH   2   5
BRANCH   1  23
HETATM   23  C   UNL     1      -6.325   5.574 -33.139  1.00  0.00     0.169 C 
BRANCH  23  24
HETATM   24  C   UNL     1      -4.893   5.888 -33.431  1.00  0.00     0.001 A 
HETATM   25  S   UNL     1      -4.028   6.967 -32.420  1.00  0.00    -0.095 SA
HETATM   26  C   UNL     1      -2.558   6.699 -33.261  1.00  0.00     0.017 A 
HETATM   27  C   UNL     1      -2.745   5.842 -34.329  1.00  0.00     0.018 A 
HETATM   28  C   UNL     1      -4.089   5.380 -34.430  1.00  0.00     0.017 A 
BRANCH  26  29
HETATM   29  C   UNL     1      -1.290   7.344 -32.766  1.00  0.00     0.198 C 
BRANCH  29  30
HETATM   30  C   UNL     1      -0.704   6.674 -31.554  1.00  0.00     0.016 A 
HETATM   31  S   UNL     1      -0.895   7.399 -30.008  1.00  0.00    -0.103 SA
HETATM   32  C   UNL     1      -0.043   6.136 -29.234  1.00  0.00     0.050 A 
HETATM   33  C   UNL     1       0.385   5.178 -30.124  1.00  0.00     0.008 A 
HETATM   34  C   UNL     1       0.004   5.488 -31.461  1.00  0.00     0.018 A 
ENDBRANCH  29  30
BRANCH  29  35
HETATM   35  O   UNL     1      -1.637   8.679 -32.391  1.00  0.00    -0.385 OA
HETATM   36  H   UNL     1      -0.928   8.985 -31.801  1.00  0.00     0.210 HD
ENDBRANCH  29  35
ENDBRANCH  26  29
ENDBRANCH  23  24
ENDBRANCH   1  23
TORSDOF 7
ENDMDL
MODEL 2
REMARK VINA RESULT:      -9.5      1.831      2.033
REMARK  7 active torsions:
REMARK  status: ('A' for Active; 'I' for Inactive)
REMARK    1  A    between atoms: C_4  and  C_5 
REMARK    2  A    between atoms: C_5  and  O_6 
REMARK    3  A    between atoms: C_5  and  C_7 
REMARK    4  A    between atoms: C_9  and  C_10 
REMARK    5  A    between atoms: C_10  and  N_11 
REMARK       I    between atoms: N_11  and  C_12 
REMARK    6  A    between atoms: C_12  and  C_13 
REMARK       I    between atoms: C_13  and  N_14 
REMARK    7  A    between atoms: N_14  and  C_15 
ROOT
HETATM    1  N   UNL     1      -7.406   3.903 -33.613  1.00  0.00    -0.348 N 
HETATM    2  C   UNL     1      -8.525   3.168 -33.906  1.00  0.00     0.310 C 
HETATM    3  O   UNL     1      -9.619   3.603 -34.234  1.00  0.00    -0.262 OA
HETATM    4  H   UNL     1      -6.607   3.379 -33.264  1.00  0.00     0.163 HD
ENDROOT
BRANCH   2   5
HETATM    5  C   UNL     1      -8.300   1.649 -33.745  1.00  0.00     0.313 C 
HETATM    6  N   UNL     1      -6.969   1.300 -33.830  1.00  0.00    -0.319 N 
HETATM    7  H   UNL     1      -6.334   2.084 -33.969  1.00  0.00     0.169 HD
HETATM    8  O   UNL     1      -9.280   0.933 -33.590  1.00  0.00    -0.262 OA
BRANCH   6   9
HETATM    9  C   UNL     1      -6.423   0.005 -33.797  1.00  0.00     0.036 A 
HETATM   10  C   UNL     1      -7.038  -1.105 -34.376  1.00  0.00     0.039 A 
HETATM   11  C   UNL     1      -6.416  -2.363 -34.353  1.00  0.00    -0.028 A 
HETATM   12  C   UNL     1      -5.175  -2.522 -33.728  1.00  0.00     0.050 A 
HETATM   13  C   UNL     1      -7.115  -3.566 -34.915  1.00  0.00     0.050 C 
HETATM   14  N   UNL     1      -4.551  -3.798 -33.730  1.00  0.00    -0.317 N 
HETATM   15  C   UNL     1      -4.577  -1.425 -33.089  1.00  0.00    -0.028 A 
HETATM   16  C   UNL     1      -4.990  -4.841 -34.540  1.00  0.00     0.224 C 
HETATM   17  C   UNL     1      -3.303  -3.986 -32.997  1.00  0.00     0.132 C 
HETATM   18  O   UNL     1      -4.447  -5.947 -34.566  1.00  0.00    -0.273 OA
HETATM   19  C   UNL     1      -6.103  -4.518 -35.511  1.00  0.00     0.108 C 
HETATM   20  C   UNL     1      -3.111  -2.999 -31.857  1.00  0.00     0.025 C 
HETATM   21  C   UNL     1      -3.262  -1.577 -32.375  1.00  0.00     0.042 C 
HETATM   22  C   UNL     1      -5.195  -0.164 -33.149  1.00  0.00     0.039 A 
ENDBRANCH   6   9
ENDBRANCH   2   5
BRANCH   1  23
HETATM   23  C   UNL     1      -7.417   5.338 -33.503  1.00  0.00     0.169 C 
BRANCH  23  24
HETATM   24  C   UNL     1      -6.031   5.772 -33.151  1.00  0.00     0.001 A 
HETATM   25  S   UNL     1      -4.692   5.162 -34.027  1.00  0.00    -0.095 SA
HETATM   26  C   UNL     1      -3.585   6.166 -33.187  1.00  0.00     0.017 A 
HETATM   27  C   UNL     1      -4.227   6.910 -32.216  1.00  0.00     0.018 A 
HETATM   28  C   UNL     1      -5.633   6.679 -32.190  1.00  0.00     0.017 A 
BRANCH  26  29
HETATM   29  C   UNL     1      -2.133   6.170 -33.587  1.00  0.00     0.198 C 
BRANCH  29  30
HETATM   30  C   UNL     1      -1.184   6.179 -32.421  1.00  0.00     0.016 A 
HETATM   31  S   UNL     1      -1.209   4.878 -31.298  1.00  0.00    -0.103 SA
HETATM   32  C   UNL     1       0.055   5.562 -30.373  1.00  0.00     0.050 A 
HETATM   33  C   UNL     1       0.492   6.757 -30.898  1.00  0.00     0.008 A 
HETATM   34  C   UNL     1      -0.221   7.112 -32.078  1.00  0.00     0.018 A 
ENDBRANCH  29  30
BRANCH  29  35
HETATM   35  O   UNL     1      -1.921   7.378 -34.321  1.00  0.00    -0.385 OA
HETATM   36  H   UNL     1      -2.784   7.616 -34.701  1.00  0.00     0.210 HD
ENDBRANCH  29  35
ENDBRANCH  26  29
ENDBRANCH  23  24
ENDBRANCH   1  23
TORSDOF 7
ENDMDL
MODEL 3
REMARK VINA RESULT:      -9.4      1.581      2.158
REMARK  7 active torsions:
REMARK  status: ('A' for Active; 'I' for Inactive)
REMARK    1  A    between atoms: C_4  and  C_5 
REMARK    2  A    between atoms: C_5  and  O_6 
REMARK    3  A    between atoms: C_5  and  C_7 
REMARK    4  A    between atoms: C_9  and  C_10 
REMARK    5  A    between atoms: C_10  and  N_11 
REMARK       I    between atoms: N_11  and  C_12 
REMARK    6  A    between atoms: C_12  and  C_13 
REMARK       I    between atoms: C_13  and  N_14 
REMARK    7  A    between atoms: N_14  and  C_15 
ROOT
HETATM    1  N   UNL     1      -4.907   4.543 -32.983  1.00  0.00    -0.348 N 
HETATM    2  C   UNL     1      -6.001   4.153 -32.256  1.00  0.00     0.310 C 
HETATM    3  O   UNL     1      -6.825   4.885 -31.729  1.00  0.00    -0.262 OA
HETATM    4  H   UNL     1      -4.273   3.800 -33.267  1.00  0.00     0.163 HD
ENDROOT
BRANCH   2   5
HETATM    5  C   UNL     1      -6.106   2.620 -32.109  1.00  0.00     0.313 C 
HETATM    6  N   UNL     1      -5.220   1.950 -32.926  1.00  0.00    -0.319 N 
HETATM    7  H   UNL     1      -4.624   2.553 -33.489  1.00  0.00     0.169 HD
HETATM    8  O   UNL     1      -6.941   2.169 -31.337  1.00  0.00    -0.262 OA
BRANCH   6   9
HETATM    9  C   UNL     1      -5.099   0.559 -33.093  1.00  0.00     0.036 A 
HETATM   10  C   UNL     1      -6.003  -0.210 -33.826  1.00  0.00     0.039 A 
HETATM   11  C   UNL     1      -5.797  -1.588 -33.998  1.00  0.00    -0.028 A 
HETATM   12  C   UNL     1      -4.689  -2.211 -33.415  1.00  0.00     0.050 A 
HETATM   13  C   UNL     1      -6.809  -2.421 -34.728  1.00  0.00     0.050 C 
HETATM   14  N   UNL     1      -4.486  -3.603 -33.614  1.00  0.00    -0.317 N 
HETATM   15  C   UNL     1      -3.809  -1.458 -32.624  1.00  0.00    -0.028 A 
HETATM   16  C   UNL     1      -5.193  -4.331 -34.567  1.00  0.00     0.224 C 
HETATM   17  C   UNL     1      -3.385  -4.271 -32.929  1.00  0.00     0.132 C 
HETATM   18  O   UNL     1      -5.014  -5.534 -34.764  1.00  0.00    -0.273 OA
HETATM   19  C   UNL     1      -6.116  -3.542 -35.469  1.00  0.00     0.108 C 
HETATM   20  C   UNL     1      -2.943  -3.569 -31.655  1.00  0.00     0.025 C 
HETATM   21  C   UNL     1      -2.631  -2.111 -31.953  1.00  0.00     0.042 C 
HETATM   22  C   UNL     1      -4.008  -0.073 -32.489  1.00  0.00     0.039 A 
ENDBRANCH   6   9
ENDBRANCH   2   5
BRANCH   1  23
HETATM   23  C   UNL     1      -4.488   5.916 -33.096  1.00  0.00     0.169 C 
BRANCH  23  24
HETATM   24  C   UNL     1      -3.514   6.179 -31.994  1.00  0.00     0.001 A 
HETATM   25  S   UNL     1      -2.229   5.083 -31.704  1.00  0.00    -0.095 SA
HETATM   26  C   UNL     1      -1.544   6.086 -30.493  1.00  0.00     0.017 A 
HETATM   27  C   UNL     1      -2.319   7.209 -30.280  1.00  0.00     0.018 A 
HETATM   28  C   UNL     1      -3.456   7.260 -31.138  1.00  0.00     0.017 A 
BRANCH  26  29
HETATM   29  C   UNL     1      -0.237   5.694 -29.856  1.00  0.00     0.198 C 
BRANCH  29  30
HETATM   30  C   UNL     1       0.216   6.635 -28.774  1.00  0.00     0.016 A 
HETATM   31  S   UNL     1      -0.202   6.311 -27.139  1.00  0.00    -0.103 SA
HETATM   32  C   UNL     1       0.621   7.701 -26.582  1.00  0.00     0.050 A 
HETATM   33  C   UNL     1       1.203   8.405 -27.610  1.00  0.00     0.008 A 
HETATM   34  C   UNL     1       0.969   7.791 -28.874  1.00  0.00     0.018 A 
ENDBRANCH  29  30
BRANCH  29  35
HETATM   35  O   UNL     1       0.745   5.731 -30.895  1.00  0.00    -0.385 OA
HETATM   36  H   UNL     1       1.389   6.409 -30.630  1.00  0.00     0.210 HD
ENDBRANCH  29  35
ENDBRANCH  26  29
ENDBRANCH  23  24
ENDBRANCH   1  23
TORSDOF 7
ENDMDL
MODEL 4
REMARK VINA RESULT:      -9.0      3.799     10.656
REMARK  7 active torsions:
REMARK  status: ('A' for Active; 'I' for Inactive)
REMARK    1  A    between atoms: C_4  and  C_5 
REMARK    2  A    between atoms: C_5  and  O_6 
REMARK    3  A    between atoms: C_5  and  C_7 
REMARK    4  A    between atoms: C_9  and  C_10 
REMARK    5  A    between atoms: C_10  and  N_11 
REMARK       I    between atoms: N_11  and  C_12 
REMARK    6  A    between atoms: C_12  and  C_13 
REMARK       I    between atoms: C_13  and  N_14 
REMARK    7  A    between atoms: N_14  and  C_15 
ROOT
HETATM    1  N   UNL     1      -4.220   5.738 -33.932  1.00  0.00    -0.348 N 
HETATM    2  C   UNL     1      -2.913   5.926 -34.298  1.00  0.00     0.310 C 
HETATM    3  O   UNL     1      -2.317   5.351 -35.197  1.00  0.00    -0.262 OA
HETATM    4  H   UNL     1      -4.525   6.233 -33.096  1.00  0.00     0.163 HD
ENDROOT
BRANCH   2   5
HETATM    5  C   UNL     1      -2.186   6.959 -33.410  1.00  0.00     0.313 C 
HETATM    6  N   UNL     1      -2.431   6.766 -32.067  1.00  0.00    -0.319 N 
HETATM    7  H   UNL     1      -3.034   5.973 -31.856  1.00  0.00     0.169 HD
HETATM    8  O   UNL     1      -1.515   7.822 -33.959  1.00  0.00    -0.262 OA
BRANCH   6   9
HETATM    9  C   UNL     1      -1.987   7.561 -30.996  1.00  0.00     0.036 A 
HETATM   10  C   UNL     1      -2.564   8.784 -30.654  1.00  0.00     0.039 A 
HETATM   11  C   UNL     1      -2.106   9.506 -29.541  1.00  0.00    -0.028 A 
HETATM   12  C   UNL     1      -1.047   9.015 -28.771  1.00  0.00     0.050 A 
HETATM   13  C   UNL     1      -2.685  10.853 -29.220  1.00  0.00     0.050 C 
HETATM   14  N   UNL     1      -0.609   9.750 -27.638  1.00  0.00    -0.317 N 
HETATM   15  C   UNL     1      -0.419   7.817 -29.144  1.00  0.00    -0.028 A 
HETATM   16  C   UNL     1      -1.343  10.806 -27.104  1.00  0.00     0.224 C 
HETATM   17  C   UNL     1       0.556   9.286 -26.890  1.00  0.00     0.132 C 
HETATM   18  O   UNL     1      -0.984  11.440 -26.110  1.00  0.00    -0.273 OA
HETATM   19  C   UNL     1      -2.697  11.066 -27.723  1.00  0.00     0.108 C 
HETATM   20  C   UNL     1       1.508   8.434 -27.713  1.00  0.00     0.025 C 
HETATM   21  C   UNL     1       0.747   7.286 -28.357  1.00  0.00     0.042 C 
HETATM   22  C   UNL     1      -0.910   7.087 -30.240  1.00  0.00     0.039 A 
ENDBRANCH   6   9
ENDBRANCH   2   5
BRANCH   1  23
HETATM   23  C   UNL     1      -5.046   4.694 -34.479  1.00  0.00     0.169 C 
BRANCH  23  24
HETATM   24  C   UNL     1      -5.082   3.581 -33.483  1.00  0.00     0.001 A 
HETATM   25  S   UNL     1      -6.301   2.381 -33.579  1.00  0.00    -0.095 SA
HETATM   26  C   UNL     1      -5.616   1.472 -32.296  1.00  0.00     0.017 A 
HETATM   27  C   UNL     1      -4.508   2.110 -31.771  1.00  0.00     0.018 A 
HETATM   28  C   UNL     1      -4.205   3.326 -32.449  1.00  0.00     0.017 A 
BRANCH  26  29
HETATM   29  C   UNL     1      -6.221   0.145 -31.921  1.00  0.00     0.198 C 
BRANCH  29  30
HETATM   30  C   UNL     1      -6.068  -0.911 -32.980  1.00  0.00     0.016 A 
HETATM   31  S   UNL     1      -4.514  -1.574 -33.299  1.00  0.00    -0.103 SA
HETATM   32  C   UNL     1      -5.131  -2.617 -34.503  1.00  0.00     0.050 A 
HETATM   33  C   UNL     1      -6.489  -2.471 -34.670  1.00  0.00     0.008 A 
HETATM   34  C   UNL     1      -7.028  -1.488 -33.792  1.00  0.00     0.018 A 
ENDBRANCH  29  30
BRANCH  29  35
HETATM   35  O   UNL     1      -7.620   0.375 -31.744  1.00  0.00    -0.385 OA
HETATM   36  H   UNL     1      -7.753   0.503 -30.790  1.00  0.00     0.210 HD
ENDBRANCH  29  35
ENDBRANCH  26  29
ENDBRANCH  23  24
ENDBRANCH   1  23
TORSDOF 7
ENDMDL
MODEL 5
REMARK VINA RESULT:      -9.0      3.778     10.739
REMARK  7 active torsions:
REMARK  status: ('A' for Active; 'I' for Inactive)
REMARK    1  A    between atoms: C_4  and  C_5 
REMARK    2  A    between atoms: C_5  and  O_6 
REMARK    3  A    between atoms: C_5  and  C_7 
REMARK    4  A    between atoms: C_9  and  C_10 
REMARK    5  A    between atoms: C_10  and  N_11 
REMARK       I    between atoms: N_11  and  C_12 
REMARK    6  A    between atoms: C_12  and  C_13 
REMARK       I    between atoms: C_13  and  N_14 
REMARK    7  A    between atoms: N_14  and  C_15 
ROOT
HETATM    1  N   UNL     1      -4.208   5.701 -33.877  1.00  0.00    -0.348 N 
HETATM    2  C   UNL     1      -2.910   5.928 -34.253  1.00  0.00     0.310 C 
HETATM    3  O   UNL     1      -2.322   5.416 -35.194  1.00  0.00    -0.262 OA
HETATM    4  H   UNL     1      -4.504   6.141 -33.009  1.00  0.00     0.163 HD
ENDROOT
BRANCH   2   5
HETATM    5  C   UNL     1      -2.182   6.918 -33.317  1.00  0.00     0.313 C 
HETATM    6  N   UNL     1      -2.363   6.616 -31.985  1.00  0.00    -0.319 N 
HETATM    7  H   UNL     1      -2.930   5.787 -31.812  1.00  0.00     0.169 HD
HETATM    8  O   UNL     1      -1.564   7.844 -33.825  1.00  0.00    -0.262 OA
BRANCH   6   9
HETATM    9  C   UNL     1      -1.902   7.344 -30.875  1.00  0.00     0.036 A 
HETATM   10  C   UNL     1      -0.792   6.972 -30.116  1.00  0.00     0.039 A 
HETATM   11  C   UNL     1      -0.352   7.772 -29.050  1.00  0.00    -0.028 A 
HETATM   12  C   UNL     1      -1.037   8.946 -28.722  1.00  0.00     0.050 A 
HETATM   13  C   UNL     1       0.800   7.330 -28.195  1.00  0.00     0.050 C 
HETATM   14  N   UNL     1      -0.567   9.753 -27.652  1.00  0.00    -0.317 N 
HETATM   15  C   UNL     1      -2.190   9.297 -29.440  1.00  0.00    -0.028 A 
HETATM   16  C   UNL     1       0.687   9.569 -27.074  1.00  0.00     0.224 C 
HETATM   17  C   UNL     1      -1.334  10.927 -27.249  1.00  0.00     0.132 C 
HETATM   18  O   UNL     1       1.115  10.273 -26.158  1.00  0.00    -0.273 OA
HETATM   19  C   UNL     1       1.581   8.534 -27.719  1.00  0.00     0.108 C 
HETATM   20  C   UNL     1      -2.810  10.841 -27.602  1.00  0.00     0.025 C 
HETATM   21  C   UNL     1      -2.968  10.534 -29.083  1.00  0.00     0.042 C 
HETATM   22  C   UNL     1      -2.600   8.505 -30.526  1.00  0.00     0.039 A 
ENDBRANCH   6   9
ENDBRANCH   2   5
BRANCH   1  23
HETATM   23  C   UNL     1      -5.029   4.679 -34.472  1.00  0.00     0.169 C 
BRANCH  23  24
HETATM   24  C   UNL     1      -5.273   3.637 -33.429  1.00  0.00     0.001 A 
HETATM   25  S   UNL     1      -6.341   2.335 -33.748  1.00  0.00    -0.095 SA
HETATM   26  C   UNL     1      -5.988   1.576 -32.252  1.00  0.00     0.017 A 
HETATM   27  C   UNL     1      -5.112   2.337 -31.503  1.00  0.00     0.018 A 
HETATM   28  C   UNL     1      -4.706   3.526 -32.176  1.00  0.00     0.017 A 
BRANCH  26  29
HETATM   29  C   UNL     1      -6.590   0.231 -31.941  1.00  0.00     0.198 C 
BRANCH  29  30
HETATM   30  C   UNL     1      -6.285  -0.822 -32.971  1.00  0.00     0.016 A 
HETATM   31  S   UNL     1      -4.667  -1.365 -33.175  1.00  0.00    -0.103 SA
HETATM   32  C   UNL     1      -5.120  -2.466 -34.401  1.00  0.00     0.050 A 
HETATM   33  C   UNL     1      -6.471  -2.428 -34.659  1.00  0.00     0.008 A 
HETATM   34  C   UNL     1      -7.142  -1.481 -33.835  1.00  0.00     0.018 A 
ENDBRANCH  29  30
BRANCH  29  35
HETATM   35  O   UNL     1      -8.007   0.419 -31.927  1.00  0.00    -0.385 OA
HETATM   36  H   UNL     1      -8.219   0.922 -32.731  1.00  0.00     0.210 HD
ENDBRANCH  29  35
ENDBRANCH  26  29
ENDBRANCH  23  24
ENDBRANCH   1  23
TORSDOF 7
ENDMDL
MODEL 6
REMARK VINA RESULT:      -8.7      3.693      6.190
REMARK  7 active torsions:
REMARK  status: ('A' for Active; 'I' for Inactive)
REMARK    1  A    between atoms: C_4  and  C_5 
REMARK    2  A    between atoms: C_5  and  O_6 
REMARK    3  A    between atoms: C_5  and  C_7 
REMARK    4  A    between atoms: C_9  and  C_10 
REMARK    5  A    between atoms: C_10  and  N_11 
REMARK       I    between atoms: N_11  and  C_12 
REMARK    6  A    between atoms: C_12  and  C_13 
REMARK       I    between atoms: C_13  and  N_14 
REMARK    7  A    between atoms: N_14  and  C_15 
ROOT
HETATM    1  N   UNL     1      -2.693   7.153 -32.732  1.00  0.00    -0.348 N 
HETATM    2  C   UNL     1      -2.413   6.495 -33.900  1.00  0.00     0.310 C 
HETATM    3  O   UNL     1      -1.392   6.589 -34.565  1.00  0.00    -0.262 OA
HETATM    4  H   UNL     1      -3.633   7.028 -32.363  1.00  0.00     0.163 HD
ENDROOT
BRANCH   2   5
HETATM    5  C   UNL     1      -3.574   5.591 -34.369  1.00  0.00     0.313 C 
HETATM    6  N   UNL     1      -4.443   5.275 -33.347  1.00  0.00    -0.319 N 
HETATM    7  H   UNL     1      -4.207   5.689 -32.448  1.00  0.00     0.169 HD
HETATM    8  O   UNL     1      -3.596   5.239 -35.541  1.00  0.00    -0.262 OA
BRANCH   6   9
HETATM    9  C   UNL     1      -5.559   4.422 -33.410  1.00  0.00     0.036 A 
HETATM   10  C   UNL     1      -5.489   3.044 -33.203  1.00  0.00     0.039 A 
HETATM   11  C   UNL     1      -6.649   2.255 -33.229  1.00  0.00    -0.028 A 
HETATM   12  C   UNL     1      -7.893   2.842 -33.484  1.00  0.00     0.050 A 
HETATM   13  C   UNL     1      -6.557   0.765 -33.075  1.00  0.00     0.050 C 
HETATM   14  N   UNL     1      -9.059   2.031 -33.489  1.00  0.00    -0.317 N 
HETATM   15  C   UNL     1      -7.966   4.216 -33.755  1.00  0.00    -0.028 A 
HETATM   16  C   UNL     1      -9.062   0.726 -33.002  1.00  0.00     0.224 C 
HETATM   17  C   UNL     1     -10.342   2.625 -33.848  1.00  0.00     0.132 C 
HETATM   18  O   UNL     1     -10.070   0.018 -32.982  1.00  0.00    -0.273 OA
HETATM   19  C   UNL     1      -7.782   0.244 -32.358  1.00  0.00     0.108 C 
HETATM   20  C   UNL     1     -10.218   3.860 -34.726  1.00  0.00     0.025 C 
HETATM   21  C   UNL     1      -9.285   4.866 -34.071  1.00  0.00     0.042 C 
HETATM   22  C   UNL     1      -6.801   5.000 -33.692  1.00  0.00     0.039 A 
ENDBRANCH   6   9
ENDBRANCH   2   5
BRANCH   1  23
HETATM   23  C   UNL     1      -1.853   8.193 -32.197  1.00  0.00     0.169 C 
BRANCH  23  24
HETATM   24  C   UNL     1      -1.202   7.654 -30.964  1.00  0.00     0.001 A 
HETATM   25  S   UNL     1      -1.723   8.179 -29.418  1.00  0.00    -0.095 SA
HETATM   26  C   UNL     1      -0.681   7.084 -28.610  1.00  0.00     0.017 A 
HETATM   27  C   UNL     1       0.089   6.372 -29.510  1.00  0.00     0.018 A 
HETATM   28  C   UNL     1      -0.206   6.705 -30.864  1.00  0.00     0.017 A 
BRANCH  26  29
HETATM   29  C   UNL     1      -0.732   6.981 -27.108  1.00  0.00     0.198 C 
BRANCH  29  30
HETATM   30  C   UNL     1       0.305   7.814 -26.408  1.00  0.00     0.016 A 
HETATM   31  S   UNL     1      -0.185   9.171 -25.475  1.00  0.00    -0.103 SA
HETATM   32  C   UNL     1       1.425   9.539 -25.037  1.00  0.00     0.050 A 
HETATM   33  C   UNL     1       2.326   8.655 -25.586  1.00  0.00     0.008 A 
HETATM   34  C   UNL     1       1.681   7.661 -26.376  1.00  0.00     0.018 A 
ENDBRANCH  29  30
BRANCH  29  35
HETATM   35  O   UNL     1      -0.469   5.612 -26.789  1.00  0.00    -0.385 OA
HETATM   36  H   UNL     1       0.498   5.515 -26.801  1.00  0.00     0.210 HD
ENDBRANCH  29  35
ENDBRANCH  26  29
ENDBRANCH  23  24
ENDBRANCH   1  23
TORSDOF 7
ENDMDL
MODEL 7
REMARK VINA RESULT:      -8.7      4.248      6.956
REMARK  7 active torsions:
REMARK  status: ('A' for Active; 'I' for Inactive)
REMARK    1  A    between atoms: C_4  and  C_5 
REMARK    2  A    between atoms: C_5  and  O_6 
REMARK    3  A    between atoms: C_5  and  C_7 
REMARK    4  A    between atoms: C_9  and  C_10 
REMARK    5  A    between atoms: C_10  and  N_11 
REMARK       I    between atoms: N_11  and  C_12 
REMARK    6  A    between atoms: C_12  and  C_13 
REMARK       I    between atoms: C_13  and  N_14 
REMARK    7  A    between atoms: N_14  and  C_15 
ROOT
HETATM    1  N   UNL     1      -7.804   4.436 -31.790  1.00  0.00    -0.348 N 
HETATM    2  C   UNL     1      -6.515   3.992 -31.929  1.00  0.00     0.310 C 
HETATM    3  O   UNL     1      -5.533   4.673 -32.188  1.00  0.00    -0.262 OA
HETATM    4  H   UNL     1      -8.512   3.715 -31.670  1.00  0.00     0.163 HD
ENDROOT
BRANCH   2   5
HETATM    5  C   UNL     1      -6.387   2.463 -31.760  1.00  0.00     0.313 C 
HETATM    6  N   UNL     1      -5.715   1.870 -32.808  1.00  0.00    -0.319 N 
HETATM    7  H   UNL     1      -5.391   2.518 -33.523  1.00  0.00     0.169 HD
HETATM    8  O   UNL     1      -6.892   1.947 -30.772  1.00  0.00    -0.262 OA
BRANCH   6   9
HETATM    9  C   UNL     1      -5.485   0.498 -33.005  1.00  0.00     0.036 A 
HETATM   10  C   UNL     1      -6.348  -0.333 -33.720  1.00  0.00     0.039 A 
HETATM   11  C   UNL     1      -6.035  -1.685 -33.925  1.00  0.00    -0.028 A 
HETATM   12  C   UNL     1      -4.858  -2.223 -33.394  1.00  0.00     0.050 A 
HETATM   13  C   UNL     1      -7.001  -2.589 -34.636  1.00  0.00     0.050 C 
HETATM   14  N   UNL     1      -4.548  -3.590 -33.627  1.00  0.00    -0.317 N 
HETATM   15  C   UNL     1      -4.015  -1.412 -32.621  1.00  0.00    -0.028 A 
HETATM   16  C   UNL     1      -5.228  -4.358 -34.569  1.00  0.00     0.224 C 
HETATM   17  C   UNL     1      -3.370  -4.175 -32.995  1.00  0.00     0.132 C 
HETATM   18  O   UNL     1      -4.957  -5.539 -34.795  1.00  0.00    -0.273 OA
HETATM   19  C   UNL     1      -6.245  -3.636 -35.422  1.00  0.00     0.108 C 
HETATM   20  C   UNL     1      -2.942  -3.458 -31.725  1.00  0.00     0.025 C 
HETATM   21  C   UNL     1      -2.763  -1.975 -32.005  1.00  0.00     0.042 C 
HETATM   22  C   UNL     1      -4.323  -0.051 -32.452  1.00  0.00     0.039 A 
ENDBRANCH   6   9
ENDBRANCH   2   5
BRANCH   1  23
HETATM   23  C   UNL     1      -8.207   5.785 -32.091  1.00  0.00     0.169 C 
BRANCH  23  24
HETATM   24  C   UNL     1      -9.425   5.707 -32.953  1.00  0.00     0.001 A 
HETATM   25  S   UNL     1      -9.784   4.264 -33.804  1.00  0.00    -0.095 SA
HETATM   26  C   UNL     1     -11.276   4.882 -34.380  1.00  0.00     0.017 A 
HETATM   27  C   UNL     1     -11.463   6.189 -33.972  1.00  0.00     0.018 A 
HETATM   28  C   UNL     1     -10.395   6.666 -33.157  1.00  0.00     0.017 A 
BRANCH  26  29
HETATM   29  C   UNL     1     -12.190   3.993 -35.181  1.00  0.00     0.198 C 
BRANCH  29  30
HETATM   30  C   UNL     1     -12.986   3.031 -34.343  1.00  0.00     0.016 A 
HETATM   31  S   UNL     1     -13.002   1.362 -34.753  1.00  0.00    -0.103 SA
HETATM   32  C   UNL     1     -14.019   0.978 -33.434  1.00  0.00     0.050 A 
HETATM   33  C   UNL     1     -14.348   2.089 -32.692  1.00  0.00     0.008 A 
HETATM   34  C   UNL     1     -13.752   3.272 -33.216  1.00  0.00     0.018 A 
ENDBRANCH  29  30
BRANCH  29  35
HETATM   35  O   UNL     1     -11.348   3.219 -36.038  1.00  0.00    -0.385 OA
HETATM   36  H   UNL     1     -10.893   3.856 -36.614  1.00  0.00     0.210 HD
ENDBRANCH  29  35
ENDBRANCH  26  29
ENDBRANCH  23  24
ENDBRANCH   1  23
TORSDOF 7
ENDMDL
MODEL 8
REMARK VINA RESULT:      -8.6      2.558      3.227
REMARK  7 active torsions:
REMARK  status: ('A' for Active; 'I' for Inactive)
REMARK    1  A    between atoms: C_4  and  C_5 
REMARK    2  A    between atoms: C_5  and  O_6 
REMARK    3  A    between atoms: C_5  and  C_7 
REMARK    4  A    between atoms: C_9  and  C_10 
REMARK    5  A    between atoms: C_10  and  N_11 
REMARK       I    between atoms: N_11  and  C_12 
REMARK    6  A    between atoms: C_12  and  C_13 
REMARK       I    between atoms: C_13  and  N_14 
REMARK    7  A    between atoms: N_14  and  C_15 
ROOT
HETATM    1  N   UNL     1      -5.964   4.675 -30.334  1.00  0.00    -0.348 N 
HETATM    2  C   UNL     1      -5.625   4.064 -31.513  1.00  0.00     0.310 C 
HETATM    3  O   UNL     1      -5.392   4.614 -32.579  1.00  0.00    -0.262 OA
HETATM    4  H   UNL     1      -6.218   4.056 -29.568  1.00  0.00     0.163 HD
ENDROOT
BRANCH   2   5
HETATM    5  C   UNL     1      -5.591   2.525 -31.400  1.00  0.00     0.313 C 
HETATM    6  N   UNL     1      -5.124   1.921 -32.548  1.00  0.00    -0.319 N 
HETATM    7  H   UNL     1      -4.858   2.567 -33.288  1.00  0.00     0.169 HD
HETATM    8  O   UNL     1      -5.986   2.013 -30.361  1.00  0.00    -0.262 OA
BRANCH   6   9
HETATM    9  C   UNL     1      -5.030   0.543 -32.809  1.00  0.00     0.036 A 
HETATM   10  C   UNL     1      -5.957  -0.161 -33.578  1.00  0.00     0.039 A 
HETATM   11  C   UNL     1      -5.778  -1.527 -33.844  1.00  0.00    -0.028 A 
HETATM   12  C   UNL     1      -4.674  -2.207 -33.320  1.00  0.00     0.050 A 
HETATM   13  C   UNL     1      -6.814  -2.292 -34.614  1.00  0.00     0.050 C 
HETATM   14  N   UNL     1      -4.499  -3.585 -33.614  1.00  0.00    -0.317 N 
HETATM   15  C   UNL     1      -3.770  -1.523 -32.493  1.00  0.00    -0.028 A 
HETATM   16  C   UNL     1      -5.232  -4.235 -34.604  1.00  0.00     0.224 C 
HETATM   17  C   UNL     1      -3.401  -4.317 -32.991  1.00  0.00     0.132 C 
HETATM   18  O   UNL     1      -5.077  -5.426 -34.883  1.00  0.00    -0.273 OA
HETATM   19  C   UNL     1      -6.151  -3.373 -35.438  1.00  0.00     0.108 C 
HETATM   20  C   UNL     1      -2.930  -3.709 -31.680  1.00  0.00     0.025 C 
HETATM   21  C   UNL     1      -2.596  -2.240 -31.884  1.00  0.00     0.042 C 
HETATM   22  C   UNL     1      -3.942  -0.148 -32.264  1.00  0.00     0.039 A 
ENDBRANCH   6   9
ENDBRANCH   2   5
BRANCH   1  23
HETATM   23  C   UNL     1      -6.248   6.083 -30.234  1.00  0.00     0.169 C 
BRANCH  23  24
HETATM   24  C   UNL     1      -5.173   6.698 -29.398  1.00  0.00     0.001 A 
HETATM   25  S   UNL     1      -4.878   6.118 -27.813  1.00  0.00    -0.095 SA
HETATM   26  C   UNL     1      -3.523   7.147 -27.604  1.00  0.00     0.017 A 
HETATM   27  C   UNL     1      -3.338   7.957 -28.708  1.00  0.00     0.018 A 
HETATM   28  C   UNL     1      -4.291   7.704 -29.737  1.00  0.00     0.017 A 
BRANCH  26  29
HETATM   29  C   UNL     1      -2.700   7.046 -26.347  1.00  0.00     0.198 C 
BRANCH  29  30
HETATM   30  C   UNL     1      -1.228   7.253 -26.569  1.00  0.00     0.016 A 
HETATM   31  S   UNL     1      -0.459   8.644 -25.911  1.00  0.00    -0.103 SA
HETATM   32  C   UNL     1       1.064   8.179 -26.531  1.00  0.00     0.050 A 
HETATM   33  C   UNL     1       1.000   6.993 -27.227  1.00  0.00     0.008 A 
HETATM   34  C   UNL     1      -0.320   6.460 -27.249  1.00  0.00     0.018 A 
ENDBRANCH  29  30
BRANCH  29  35
HETATM   35  O   UNL     1      -2.876   5.714 -25.857  1.00  0.00    -0.385 OA
HETATM   36  H   UNL     1      -2.432   5.132 -26.497  1.00  0.00     0.210 HD
ENDBRANCH  29  35
ENDBRANCH  26  29
ENDBRANCH  23  24
ENDBRANCH   1  23
TORSDOF 7
ENDMDL
MODEL 9
REMARK VINA RESULT:      -8.5      1.987      2.383
REMARK  7 active torsions:
REMARK  status: ('A' for Active; 'I' for Inactive)
REMARK    1  A    between atoms: C_4  and  C_5 
REMARK    2  A    between atoms: C_5  and  O_6 
REMARK    3  A    between atoms: C_5  and  C_7 
REMARK    4  A    between atoms: C_9  and  C_10 
REMARK    5  A    between atoms: C_10  and  N_11 
REMARK       I    between atoms: N_11  and  C_12 
REMARK    6  A    between atoms: C_12  and  C_13 
REMARK       I    between atoms: C_13  and  N_14 
REMARK    7  A    between atoms: N_14  and  C_15 
ROOT
HETATM    1  N   UNL     1      -7.400   4.751 -31.938  1.00  0.00    -0.348 N 
HETATM    2  C   UNL     1      -7.175   3.998 -33.061  1.00  0.00     0.310 C 
HETATM    3  O   UNL     1      -7.103   4.405 -34.211  1.00  0.00    -0.262 OA
HETATM    4  H   UNL     1      -7.526   4.233 -31.072  1.00  0.00     0.163 HD
ENDROOT
BRANCH   2   5
HETATM    5  C   UNL     1      -7.047   2.490 -32.753  1.00  0.00     0.313 C 
HETATM    6  N   UNL     1      -6.080   1.875 -33.520  1.00  0.00    -0.319 N 
HETATM    7  H   UNL     1      -5.587   2.497 -34.158  1.00  0.00     0.169 HD
HETATM    8  O   UNL     1      -7.796   2.006 -31.915  1.00  0.00    -0.262 OA
BRANCH   6   9
HETATM    9  C   UNL     1      -5.754   0.508 -33.545  1.00  0.00     0.036 A 
HETATM   10  C   UNL     1      -6.537  -0.460 -34.174  1.00  0.00     0.039 A 
HETATM   11  C   UNL     1      -6.129  -1.802 -34.206  1.00  0.00    -0.028 A 
HETATM   12  C   UNL     1      -4.936  -2.190 -33.587  1.00  0.00     0.050 A 
HETATM   13  C   UNL     1      -7.010  -2.849 -34.824  1.00  0.00     0.050 C 
HETATM   14  N   UNL     1      -4.529  -3.549 -33.646  1.00  0.00    -0.317 N 
HETATM   15  C   UNL     1      -4.173  -1.235 -32.898  1.00  0.00    -0.028 A 
HETATM   16  C   UNL     1      -5.126  -4.470 -34.503  1.00  0.00     0.224 C 
HETATM   17  C   UNL     1      -3.335  -3.971 -32.920  1.00  0.00     0.132 C 
HETATM   18  O   UNL     1      -4.771  -5.648 -34.578  1.00  0.00    -0.273 OA
HETATM   19  C   UNL     1      -6.162  -3.927 -35.460  1.00  0.00     0.108 C 
HETATM   20  C   UNL     1      -2.995  -3.080 -31.736  1.00  0.00     0.025 C 
HETATM   21  C   UNL     1      -2.907  -1.632 -32.190  1.00  0.00     0.042 C 
HETATM   22  C   UNL     1      -4.576   0.111 -32.903  1.00  0.00     0.039 A 
ENDBRANCH   6   9
ENDBRANCH   2   5
BRANCH   1  23
HETATM   23  C   UNL     1      -7.744   6.148 -31.987  1.00  0.00     0.169 C 
BRANCH  23  24
HETATM   24  C   UNL     1      -6.696   6.894 -31.228  1.00  0.00     0.001 A 
HETATM   25  S   UNL     1      -5.238   6.112 -30.780  1.00  0.00    -0.095 SA
HETATM   26  C   UNL     1      -4.570   7.554 -30.138  1.00  0.00     0.017 A 
HETATM   27  C   UNL     1      -5.472   8.598 -30.216  1.00  0.00     0.018 A 
HETATM   28  C   UNL     1      -6.697   8.217 -30.836  1.00  0.00     0.017 A 
BRANCH  26  29
HETATM   29  C   UNL     1      -3.154   7.553 -29.626  1.00  0.00     0.198 C 
BRANCH  29  30
HETATM   30  C   UNL     1      -2.143   7.104 -30.644  1.00  0.00     0.016 A 
HETATM   31  S   UNL     1      -1.927   8.016 -32.085  1.00  0.00    -0.103 SA
HETATM   32  C   UNL     1      -0.708   6.961 -32.651  1.00  0.00     0.050 A 
HETATM   33  C   UNL     1      -0.464   5.931 -31.772  1.00  0.00     0.008 A 
HETATM   34  C   UNL     1      -1.291   6.013 -30.615  1.00  0.00     0.018 A 
ENDBRANCH  29  30
BRANCH  29  35
HETATM   35  O   UNL     1      -3.117   6.619 -28.544  1.00  0.00    -0.385 OA
HETATM   36  H   UNL     1      -3.193   7.147 -27.731  1.00  0.00     0.210 HD
ENDBRANCH  29  35
ENDBRANCH  26  29
ENDBRANCH  23  24
ENDBRANCH   1  23
TORSDOF 7
ENDMDL
MODEL 10
REMARK VINA RESULT:      -8.4      2.404      3.431
REMARK  7 active torsions:
REMARK  status: ('A' for Active; 'I' for Inactive)
REMARK    1  A    between atoms: C_4  and  C_5 
REMARK    2  A    between atoms: C_5  and  O_6 
REMARK    3  A    between atoms: C_5  and  C_7 
REMARK    4  A    between atoms: C_9  and  C_10 
REMARK    5  A    between atoms: C_10  and  N_11 
REMARK       I    between atoms: N_11  and  C_12 
REMARK    6  A    between atoms: C_12  and  C_13 
REMARK       I    between atoms: C_13  and  N_14 
REMARK    7  A    between atoms: N_14  and  C_15 
ROOT
HETATM    1  N   UNL     1      -4.538   6.426 -32.371  1.00  0.00    -0.348 N 
HETATM    2  C   UNL     1      -5.843   6.195 -32.722  1.00  0.00     0.310 C 
HETATM    3  O   UNL     1      -6.777   6.974 -32.609  1.00  0.00    -0.262 OA
HETATM    4  H   UNL     1      -3.909   5.630 -32.444  1.00  0.00     0.163 HD
ENDROOT
BRANCH   2   5
HETATM    5  C   UNL     1      -6.070   4.772 -33.274  1.00  0.00     0.313 C 
HETATM    6  N   UNL     1      -5.484   3.801 -32.489  1.00  0.00    -0.319 N 
HETATM    7  H   UNL     1      -5.005   4.157 -31.664  1.00  0.00     0.169 HD
HETATM    8  O   UNL     1      -6.699   4.650 -34.316  1.00  0.00    -0.262 OA
BRANCH   6   9
HETATM    9  C   UNL     1      -5.437   2.418 -32.737  1.00  0.00     0.036 A 
HETATM   10  C   UNL     1      -6.481   1.706 -33.327  1.00  0.00     0.039 A 
HETATM   11  C   UNL     1      -6.351   0.334 -33.594  1.00  0.00    -0.028 A 
HETATM   12  C   UNL     1      -5.176  -0.341 -33.250  1.00  0.00     0.050 A 
HETATM   13  C   UNL     1      -7.503  -0.440 -34.165  1.00  0.00     0.050 C 
HETATM   14  N   UNL     1      -5.055  -1.726 -33.544  1.00  0.00    -0.317 N 
HETATM   15  C   UNL     1      -4.145   0.353 -32.600  1.00  0.00    -0.028 A 
HETATM   16  C   UNL     1      -5.944  -2.390 -34.385  1.00  0.00     0.224 C 
HETATM   17  C   UNL     1      -3.869  -2.451 -33.101  1.00  0.00     0.132 C 
HETATM   18  O   UNL     1      -5.840  -3.586 -34.663  1.00  0.00    -0.273 OA
HETATM   19  C   UNL     1      -6.990  -1.538 -35.068  1.00  0.00     0.108 C 
HETATM   20  C   UNL     1      -3.183  -1.821 -31.899  1.00  0.00     0.025 C 
HETATM   21  C   UNL     1      -2.886  -0.358 -32.183  1.00  0.00     0.042 C 
HETATM   22  C   UNL     1      -4.274   1.733 -32.369  1.00  0.00     0.039 A 
ENDBRANCH   6   9
ENDBRANCH   2   5
BRANCH   1  23
HETATM   23  C   UNL     1      -4.114   7.603 -31.658  1.00  0.00     0.169 C 
BRANCH  23  24
HETATM   24  C   UNL     1      -2.811   7.283 -31.001  1.00  0.00     0.001 A 
HETATM   25  S   UNL     1      -2.693   7.264 -29.292  1.00  0.00    -0.095 SA
HETATM   26  C   UNL     1      -1.069   6.715 -29.332  1.00  0.00     0.017 A 
HETATM   27  C   UNL     1      -0.613   6.605 -30.632  1.00  0.00     0.018 A 
HETATM   28  C   UNL     1      -1.612   6.938 -31.592  1.00  0.00     0.017 A 
BRANCH  26  29
HETATM   29  C   UNL     1      -0.362   6.390 -28.043  1.00  0.00     0.198 C 
BRANCH  29  30
HETATM   30  C   UNL     1       0.295   7.578 -27.396  1.00  0.00     0.016 A 
HETATM   31  S   UNL     1      -0.401   8.267 -25.984  1.00  0.00    -0.103 SA
HETATM   32  C   UNL     1       0.830   9.447 -25.871  1.00  0.00     0.050 A 
HETATM   33  C   UNL     1       1.755   9.329 -26.883  1.00  0.00     0.008 A 
HETATM   34  C   UNL     1       1.447   8.252 -27.762  1.00  0.00     0.018 A 
ENDBRANCH  29  30
BRANCH  29  35
HETATM   35  O   UNL     1       0.670   5.457 -28.373  1.00  0.00    -0.385 OA
HETATM   36  H   UNL     1       0.398   4.608 -27.985  1.00  0.00     0.210 HD
ENDBRANCH  29  35
ENDBRANCH  26  29
ENDBRANCH  23  24
ENDBRANCH   1  23
TORSDOF 7
ENDMDL
