MODEL 1
REMARK VINA RESULT:     -10.1      0.000      0.000
REMARK  6 active torsions:
REMARK  status: ('A' for Active; 'I' for Inactive)
REMARK    1  A    between atoms: C_2  and  C_3 
REMARK       I    between atoms: C_3  and  N_4 
REMARK    2  A    between atoms: N_4  and  C_5 
REMARK    3  A    between atoms: C_16  and  N_17 
REMARK    4  A    between atoms: C_20  and  N_21 
REMARK    5  A    between atoms: N_21  and  C_24 
REMARK    6  A    between atoms: C_24  and  C_25 
ROOT
HETATM    1  C   UNL     1      -3.414   2.934 -32.153  1.00  0.00     0.019 A 
HETATM    2  C   UNL     1      -3.234   4.101 -32.893  1.00  0.00     0.032 A 
HETATM    3  C   UNL     1      -4.270   4.576 -33.697  1.00  0.00     0.019 A 
HETATM    4  C   UNL     1      -5.492   3.889 -33.736  1.00  0.00     0.030 A 
HETATM    5  C   UNL     1      -5.706   2.722 -32.987  1.00  0.00     0.030 A 
HETATM    6  C   UNL     1      -4.633   2.253 -32.211  1.00  0.00     0.030 A 
ENDROOT
BRANCH   5   7
HETATM    7  N   UNL     1      -6.936   2.075 -32.933  1.00  0.00    -0.381 N 
HETATM    8  C   UNL     1      -7.732   1.997 -34.152  1.00  0.00     0.125 C 
HETATM    9  C   UNL     1      -8.393   0.625 -34.199  1.00  0.00     0.053 C 
HETATM   10  C   UNL     1      -9.167   0.311 -32.917  1.00  0.00     0.189 C 
HETATM   11  C   UNL     1      -8.318   0.545 -31.663  1.00  0.00     0.053 C 
HETATM   12  C   UNL     1      -7.624   1.907 -31.659  1.00  0.00     0.125 C 
BRANCH  10  13
HETATM   13  N   UNL     1     -10.428   1.129 -32.813  1.00  0.00    -0.067 N 
HETATM   14  H   UNL     1     -11.070   0.667 -32.152  1.00  0.00     0.277 HD
HETATM   15  H   UNL     1     -10.242   2.050 -32.398  1.00  0.00     0.277 HD
BRANCH  13  16
HETATM   16  C   UNL     1     -11.206   1.324 -34.075  1.00  0.00     0.271 C 
BRANCH  16  17
HETATM   17  C   UNL     1     -12.673   1.417 -33.769  1.00  0.00    -0.030 A 
HETATM   18  C   UNL     1     -13.156   2.423 -32.915  1.00  0.00     0.048 A 
HETATM   19  C   UNL     1     -14.517   2.494 -32.704  1.00  0.00     0.105 A 
HETATM   20  C   UNL     1     -15.394   1.626 -33.306  1.00  0.00     0.105 A 
HETATM   21  O   UNL     1     -15.146   3.399 -31.909  1.00  0.00    -0.323 OA
HETATM   22  O   UNL     1     -16.684   1.874 -32.965  1.00  0.00    -0.323 OA
HETATM   23  C   UNL     1     -14.959   0.632 -34.154  1.00  0.00     0.040 A 
HETATM   24  C   UNL     1     -16.523   2.979 -32.050  1.00  0.00     0.352 A 
HETATM   25  C   UNL     1     -13.584   0.528 -34.388  1.00  0.00     0.012 A 
ENDBRANCH  16  17
ENDBRANCH  13  16
ENDBRANCH  10  13
ENDBRANCH   5   7
BRANCH   2  26
HETATM   26  C   UNL     1      -1.972   4.858 -32.716  1.00  0.00     0.252 C 
HETATM   27  N   UNL     1      -1.712   5.333 -31.453  1.00  0.00    -0.344 N 
HETATM   28  H   UNL     1      -2.439   5.283 -30.752  1.00  0.00     0.163 HD
HETATM   29  O   UNL     1      -1.247   5.045 -33.687  1.00  0.00    -0.268 OA
BRANCH  27  30
HETATM   30  C   UNL     1      -0.478   6.023 -31.075  1.00  0.00     0.171 C 
HETATM   31  C   UNL     1       0.515   5.117 -30.324  1.00  0.00     0.220 C 
HETATM   32  O   UNL     1       1.314   4.398 -30.922  1.00  0.00    -0.278 OA
HETATM   33  N   UNL     1       0.326   5.005 -28.963  1.00  0.00    -0.261 NA
HETATM   34  C   UNL     1       0.576   6.168 -28.139  1.00  0.00     0.095 C 
HETATM   35  H   UNL     1      -0.616   4.648 -28.784  1.00  0.00     0.130 HD
HETATM   36  C   UNL     1      -0.664   7.026 -27.914  1.00  0.00     0.015 C 
HETATM   37  C   UNL     1      -1.401   7.542 -29.154  1.00  0.00     0.004 C 
HETATM   38  C   UNL     1      -0.676   7.428 -30.491  1.00  0.00     0.034 C 
ENDBRANCH  27  30
ENDBRANCH   2  26
TORSDOF 6
ENDMDL
MODEL 2
REMARK VINA RESULT:      -9.8      4.291      6.042
REMARK  6 active torsions:
REMARK  status: ('A' for Active; 'I' for Inactive)
REMARK    1  A    between atoms: C_2  and  C_3 
REMARK       I    between atoms: C_3  and  N_4 
REMARK    2  A    between atoms: N_4  and  C_5 
REMARK    3  A    between atoms: C_16  and  N_17 
REMARK    4  A    between atoms: C_20  and  N_21 
REMARK    5  A    between atoms: N_21  and  C_24 
REMARK    6  A    between atoms: C_24  and  C_25 
ROOT
HETATM    1  C   UNL     1      -2.690   3.334 -32.164  1.00  0.00     0.019 A 
HETATM    2  C   UNL     1      -2.792   4.600 -31.593  1.00  0.00     0.032 A 
HETATM    3  C   UNL     1      -4.051   5.166 -31.387  1.00  0.00     0.019 A 
HETATM    4  C   UNL     1      -5.203   4.446 -31.735  1.00  0.00     0.030 A 
HETATM    5  C   UNL     1      -5.129   3.160 -32.294  1.00  0.00     0.030 A 
HETATM    6  C   UNL     1      -3.846   2.632 -32.516  1.00  0.00     0.030 A 
ENDROOT
BRANCH   5   7
HETATM    7  N   UNL     1      -6.254   2.387 -32.559  1.00  0.00    -0.381 N 
HETATM    8  C   UNL     1      -6.655   1.387 -31.576  1.00  0.00     0.125 C 
HETATM    9  C   UNL     1      -8.176   1.380 -31.502  1.00  0.00     0.053 C 
HETATM   10  C   UNL     1      -8.822   1.208 -32.879  1.00  0.00     0.189 C 
HETATM   11  C   UNL     1      -8.259   2.198 -33.904  1.00  0.00     0.053 C 
HETATM   12  C   UNL     1      -6.730   2.226 -33.927  1.00  0.00     0.125 C 
BRANCH  10  13
HETATM   13  N   UNL     1      -8.648  -0.192 -33.407  1.00  0.00    -0.067 N 
HETATM   14  H   UNL     1      -8.179  -0.763 -32.689  1.00  0.00     0.277 HD
HETATM   15  H   UNL     1      -9.556  -0.651 -33.555  1.00  0.00     0.277 HD
BRANCH  13  16
HETATM   16  C   UNL     1      -7.832  -0.342 -34.651  1.00  0.00     0.271 C 
BRANCH  16  17
HETATM   17  C   UNL     1      -6.732  -1.340 -34.429  1.00  0.00    -0.030 A 
HETATM   18  C   UNL     1      -6.944  -2.701 -34.704  1.00  0.00     0.048 A 
HETATM   19  C   UNL     1      -5.887  -3.569 -34.529  1.00  0.00     0.105 A 
HETATM   20  C   UNL     1      -4.653  -3.139 -34.110  1.00  0.00     0.105 A 
HETATM   21  O   UNL     1      -5.924  -4.911 -34.745  1.00  0.00    -0.323 OA
HETATM   22  O   UNL     1      -3.758  -4.154 -34.008  1.00  0.00    -0.323 OA
HETATM   23  C   UNL     1      -4.404  -1.813 -33.839  1.00  0.00     0.040 A 
HETATM   24  C   UNL     1      -4.576  -5.285 -34.379  1.00  0.00     0.352 A 
HETATM   25  C   UNL     1      -5.455  -0.904 -34.001  1.00  0.00     0.012 A 
ENDBRANCH  16  17
ENDBRANCH  13  16
ENDBRANCH  10  13
ENDBRANCH   5   7
BRANCH   2  26
HETATM   26  C   UNL     1      -1.552   5.263 -31.126  1.00  0.00     0.252 C 
HETATM   27  N   UNL     1      -1.679   6.128 -30.067  1.00  0.00    -0.344 N 
HETATM   28  H   UNL     1      -2.605   6.389 -29.756  1.00  0.00     0.163 HD
HETATM   29  O   UNL     1      -0.498   5.035 -31.709  1.00  0.00    -0.268 OA
BRANCH  27  30
HETATM   30  C   UNL     1      -0.552   6.802 -29.419  1.00  0.00     0.171 C 
HETATM   31  C   UNL     1       0.188   5.905 -28.408  1.00  0.00     0.220 C 
HETATM   32  O   UNL     1       1.083   5.138 -28.760  1.00  0.00    -0.278 OA
HETATM   33  N   UNL     1      -0.338   5.862 -27.135  1.00  0.00    -0.261 NA
HETATM   34  C   UNL     1      -0.257   7.055 -26.320  1.00  0.00     0.095 C 
HETATM   35  H   UNL     1      -1.307   5.540 -27.183  1.00  0.00     0.130 HD
HETATM   36  C   UNL     1      -1.480   7.956 -26.446  1.00  0.00     0.015 C 
HETATM   37  C   UNL     1      -1.865   8.433 -27.850  1.00  0.00     0.004 C 
HETATM   38  C   UNL     1      -0.836   8.237 -28.957  1.00  0.00     0.034 C 
ENDBRANCH  27  30
ENDBRANCH   2  26
TORSDOF 6
ENDMDL
MODEL 3
REMARK VINA RESULT:      -9.5      1.905      2.096
REMARK  6 active torsions:
REMARK  status: ('A' for Active; 'I' for Inactive)
REMARK    1  A    between atoms: C_2  and  C_3 
REMARK       I    between atoms: C_3  and  N_4 
REMARK    2  A    between atoms: N_4  and  C_5 
REMARK    3  A    between atoms: C_16  and  N_17 
REMARK    4  A    between atoms: C_20  and  N_21 
REMARK    5  A    between atoms: N_21  and  C_24 
REMARK    6  A    between atoms: C_24  and  C_25 
ROOT
HETATM    1  C   UNL     1      -3.268   2.822 -32.294  1.00  0.00     0.019 A 
HETATM    2  C   UNL     1      -3.180   4.055 -32.938  1.00  0.00     0.032 A 
HETATM    3  C   UNL     1      -4.286   4.554 -33.628  1.00  0.00     0.019 A 
HETATM    4  C   UNL     1      -5.483   3.824 -33.647  1.00  0.00     0.030 A 
HETATM    5  C   UNL     1      -5.604   2.589 -32.990  1.00  0.00     0.030 A 
HETATM    6  C   UNL     1      -4.464   2.100 -32.331  1.00  0.00     0.030 A 
ENDROOT
BRANCH   5   7
HETATM    7  N   UNL     1      -6.804   1.890 -32.913  1.00  0.00    -0.381 N 
HETATM    8  C   UNL     1      -7.742   1.999 -34.024  1.00  0.00     0.125 C 
HETATM    9  C   UNL     1      -8.374   0.631 -34.246  1.00  0.00     0.053 C 
HETATM   10  C   UNL     1      -8.978   0.058 -32.962  1.00  0.00     0.189 C 
HETATM   11  C   UNL     1      -7.987   0.098 -31.794  1.00  0.00     0.053 C 
HETATM   12  C   UNL     1      -7.327   1.466 -31.621  1.00  0.00     0.125 C 
BRANCH  10  13
HETATM   13  N   UNL     1     -10.234   0.788 -32.562  1.00  0.00    -0.067 N 
HETATM   14  H   UNL     1     -10.530   0.456 -31.632  1.00  0.00     0.277 HD
HETATM   15  H   UNL     1     -10.059   1.793 -32.438  1.00  0.00     0.277 HD
BRANCH  13  16
HETATM   16  C   UNL     1     -11.420   0.619 -33.456  1.00  0.00     0.271 C 
BRANCH  16  17
HETATM   17  C   UNL     1     -11.789   1.935 -34.079  1.00  0.00    -0.030 A 
HETATM   18  C   UNL     1     -11.679   3.124 -33.339  1.00  0.00     0.048 A 
HETATM   19  C   UNL     1     -11.984   4.311 -33.971  1.00  0.00     0.105 A 
HETATM   20  C   UNL     1     -12.378   4.355 -35.286  1.00  0.00     0.105 A 
HETATM   21  O   UNL     1     -11.934   5.544 -33.402  1.00  0.00    -0.323 OA
HETATM   22  O   UNL     1     -12.626   5.621 -35.710  1.00  0.00    -0.323 OA
HETATM   23  C   UNL     1     -12.490   3.213 -36.046  1.00  0.00     0.040 A 
HETATM   24  C   UNL     1     -12.377   6.372 -34.503  1.00  0.00     0.352 A 
HETATM   25  C   UNL     1     -12.192   1.990 -35.435  1.00  0.00     0.012 A 
ENDBRANCH  16  17
ENDBRANCH  13  16
ENDBRANCH  10  13
ENDBRANCH   5   7
BRANCH   2  26
HETATM   26  C   UNL     1      -1.937   4.844 -32.778  1.00  0.00     0.252 C 
HETATM   27  N   UNL     1      -1.630   5.256 -31.504  1.00  0.00    -0.344 N 
HETATM   28  H   UNL     1      -2.319   5.141 -30.773  1.00  0.00     0.163 HD
HETATM   29  O   UNL     1      -1.268   5.111 -33.770  1.00  0.00    -0.268 OA
BRANCH  27  30
HETATM   30  C   UNL     1      -0.401   5.967 -31.146  1.00  0.00     0.171 C 
HETATM   31  C   UNL     1       0.602   5.089 -30.374  1.00  0.00     0.220 C 
HETATM   32  O   UNL     1       1.406   4.363 -30.955  1.00  0.00    -0.278 OA
HETATM   33  N   UNL     1       0.416   5.011 -29.011  1.00  0.00    -0.261 NA
HETATM   34  C   UNL     1       0.657   6.196 -28.217  1.00  0.00     0.095 C 
HETATM   35  H   UNL     1      -0.522   4.650 -28.820  1.00  0.00     0.130 HD
HETATM   36  C   UNL     1      -0.591   7.049 -28.012  1.00  0.00     0.015 C 
HETATM   37  C   UNL     1      -1.334   7.526 -29.263  1.00  0.00     0.004 C 
HETATM   38  C   UNL     1      -0.611   7.385 -30.598  1.00  0.00     0.034 C 
ENDBRANCH  27  30
ENDBRANCH   2  26
TORSDOF 6
ENDMDL
MODEL 4
REMARK VINA RESULT:      -9.5      6.810     14.777
REMARK  6 active torsions:
REMARK  status: ('A' for Active; 'I' for Inactive)
REMARK    1  A    between atoms: C_2  and  C_3 
REMARK       I    between atoms: C_3  and  N_4 
REMARK    2  A    between atoms: N_4  and  C_5 
REMARK    3  A    between atoms: C_16  and  N_17 
REMARK    4  A    between atoms: C_20  and  N_21 
REMARK    5  A    between atoms: N_21  and  C_24 
REMARK    6  A    between atoms: C_24  and  C_25 
ROOT
HETATM    1  C   UNL     1       0.330   5.858 -28.696  1.00  0.00     0.019 A 
HETATM    2  C   UNL     1      -0.376   6.298 -29.813  1.00  0.00     0.032 A 
HETATM    3  C   UNL     1      -0.988   7.552 -29.793  1.00  0.00     0.019 A 
HETATM    4  C   UNL     1      -0.868   8.368 -28.658  1.00  0.00     0.030 A 
HETATM    5  C   UNL     1      -0.146   7.956 -27.527  1.00  0.00     0.030 A 
HETATM    6  C   UNL     1       0.433   6.676 -27.568  1.00  0.00     0.030 A 
ENDROOT
BRANCH   5   7
HETATM    7  N   UNL     1       0.069   8.781 -26.428  1.00  0.00    -0.381 N 
HETATM    8  C   UNL     1       1.428   9.234 -26.158  1.00  0.00     0.125 C 
HETATM    9  C   UNL     1       1.359  10.681 -25.685  1.00  0.00     0.053 C 
HETATM   10  C   UNL     1       0.388  10.862 -24.516  1.00  0.00     0.189 C 
HETATM   11  C   UNL     1      -0.983  10.242 -24.809  1.00  0.00     0.053 C 
HETATM   12  C   UNL     1      -0.888   8.808 -25.330  1.00  0.00     0.125 C 
BRANCH  10  13
HETATM   13  N   UNL     1       0.930  10.268 -23.242  1.00  0.00    -0.067 N 
HETATM   14  H   UNL     1       0.201  10.317 -22.516  1.00  0.00     0.277 HD
HETATM   15  H   UNL     1       1.126   9.265 -23.351  1.00  0.00     0.277 HD
BRANCH  13  16
HETATM   16  C   UNL     1       2.138  10.927 -22.658  1.00  0.00     0.271 C 
BRANCH  16  17
HETATM   17  C   UNL     1       3.311   9.990 -22.703  1.00  0.00    -0.030 A 
HETATM   18  C   UNL     1       3.311   8.818 -21.929  1.00  0.00     0.048 A 
HETATM   19  C   UNL     1       4.391   7.968 -22.043  1.00  0.00     0.105 A 
HETATM   20  C   UNL     1       5.440   8.232 -22.887  1.00  0.00     0.105 A 
HETATM   21  O   UNL     1       4.550   6.800 -21.365  1.00  0.00    -0.323 OA
HETATM   22  O   UNL     1       6.393   7.265 -22.847  1.00  0.00    -0.323 OA
HETATM   23  C   UNL     1       5.473   9.366 -23.667  1.00  0.00     0.040 A 
HETATM   24  C   UNL     1       5.842   6.373 -21.855  1.00  0.00     0.352 A 
HETATM   25  C   UNL     1       4.396  10.254 -23.574  1.00  0.00     0.012 A 
ENDBRANCH  16  17
ENDBRANCH  13  16
ENDBRANCH  10  13
ENDBRANCH   5   7
BRANCH   2  26
HETATM   26  C   UNL     1      -0.363   5.455 -31.030  1.00  0.00     0.252 C 
HETATM   27  N   UNL     1      -1.487   5.496 -31.819  1.00  0.00    -0.344 N 
HETATM   28  H   UNL     1      -2.313   5.965 -31.471  1.00  0.00     0.163 HD
HETATM   29  O   UNL     1       0.616   4.754 -31.260  1.00  0.00    -0.268 OA
BRANCH  27  30
HETATM   30  C   UNL     1      -1.617   4.799 -33.100  1.00  0.00     0.171 C 
HETATM   31  C   UNL     1      -1.692   5.756 -34.304  1.00  0.00     0.220 C 
HETATM   32  O   UNL     1      -0.679   6.191 -34.849  1.00  0.00    -0.278 OA
HETATM   33  N   UNL     1      -2.941   6.253 -34.608  1.00  0.00    -0.261 NA
HETATM   34  C   UNL     1      -3.937   5.337 -35.119  1.00  0.00     0.095 C 
HETATM   35  H   UNL     1      -3.312   6.750 -33.794  1.00  0.00     0.130 HD
HETATM   36  C   UNL     1      -4.804   4.718 -34.028  1.00  0.00     0.015 C 
HETATM   37  C   UNL     1      -4.091   3.972 -32.896  1.00  0.00     0.004 C 
HETATM   38  C   UNL     1      -2.618   3.636 -33.105  1.00  0.00     0.034 C 
ENDBRANCH  27  30
ENDBRANCH   2  26
TORSDOF 6
ENDMDL
MODEL 5
REMARK VINA RESULT:      -9.2      6.427      9.574
REMARK  6 active torsions:
REMARK  status: ('A' for Active; 'I' for Inactive)
REMARK    1  A    between atoms: C_2  and  C_3 
REMARK       I    between atoms: C_3  and  N_4 
REMARK    2  A    between atoms: N_4  and  C_5 
REMARK    3  A    between atoms: C_16  and  N_17 
REMARK    4  A    between atoms: C_20  and  N_21 
REMARK    5  A    between atoms: N_21  and  C_24 
REMARK    6  A    between atoms: C_24  and  C_25 
ROOT
HETATM    1  C   UNL     1      -7.843   5.407 -28.544  1.00  0.00     0.019 A 
HETATM    2  C   UNL     1      -8.845   6.314 -28.881  1.00  0.00     0.032 A 
HETATM    3  C   UNL     1      -9.584   6.126 -30.049  1.00  0.00     0.019 A 
HETATM    4  C   UNL     1      -9.328   5.012 -30.863  1.00  0.00     0.030 A 
HETATM    5  C   UNL     1      -8.337   4.073 -30.537  1.00  0.00     0.030 A 
HETATM    6  C   UNL     1      -7.591   4.308 -29.370  1.00  0.00     0.030 A 
ENDROOT
BRANCH   5   7
HETATM    7  N   UNL     1      -8.127   2.912 -31.274  1.00  0.00    -0.381 N 
HETATM    8  C   UNL     1      -6.763   2.416 -31.411  1.00  0.00     0.125 C 
HETATM    9  C   UNL     1      -6.802   0.895 -31.330  1.00  0.00     0.053 C 
HETATM   10  C   UNL     1      -7.798   0.288 -32.321  1.00  0.00     0.189 C 
HETATM   11  C   UNL     1      -9.178   0.947 -32.222  1.00  0.00     0.053 C 
HETATM   12  C   UNL     1      -9.112   2.474 -32.254  1.00  0.00     0.125 C 
BRANCH  10  13
HETATM   13  N   UNL     1      -7.308   0.393 -33.741  1.00  0.00    -0.067 N 
HETATM   14  H   UNL     1      -7.841  -0.265 -34.327  1.00  0.00     0.277 HD
HETATM   15  H   UNL     1      -7.508   1.320 -34.138  1.00  0.00     0.277 HD
BRANCH  13  16
HETATM   16  C   UNL     1      -5.865   0.078 -33.976  1.00  0.00     0.271 C 
BRANCH  16  17
HETATM   17  C   UNL     1      -5.685  -1.398 -34.182  1.00  0.00    -0.030 A 
HETATM   18  C   UNL     1      -4.515  -2.037 -33.742  1.00  0.00     0.048 A 
HETATM   19  C   UNL     1      -4.419  -3.403 -33.912  1.00  0.00     0.105 A 
HETATM   20  C   UNL     1      -5.428  -4.137 -34.484  1.00  0.00     0.105 A 
HETATM   21  O   UNL     1      -3.359  -4.171 -33.548  1.00  0.00    -0.323 OA
HETATM   22  O   UNL     1      -5.130  -5.460 -34.553  1.00  0.00    -0.323 OA
HETATM   23  C   UNL     1      -6.593  -3.548 -34.921  1.00  0.00     0.040 A 
HETATM   24  C   UNL     1      -3.802  -5.476 -33.989  1.00  0.00     0.352 A 
HETATM   25  C   UNL     1      -6.722  -2.164 -34.768  1.00  0.00     0.012 A 
ENDBRANCH  16  17
ENDBRANCH  13  16
ENDBRANCH  10  13
ENDBRANCH   5   7
BRANCH   2  26
HETATM   26  C   UNL     1      -9.161   7.399 -27.922  1.00  0.00     0.252 C 
HETATM   27  N   UNL     1     -10.492   7.630 -27.673  1.00  0.00    -0.344 N 
HETATM   28  H   UNL     1     -11.185   7.171 -28.249  1.00  0.00     0.163 HD
HETATM   29  O   UNL     1      -8.244   8.044 -27.427  1.00  0.00    -0.268 OA
BRANCH  27  30
HETATM   30  C   UNL     1     -10.987   8.598 -26.693  1.00  0.00     0.171 C 
HETATM   31  C   UNL     1     -11.257   7.975 -25.311  1.00  0.00     0.220 C 
HETATM   32  O   UNL     1     -10.366   7.853 -24.471  1.00  0.00    -0.278 OA
HETATM   33  N   UNL     1     -12.490   7.384 -25.141  1.00  0.00    -0.261 NA
HETATM   34  C   UNL     1     -13.660   8.234 -25.120  1.00  0.00     0.095 C 
HETATM   35  H   UNL     1     -12.608   6.648 -25.841  1.00  0.00     0.130 HD
HETATM   36  C   UNL     1     -14.297   8.418 -26.493  1.00  0.00     0.015 C 
HETATM   37  C   UNL     1     -13.408   8.955 -27.619  1.00  0.00     0.004 C 
HETATM   38  C   UNL     1     -12.065   9.556 -27.217  1.00  0.00     0.034 C 
ENDBRANCH  27  30
ENDBRANCH   2  26
TORSDOF 6
ENDMDL
MODEL 6
REMARK VINA RESULT:      -9.2      5.408      9.546
REMARK  6 active torsions:
REMARK  status: ('A' for Active; 'I' for Inactive)
REMARK    1  A    between atoms: C_2  and  C_3 
REMARK       I    between atoms: C_3  and  N_4 
REMARK    2  A    between atoms: N_4  and  C_5 
REMARK    3  A    between atoms: C_16  and  N_17 
REMARK    4  A    between atoms: C_20  and  N_21 
REMARK    5  A    between atoms: N_21  and  C_24 
REMARK    6  A    between atoms: C_24  and  C_25 
ROOT
HETATM    1  C   UNL     1       0.450   7.100 -25.983  1.00  0.00     0.019 A 
HETATM    2  C   UNL     1       1.205   8.270 -26.031  1.00  0.00     0.032 A 
HETATM    3  C   UNL     1       1.565   8.809 -27.267  1.00  0.00     0.019 A 
HETATM    4  C   UNL     1       1.145   8.182 -28.449  1.00  0.00     0.030 A 
HETATM    5  C   UNL     1       0.368   7.014 -28.428  1.00  0.00     0.030 A 
HETATM    6  C   UNL     1       0.048   6.479 -27.169  1.00  0.00     0.030 A 
ENDROOT
BRANCH   5   7
HETATM    7  N   UNL     1      -0.142   6.426 -29.581  1.00  0.00    -0.381 N 
HETATM    8  C   UNL     1      -1.463   6.836 -30.042  1.00  0.00     0.125 C 
HETATM    9  C   UNL     1      -1.433   6.905 -31.564  1.00  0.00     0.053 C 
HETATM   10  C   UNL     1      -0.918   5.609 -32.192  1.00  0.00     0.189 C 
HETATM   11  C   UNL     1       0.407   5.156 -31.569  1.00  0.00     0.053 C 
HETATM   12  C   UNL     1       0.371   5.142 -30.041  1.00  0.00     0.125 C 
BRANCH  10  13
HETATM   13  N   UNL     1      -1.922   4.492 -32.071  1.00  0.00    -0.067 N 
HETATM   14  H   UNL     1      -1.565   3.668 -32.575  1.00  0.00     0.277 HD
HETATM   15  H   UNL     1      -2.019   4.182 -31.096  1.00  0.00     0.277 HD
BRANCH  13  16
HETATM   16  C   UNL     1      -3.286   4.755 -32.624  1.00  0.00     0.271 C 
BRANCH  16  17
HETATM   17  C   UNL     1      -4.077   3.479 -32.677  1.00  0.00    -0.030 A 
HETATM   18  C   UNL     1      -3.584   2.315 -32.065  1.00  0.00     0.048 A 
HETATM   19  C   UNL     1      -4.370   1.182 -32.102  1.00  0.00     0.105 A 
HETATM   20  C   UNL     1      -5.604   1.172 -32.702  1.00  0.00     0.105 A 
HETATM   21  O   UNL     1      -4.043  -0.023 -31.565  1.00  0.00    -0.323 OA
HETATM   22  O   UNL     1      -6.209  -0.041 -32.621  1.00  0.00    -0.323 OA
HETATM   23  C   UNL     1      -6.124   2.295 -33.305  1.00  0.00     0.040 A 
HETATM   24  C   UNL     1      -5.202  -0.808 -31.928  1.00  0.00     0.352 A 
HETATM   25  C   UNL     1      -5.352   3.461 -33.291  1.00  0.00     0.012 A 
ENDBRANCH  16  17
ENDBRANCH  13  16
ENDBRANCH  10  13
ENDBRANCH   5   7
BRANCH   2  26
HETATM   26  C   UNL     1       1.512   8.961 -24.758  1.00  0.00     0.252 C 
HETATM   27  N   UNL     1       2.654   8.568 -24.104  1.00  0.00    -0.344 N 
HETATM   28  H   UNL     1       3.143   7.743 -24.426  1.00  0.00     0.163 HD
HETATM   29  O   UNL     1       0.737   9.815 -24.341  1.00  0.00    -0.268 OA
BRANCH  27  30
HETATM   30  C   UNL     1       3.159   9.199 -22.883  1.00  0.00     0.171 C 
HETATM   31  C   UNL     1       3.955  10.489 -23.155  1.00  0.00     0.220 C 
HETATM   32  O   UNL     1       3.398  11.580 -23.272  1.00  0.00    -0.278 OA
HETATM   33  N   UNL     1       5.290  10.327 -23.456  1.00  0.00    -0.261 NA
HETATM   34  C   UNL     1       6.176   9.856 -22.414  1.00  0.00     0.095 C 
HETATM   35  H   UNL     1       5.377   9.730 -24.282  1.00  0.00     0.130 HD
HETATM   36  C   UNL     1       6.329   8.340 -22.392  1.00  0.00     0.015 C 
HETATM   37  C   UNL     1       5.054   7.501 -22.269  1.00  0.00     0.004 C 
HETATM   38  C   UNL     1       3.778   8.232 -21.864  1.00  0.00     0.034 C 
ENDBRANCH  27  30
ENDBRANCH   2  26
TORSDOF 6
ENDMDL
MODEL 7
REMARK VINA RESULT:      -8.9      4.840      6.730
REMARK  6 active torsions:
REMARK  status: ('A' for Active; 'I' for Inactive)
REMARK    1  A    between atoms: C_2  and  C_3 
REMARK       I    between atoms: C_3  and  N_4 
REMARK    2  A    between atoms: N_4  and  C_5 
REMARK    3  A    between atoms: C_16  and  N_17 
REMARK    4  A    between atoms: C_20  and  N_21 
REMARK    5  A    between atoms: N_21  and  C_24 
REMARK    6  A    between atoms: C_24  and  C_25 
ROOT
HETATM    1  C   UNL     1      -5.780   5.383 -29.068  1.00  0.00     0.019 A 
HETATM    2  C   UNL     1      -4.612   6.027 -29.471  1.00  0.00     0.032 A 
HETATM    3  C   UNL     1      -4.030   5.698 -30.696  1.00  0.00     0.019 A 
HETATM    4  C   UNL     1      -4.638   4.740 -31.521  1.00  0.00     0.030 A 
HETATM    5  C   UNL     1      -5.825   4.091 -31.147  1.00  0.00     0.030 A 
HETATM    6  C   UNL     1      -6.368   4.423 -29.894  1.00  0.00     0.030 A 
ENDROOT
BRANCH   5   7
HETATM    7  N   UNL     1      -6.499   3.209 -31.985  1.00  0.00    -0.381 N 
HETATM    8  C   UNL     1      -7.760   2.642 -31.523  1.00  0.00     0.125 C 
HETATM    9  C   UNL     1      -8.711   2.573 -32.711  1.00  0.00     0.053 C 
HETATM   10  C   UNL     1      -8.091   1.846 -33.907  1.00  0.00     0.189 C 
HETATM   11  C   UNL     1      -6.705   2.398 -34.257  1.00  0.00     0.053 C 
HETATM   12  C   UNL     1      -5.783   2.507 -33.042  1.00  0.00     0.125 C 
BRANCH  10  13
HETATM   13  N   UNL     1      -7.979   0.364 -33.663  1.00  0.00    -0.067 N 
HETATM   14  H   UNL     1      -7.214   0.194 -32.995  1.00  0.00     0.277 HD
HETATM   15  H   UNL     1      -8.820  -0.003 -33.201  1.00  0.00     0.277 HD
BRANCH  13  16
HETATM   16  C   UNL     1      -7.682  -0.489 -34.855  1.00  0.00     0.271 C 
BRANCH  16  17
HETATM   17  C   UNL     1      -6.592  -1.470 -34.529  1.00  0.00    -0.030 A 
HETATM   18  C   UNL     1      -6.746  -2.830 -34.845  1.00  0.00     0.048 A 
HETATM   19  C   UNL     1      -5.697  -3.682 -34.569  1.00  0.00     0.105 A 
HETATM   20  C   UNL     1      -4.525  -3.236 -34.011  1.00  0.00     0.105 A 
HETATM   21  O   UNL     1      -5.683  -5.020 -34.807  1.00  0.00    -0.323 OA
HETATM   22  O   UNL     1      -3.626  -4.236 -33.827  1.00  0.00    -0.323 OA
HETATM   23  C   UNL     1      -4.334  -1.910 -33.695  1.00  0.00     0.040 A 
HETATM   24  C   UNL     1      -4.376  -5.375 -34.301  1.00  0.00     0.352 A 
HETATM   25  C   UNL     1      -5.379  -1.018 -33.957  1.00  0.00     0.012 A 
ENDBRANCH  16  17
ENDBRANCH  13  16
ENDBRANCH  10  13
ENDBRANCH   5   7
BRANCH   2  26
HETATM   26  C   UNL     1      -4.083   7.121 -28.624  1.00  0.00     0.252 C 
HETATM   27  N   UNL     1      -2.832   6.934 -28.088  1.00  0.00    -0.344 N 
HETATM   28  H   UNL     1      -2.399   6.024 -28.162  1.00  0.00     0.163 HD
HETATM   29  O   UNL     1      -4.780   8.110 -28.423  1.00  0.00    -0.268 OA
BRANCH  27  30
HETATM   30  C   UNL     1      -2.119   7.942 -27.302  1.00  0.00     0.171 C 
HETATM   31  C   UNL     1      -1.371   8.969 -28.172  1.00  0.00     0.220 C 
HETATM   32  O   UNL     1      -1.931   9.972 -28.613  1.00  0.00    -0.278 OA
HETATM   33  N   UNL     1      -0.110   8.606 -28.593  1.00  0.00    -0.261 NA
HETATM   34  C   UNL     1       0.939   8.502 -27.602  1.00  0.00     0.095 C 
HETATM   35  H   UNL     1      -0.172   7.736 -29.126  1.00  0.00     0.130 HD
HETATM   36  C   UNL     1       1.082   7.100 -27.020  1.00  0.00     0.015 C 
HETATM   37  C   UNL     1      -0.160   6.469 -26.384  1.00  0.00     0.004 C 
HETATM   38  C   UNL     1      -1.340   7.391 -26.099  1.00  0.00     0.034 C 
ENDBRANCH  27  30
ENDBRANCH   2  26
TORSDOF 6
ENDMDL
MODEL 8
REMARK VINA RESULT:      -8.6      6.066     10.555
REMARK  6 active torsions:
REMARK  status: ('A' for Active; 'I' for Inactive)
REMARK    1  A    between atoms: C_2  and  C_3 
REMARK       I    between atoms: C_3  and  N_4 
REMARK    2  A    between atoms: N_4  and  C_5 
REMARK    3  A    between atoms: C_16  and  N_17 
REMARK    4  A    between atoms: C_20  and  N_21 
REMARK    5  A    between atoms: N_21  and  C_24 
REMARK    6  A    between atoms: C_24  and  C_25 
ROOT
HETATM    1  C   UNL     1     -11.272   5.818 -30.673  1.00  0.00     0.019 A 
HETATM    2  C   UNL     1     -12.664   5.805 -30.617  1.00  0.00     0.032 A 
HETATM    3  C   UNL     1     -13.372   4.791 -31.263  1.00  0.00     0.019 A 
HETATM    4  C   UNL     1     -12.677   3.780 -31.943  1.00  0.00     0.030 A 
HETATM    5  C   UNL     1     -11.275   3.759 -31.998  1.00  0.00     0.030 A 
HETATM    6  C   UNL     1     -10.592   4.811 -31.363  1.00  0.00     0.030 A 
ENDROOT
BRANCH   5   7
HETATM    7  N   UNL     1     -10.558   2.720 -32.582  1.00  0.00    -0.381 N 
HETATM    8  C   UNL     1      -9.117   2.875 -32.740  1.00  0.00     0.125 C 
HETATM    9  C   UNL     1      -8.461   1.530 -32.451  1.00  0.00     0.053 C 
HETATM   10  C   UNL     1      -9.071   0.399 -33.282  1.00  0.00     0.189 C 
HETATM   11  C   UNL     1     -10.600   0.374 -33.183  1.00  0.00     0.053 C 
HETATM   12  C   UNL     1     -11.234   1.744 -33.427  1.00  0.00     0.125 C 
BRANCH  10  13
HETATM   13  N   UNL     1      -8.677   0.497 -34.733  1.00  0.00    -0.067 N 
HETATM   14  H   UNL     1      -8.916  -0.388 -35.203  1.00  0.00     0.277 HD
HETATM   15  H   UNL     1      -9.230   1.212 -35.222  1.00  0.00     0.277 HD
BRANCH  13  16
HETATM   16  C   UNL     1      -7.229   0.738 -35.019  1.00  0.00     0.271 C 
BRANCH  16  17
HETATM   17  C   UNL     1      -6.415  -0.453 -34.603  1.00  0.00    -0.030 A 
HETATM   18  C   UNL     1      -6.679  -1.718 -35.154  1.00  0.00     0.048 A 
HETATM   19  C   UNL     1      -5.872  -2.770 -34.774  1.00  0.00     0.105 A 
HETATM   20  C   UNL     1      -4.832  -2.610 -33.894  1.00  0.00     0.105 A 
HETATM   21  O   UNL     1      -5.993  -4.053 -35.208  1.00  0.00    -0.323 OA
HETATM   22  O   UNL     1      -4.166  -3.770 -33.661  1.00  0.00    -0.323 OA
HETATM   23  C   UNL     1      -4.537  -1.385 -33.339  1.00  0.00     0.040 A 
HETATM   24  C   UNL     1      -4.926  -4.693 -34.470  1.00  0.00     0.352 A 
HETATM   25  C   UNL     1      -5.338  -0.295 -33.698  1.00  0.00     0.012 A 
ENDBRANCH  16  17
ENDBRANCH  13  16
ENDBRANCH  10  13
ENDBRANCH   5   7
BRANCH   2  26
HETATM   26  C   UNL     1     -13.344   6.820 -29.780  1.00  0.00     0.252 C 
HETATM   27  N   UNL     1     -13.534   6.500 -28.457  1.00  0.00    -0.344 N 
HETATM   28  H   UNL     1     -13.348   5.554 -28.152  1.00  0.00     0.163 HD
HETATM   29  O   UNL     1     -13.721   7.866 -30.297  1.00  0.00    -0.268 OA
BRANCH  27  30
HETATM   30  C   UNL     1     -14.106   7.412 -27.466  1.00  0.00     0.171 C 
HETATM   31  C   UNL     1     -13.277   7.494 -26.171  1.00  0.00     0.220 C 
HETATM   32  O   UNL     1     -12.322   8.263 -26.062  1.00  0.00    -0.278 OA
HETATM   33  N   UNL     1     -13.533   6.527 -25.223  1.00  0.00    -0.261 NA
HETATM   34  C   UNL     1     -14.813   6.551 -24.548  1.00  0.00     0.095 C 
HETATM   35  H   UNL     1     -13.374   5.604 -25.634  1.00  0.00     0.130 HD
HETATM   36  C   UNL     1     -15.873   5.699 -25.236  1.00  0.00     0.015 C 
HETATM   37  C   UNL     1     -16.170   5.993 -26.710  1.00  0.00     0.004 C 
HETATM   38  C   UNL     1     -15.625   7.297 -27.282  1.00  0.00     0.034 C 
ENDBRANCH  27  30
ENDBRANCH   2  26
TORSDOF 6
ENDMDL
MODEL 9
REMARK VINA RESULT:      -8.5      6.521      9.585
REMARK  6 active torsions:
REMARK  status: ('A' for Active; 'I' for Inactive)
REMARK    1  A    between atoms: C_2  and  C_3 
REMARK       I    between atoms: C_3  and  N_4 
REMARK    2  A    between atoms: N_4  and  C_5 
REMARK    3  A    between atoms: C_16  and  N_17 
REMARK    4  A    between atoms: C_20  and  N_21 
REMARK    5  A    between atoms: N_21  and  C_24 
REMARK    6  A    between atoms: C_24  and  C_25 
ROOT
HETATM    1  C   UNL     1      -9.148   6.223 -29.064  1.00  0.00     0.019 A 
HETATM    2  C   UNL     1      -8.325   6.961 -28.216  1.00  0.00     0.032 A 
HETATM    3  C   UNL     1      -6.939   6.822 -28.304  1.00  0.00     0.019 A 
HETATM    4  C   UNL     1      -6.385   5.957 -29.259  1.00  0.00     0.030 A 
HETATM    5  C   UNL     1      -7.191   5.216 -30.138  1.00  0.00     0.030 A 
HETATM    6  C   UNL     1      -8.583   5.356 -30.004  1.00  0.00     0.030 A 
ENDROOT
BRANCH   5   7
HETATM    7  N   UNL     1      -6.668   4.425 -31.156  1.00  0.00    -0.381 N 
HETATM    8  C   UNL     1      -7.593   3.666 -31.988  1.00  0.00     0.125 C 
HETATM    9  C   UNL     1      -7.080   3.704 -33.422  1.00  0.00     0.053 C 
HETATM   10  C   UNL     1      -5.621   3.255 -33.527  1.00  0.00     0.189 C 
HETATM   11  C   UNL     1      -4.721   3.993 -32.529  1.00  0.00     0.053 C 
HETATM   12  C   UNL     1      -5.280   3.986 -31.106  1.00  0.00     0.125 C 
BRANCH  10  13
HETATM   13  N   UNL     1      -5.476   1.772 -33.310  1.00  0.00    -0.067 N 
HETATM   14  H   UNL     1      -4.560   1.470 -33.671  1.00  0.00     0.277 HD
HETATM   15  H   UNL     1      -5.453   1.541 -32.309  1.00  0.00     0.277 HD
BRANCH  13  16
HETATM   16  C   UNL     1      -6.489   0.896 -33.975  1.00  0.00     0.271 C 
BRANCH  16  17
HETATM   17  C   UNL     1      -5.987  -0.518 -34.040  1.00  0.00    -0.030 A 
HETATM   18  C   UNL     1      -6.757  -1.515 -34.662  1.00  0.00     0.048 A 
HETATM   19  C   UNL     1      -6.230  -2.787 -34.737  1.00  0.00     0.105 A 
HETATM   20  C   UNL     1      -4.989  -3.092 -34.236  1.00  0.00     0.105 A 
HETATM   21  O   UNL     1      -6.842  -3.863 -35.299  1.00  0.00    -0.323 OA
HETATM   22  O   UNL     1      -4.663  -4.397 -34.417  1.00  0.00    -0.323 OA
HETATM   23  C   UNL     1      -4.202  -2.141 -33.627  1.00  0.00     0.040 A 
HETATM   24  C   UNL     1      -5.855  -4.894 -35.062  1.00  0.00     0.352 A 
HETATM   25  C   UNL     1      -4.707  -0.840 -33.529  1.00  0.00     0.012 A 
ENDBRANCH  16  17
ENDBRANCH  13  16
ENDBRANCH  10  13
ENDBRANCH   5   7
BRANCH   2  26
HETATM   26  C   UNL     1      -8.954   7.955 -27.316  1.00  0.00     0.252 C 
HETATM   27  N   UNL     1     -10.274   7.747 -26.996  1.00  0.00    -0.344 N 
HETATM   28  H   UNL     1     -10.791   7.035 -27.494  1.00  0.00     0.163 HD
HETATM   29  O   UNL     1      -8.293   8.911 -26.926  1.00  0.00    -0.268 OA
BRANCH  27  30
HETATM   30  C   UNL     1     -11.030   8.574 -26.055  1.00  0.00     0.171 C 
HETATM   31  C   UNL     1     -11.419   7.822 -24.768  1.00  0.00     0.220 C 
HETATM   32  O   UNL     1     -10.654   7.747 -23.807  1.00  0.00    -0.278 OA
HETATM   33  N   UNL     1     -12.576   7.076 -24.825  1.00  0.00    -0.261 NA
HETATM   34  C   UNL     1     -13.837   7.775 -24.942  1.00  0.00     0.095 C 
HETATM   35  H   UNL     1     -12.492   6.384 -25.574  1.00  0.00     0.130 HD
HETATM   36  C   UNL     1     -14.281   7.981 -26.385  1.00  0.00     0.015 C 
HETATM   37  C   UNL     1     -13.314   8.704 -27.327  1.00  0.00     0.004 C 
HETATM   38  C   UNL     1     -12.135   9.430 -26.688  1.00  0.00     0.034 C 
ENDBRANCH  27  30
ENDBRANCH   2  26
TORSDOF 6
ENDMDL
MODEL 10
REMARK VINA RESULT:      -8.5      3.726      5.258
REMARK  6 active torsions:
REMARK  status: ('A' for Active; 'I' for Inactive)
REMARK    1  A    between atoms: C_2  and  C_3 
REMARK       I    between atoms: C_3  and  N_4 
REMARK    2  A    between atoms: N_4  and  C_5 
REMARK    3  A    between atoms: C_16  and  N_17 
REMARK    4  A    between atoms: C_20  and  N_21 
REMARK    5  A    between atoms: N_21  and  C_24 
REMARK    6  A    between atoms: C_24  and  C_25 
ROOT
HETATM    1  C   UNL     1      -3.688   4.539 -32.974  1.00  0.00     0.019 A 
HETATM    2  C   UNL     1      -3.518   5.681 -32.194  1.00  0.00     0.032 A 
HETATM    3  C   UNL     1      -4.618   6.246 -31.548  1.00  0.00     0.019 A 
HETATM    4  C   UNL     1      -5.881   5.648 -31.669  1.00  0.00     0.030 A 
HETATM    5  C   UNL     1      -6.076   4.487 -32.433  1.00  0.00     0.030 A 
HETATM    6  C   UNL     1      -4.954   3.960 -33.096  1.00  0.00     0.030 A 
ENDROOT
BRANCH   5   7
HETATM    7  N   UNL     1      -7.295   3.819 -32.494  1.00  0.00    -0.381 N 
HETATM    8  C   UNL     1      -8.021   3.588 -31.251  1.00  0.00     0.125 C 
HETATM    9  C   UNL     1      -9.506   3.782 -31.528  1.00  0.00     0.053 C 
HETATM   10  C   UNL     1      -9.990   2.939 -32.709  1.00  0.00     0.189 C 
HETATM   11  C   UNL     1      -9.103   3.122 -33.946  1.00  0.00     0.053 C 
HETATM   12  C   UNL     1      -7.614   2.973 -33.637  1.00  0.00     0.125 C 
BRANCH  10  13
HETATM   13  N   UNL     1     -10.049   1.474 -32.363  1.00  0.00    -0.067 N 
HETATM   14  H   UNL     1      -9.422   1.295 -31.566  1.00  0.00     0.277 HD
HETATM   15  H   UNL     1     -10.983   1.207 -32.029  1.00  0.00     0.277 HD
BRANCH  13  16
HETATM   16  C   UNL     1      -9.637   0.517 -33.435  1.00  0.00     0.271 C 
BRANCH  16  17
HETATM   17  C   UNL     1      -8.289  -0.066 -33.117  1.00  0.00    -0.030 A 
HETATM   18  C   UNL     1      -7.575  -0.774 -34.097  1.00  0.00     0.048 A 
HETATM   19  C   UNL     1      -6.322  -1.248 -33.769  1.00  0.00     0.105 A 
HETATM   20  C   UNL     1      -5.765  -1.039 -32.532  1.00  0.00     0.105 A 
HETATM   21  O   UNL     1      -5.503  -1.952 -34.595  1.00  0.00    -0.323 OA
HETATM   22  O   UNL     1      -4.528  -1.585 -32.422  1.00  0.00    -0.323 OA
HETATM   23  C   UNL     1      -6.431  -0.344 -31.548  1.00  0.00     0.040 A 
HETATM   24  C   UNL     1      -4.376  -2.195 -33.721  1.00  0.00     0.352 A 
HETATM   25  C   UNL     1      -7.707   0.148 -31.845  1.00  0.00     0.012 A 
ENDBRANCH  16  17
ENDBRANCH  13  16
ENDBRANCH  10  13
ENDBRANCH   5   7
BRANCH   2  26
HETATM   26  C   UNL     1      -2.144   6.197 -31.993  1.00  0.00     0.252 C 
HETATM   27  N   UNL     1      -1.602   6.034 -30.742  1.00  0.00    -0.344 N 
HETATM   28  H   UNL     1      -2.198   5.719 -29.988  1.00  0.00     0.163 HD
HETATM   29  O   UNL     1      -1.575   6.757 -32.924  1.00  0.00    -0.268 OA
BRANCH  27  30
HETATM   30  C   UNL     1      -0.231   6.402 -30.388  1.00  0.00     0.171 C 
HETATM   31  C   UNL     1       0.463   5.357 -29.494  1.00  0.00     0.220 C 
HETATM   32  O   UNL     1       1.041   4.381 -29.970  1.00  0.00    -0.278 OA
HETATM   33  N   UNL     1       0.233   5.467 -28.140  1.00  0.00    -0.261 NA
HETATM   34  C   UNL     1       0.784   6.608 -27.441  1.00  0.00     0.095 C 
HETATM   35  H   UNL     1      -0.772   5.405 -27.964  1.00  0.00     0.130 HD
HETATM   36  C   UNL     1      -0.173   7.793 -27.372  1.00  0.00     0.015 C 
HETATM   37  C   UNL     1      -0.723   8.336 -28.694  1.00  0.00     0.004 C 
HETATM   38  C   UNL     1      -0.040   7.868 -29.975  1.00  0.00     0.034 C 
ENDBRANCH  27  30
ENDBRANCH   2  26
TORSDOF 6
ENDMDL
