MODEL 1
REMARK VINA RESULT:      -8.0      0.000      0.000
REMARK  9 active torsions:
REMARK  status: ('A' for Active; 'I' for Inactive)
REMARK    1  A    between atoms: C_2  and  C_3 
REMARK    2  A    between atoms: C_7  and  C_8 
REMARK    3  A    between atoms: C_8  and  C_9 
REMARK       I    between atoms: C_9  and  N_10 
REMARK    4  A    between atoms: N_10  and  C_11 
REMARK    5  A    between atoms: C_11  and  C_12 
REMARK    6  A    between atoms: C_12  and  N_13 
REMARK    7  A    between atoms: C_21  and  C_22 
REMARK    8  A    between atoms: C_32  and  C_33 
REMARK    9  A    between atoms: C_33  and  O_34 
ROOT
HETATM    1  C   UNL     1      -8.124   1.215 -32.032  1.00  0.00     0.051 C 
HETATM    2  N   UNL     1      -8.756   1.984 -31.055  1.00  0.00    -0.228 NA
HETATM    3  C   UNL     1      -9.156   3.154 -31.431  1.00  0.00     0.170 C 
HETATM    4  N   UNL     1      -9.060   3.625 -32.905  1.00  0.00    -0.318 N 
HETATM    5  C   UNL     1      -8.581   4.821 -32.920  1.00  0.00     0.011 C 
HETATM    6  C   UNL     1      -9.261   2.487 -33.837  1.00  0.00     0.166 C 
HETATM    7  S   UNL     1      -9.476   4.483 -30.376  1.00  0.00    -0.086 SA
HETATM    8  C   UNL     1      -8.883   5.637 -31.672  1.00  0.00     0.135 C 
HETATM    9  C   UNL     1      -8.320   1.431 -33.355  1.00  0.00     0.069 C 
ENDROOT
BRANCH   5  10
HETATM   10  C   UNL     1      -7.511   5.200 -33.914  1.00  0.00     0.156 C 
BRANCH  10  11
HETATM   11  C   UNL     1      -6.160   5.125 -33.207  1.00  0.00     0.223 C 
HETATM   12  N   UNL     1      -5.689   3.898 -32.842  1.00  0.00    -0.359 N 
HETATM   13  H   UNL     1      -6.285   3.081 -32.965  1.00  0.00     0.162 HD
HETATM   14  O   UNL     1      -5.522   6.150 -32.969  1.00  0.00    -0.273 OA
BRANCH  12  15
HETATM   15  C   UNL     1      -4.560   3.735 -31.908  1.00  0.00     0.150 C 
BRANCH  15  16
HETATM   16  C   UNL     1      -3.251   3.170 -32.517  1.00  0.00     0.254 C 
BRANCH  16  17
HETATM   17  N   UNL     1      -2.243   4.257 -32.856  1.00  0.00    -0.070 N 
HETATM   18  H   UNL     1      -1.316   3.795 -32.871  1.00  0.00     0.279 HD
HETATM   19  C   UNL     1      -2.425   4.845 -34.238  1.00  0.00     0.235 C 
HETATM   20  C   UNL     1      -1.242   5.754 -34.551  1.00  0.00     0.028 C 
HETATM   21  C   UNL     1      -1.074   6.846 -33.501  1.00  0.00     0.003 C 
HETATM   22  C   UNL     1      -1.005   6.260 -32.096  1.00  0.00     0.028 C 
HETATM   23  C   UNL     1      -2.183   5.341 -31.805  1.00  0.00     0.235 C 
ENDBRANCH  16  17
ENDBRANCH  15  16
ENDBRANCH  12  15
ENDBRANCH  10  11
ENDBRANCH   5  10
BRANCH   6  24
HETATM   24  C   UNL     1     -10.778   2.174 -33.843  1.00  0.00    -0.024 C 
HETATM   25  C   UNL     1     -11.819   3.009 -34.319  1.00  0.00    -0.053 C 
HETATM   26  C   UNL     1     -11.699   4.470 -34.668  1.00  0.00     0.049 C 
HETATM   27  C   UNL     1     -13.107   2.460 -34.516  1.00  0.00     0.014 C 
HETATM   28  C   UNL     1     -13.411   1.134 -34.204  1.00  0.00    -0.061 C 
HETATM   29  C   UNL     1     -14.786   0.588 -34.457  1.00  0.00     0.048 C 
HETATM   30  C   UNL     1     -12.434   0.358 -33.596  1.00  0.00     0.007 C 
HETATM   31  C   UNL     1     -11.149   0.871 -33.407  1.00  0.00     0.011 C 
ENDBRANCH   6  24
BRANCH   9  32
HETATM   32  C   UNL     1      -7.398   0.897 -34.377  1.00  0.00     0.293 C 
HETATM   33  O   UNL     1      -6.439   1.537 -34.774  1.00  0.00    -0.259 OA
BRANCH  32  34
HETATM   34  O   UNL     1      -7.890  -0.251 -34.876  1.00  0.00    -0.323 OA
HETATM   35  C   UNL     1      -7.049  -1.410 -34.770  1.00  0.00     0.213 C 
ENDBRANCH  32  34
ENDBRANCH   9  32
BRANCH   1  36
HETATM   36  C   UNL     1      -7.179   0.164 -31.482  1.00  0.00     0.056 C 
HETATM   37  C   UNL     1      -6.267   0.726 -30.402  1.00  0.00     0.011 C 
ENDBRANCH   1  36
TORSDOF 9
ENDMDL
MODEL 2
REMARK VINA RESULT:      -7.8      3.903      9.986
REMARK  9 active torsions:
REMARK  status: ('A' for Active; 'I' for Inactive)
REMARK    1  A    between atoms: C_2  and  C_3 
REMARK    2  A    between atoms: C_7  and  C_8 
REMARK    3  A    between atoms: C_8  and  C_9 
REMARK       I    between atoms: C_9  and  N_10 
REMARK    4  A    between atoms: N_10  and  C_11 
REMARK    5  A    between atoms: C_11  and  C_12 
REMARK    6  A    between atoms: C_12  and  N_13 
REMARK    7  A    between atoms: C_21  and  C_22 
REMARK    8  A    between atoms: C_32  and  C_33 
REMARK    9  A    between atoms: C_33  and  O_34 
ROOT
HETATM    1  C   UNL     1      -1.386   7.316 -31.800  1.00  0.00     0.051 C 
HETATM    2  N   UNL     1      -2.005   8.538 -31.542  1.00  0.00    -0.228 NA
HETATM    3  C   UNL     1      -2.853   8.544 -30.566  1.00  0.00     0.170 C 
HETATM    4  N   UNL     1      -3.072   7.310 -29.655  1.00  0.00    -0.318 N 
HETATM    5  C   UNL     1      -4.340   7.130 -29.511  1.00  0.00     0.011 C 
HETATM    6  C   UNL     1      -1.806   6.556 -29.473  1.00  0.00     0.166 C 
HETATM    7  S   UNL     1      -4.113   9.705 -30.351  1.00  0.00    -0.086 SA
HETATM    8  C   UNL     1      -5.174   8.397 -29.622  1.00  0.00     0.135 C 
HETATM    9  C   UNL     1      -1.287   6.346 -30.859  1.00  0.00     0.069 C 
ENDROOT
BRANCH   5  10
HETATM   10  C   UNL     1      -4.929   5.745 -29.614  1.00  0.00     0.156 C 
BRANCH  10  11
HETATM   11  C   UNL     1      -5.012   5.374 -31.092  1.00  0.00     0.223 C 
HETATM   12  N   UNL     1      -5.061   4.052 -31.426  1.00  0.00    -0.359 N 
HETATM   13  H   UNL     1      -4.948   3.352 -30.696  1.00  0.00     0.162 HD
HETATM   14  O   UNL     1      -5.026   6.250 -31.957  1.00  0.00    -0.273 OA
BRANCH  12  15
HETATM   15  C   UNL     1      -4.846   3.580 -32.806  1.00  0.00     0.150 C 
BRANCH  15  16
HETATM   16  C   UNL     1      -6.105   3.074 -33.555  1.00  0.00     0.254 C 
BRANCH  16  17
HETATM   17  N   UNL     1      -6.110   1.566 -33.745  1.00  0.00    -0.070 N 
HETATM   18  H   UNL     1      -5.169   1.318 -34.102  1.00  0.00     0.279 HD
HETATM   19  C   UNL     1      -6.271   0.791 -32.456  1.00  0.00     0.235 C 
HETATM   20  C   UNL     1      -6.042  -0.690 -32.734  1.00  0.00     0.028 C 
HETATM   21  C   UNL     1      -6.978  -1.214 -33.817  1.00  0.00     0.003 C 
HETATM   22  C   UNL     1      -6.898  -0.364 -35.079  1.00  0.00     0.028 C 
HETATM   23  C   UNL     1      -7.112   1.115 -34.783  1.00  0.00     0.235 C 
ENDBRANCH  16  17
ENDBRANCH  15  16
ENDBRANCH  12  15
ENDBRANCH  10  11
ENDBRANCH   5  10
BRANCH   6  24
HETATM   24  C   UNL     1      -0.940   7.367 -28.477  1.00  0.00    -0.024 C 
HETATM   25  C   UNL     1      -1.224   7.623 -27.113  1.00  0.00    -0.053 C 
HETATM   26  C   UNL     1      -2.542   7.394 -26.420  1.00  0.00     0.049 C 
HETATM   27  C   UNL     1      -0.200   8.129 -26.280  1.00  0.00     0.014 C 
HETATM   28  C   UNL     1       1.072   8.442 -26.762  1.00  0.00    -0.061 C 
HETATM   29  C   UNL     1       2.136   8.950 -25.833  1.00  0.00     0.048 C 
HETATM   30  C   UNL     1       1.306   8.335 -28.126  1.00  0.00     0.007 C 
HETATM   31  C   UNL     1       0.316   7.822 -28.968  1.00  0.00     0.011 C 
ENDBRANCH   6  24
BRANCH   9  32
HETATM   32  C   UNL     1      -0.985   4.945 -31.211  1.00  0.00     0.293 C 
HETATM   33  O   UNL     1      -1.861   4.102 -31.303  1.00  0.00    -0.259 OA
BRANCH  32  34
HETATM   34  O   UNL     1       0.347   4.757 -31.223  1.00  0.00    -0.323 OA
HETATM   35  C   UNL     1       0.975   4.522 -29.954  1.00  0.00     0.213 C 
ENDBRANCH  32  34
ENDBRANCH   9  32
BRANCH   1  36
HETATM   36  C   UNL     1      -0.884   7.160 -33.223  1.00  0.00     0.056 C 
HETATM   37  C   UNL     1      -1.995   6.749 -34.178  1.00  0.00     0.011 C 
ENDBRANCH   1  36
TORSDOF 9
ENDMDL
MODEL 3
REMARK VINA RESULT:      -7.7      1.570      2.127
REMARK  9 active torsions:
REMARK  status: ('A' for Active; 'I' for Inactive)
REMARK    1  A    between atoms: C_2  and  C_3 
REMARK    2  A    between atoms: C_7  and  C_8 
REMARK    3  A    between atoms: C_8  and  C_9 
REMARK       I    between atoms: C_9  and  N_10 
REMARK    4  A    between atoms: N_10  and  C_11 
REMARK    5  A    between atoms: C_11  and  C_12 
REMARK    6  A    between atoms: C_12  and  N_13 
REMARK    7  A    between atoms: C_21  and  C_22 
REMARK    8  A    between atoms: C_32  and  C_33 
REMARK    9  A    between atoms: C_33  and  O_34 
ROOT
HETATM    1  C   UNL     1      -7.446   0.973 -31.528  1.00  0.00     0.051 C 
HETATM    2  N   UNL     1      -7.977   2.055 -30.827  1.00  0.00    -0.228 NA
HETATM    3  C   UNL     1      -8.116   3.149 -31.500  1.00  0.00     0.170 C 
HETATM    4  N   UNL     1      -7.836   3.222 -33.023  1.00  0.00    -0.318 N 
HETATM    5  C   UNL     1      -7.134   4.277 -33.258  1.00  0.00     0.011 C 
HETATM    6  C   UNL     1      -8.195   1.944 -33.688  1.00  0.00     0.166 C 
HETATM    7  S   UNL     1      -8.239   4.730 -30.816  1.00  0.00    -0.086 SA
HETATM    8  C   UNL     1      -7.350   5.412 -32.269  1.00  0.00     0.135 C 
HETATM    9  C   UNL     1      -7.510   0.891 -32.879  1.00  0.00     0.069 C 
ENDROOT
BRANCH   5  10
HETATM   10  C   UNL     1      -5.949   4.210 -34.189  1.00  0.00     0.156 C 
BRANCH  10  11
HETATM   11  C   UNL     1      -4.702   3.941 -33.351  1.00  0.00     0.223 C 
HETATM   12  N   UNL     1      -3.581   4.675 -33.605  1.00  0.00    -0.359 N 
HETATM   13  H   UNL     1      -3.575   5.313 -34.399  1.00  0.00     0.162 HD
HETATM   14  O   UNL     1      -4.712   3.075 -32.477  1.00  0.00    -0.273 OA
BRANCH  12  15
HETATM   15  C   UNL     1      -2.258   4.303 -33.072  1.00  0.00     0.150 C 
BRANCH  15  16
HETATM   16  C   UNL     1      -1.214   5.445 -32.986  1.00  0.00     0.254 C 
BRANCH  16  17
HETATM   17  N   UNL     1      -0.908   5.857 -31.555  1.00  0.00    -0.070 N 
HETATM   18  H   UNL     1      -1.663   5.452 -30.972  1.00  0.00     0.279 HD
HETATM   19  C   UNL     1       0.378   5.272 -31.015  1.00  0.00     0.235 C 
HETATM   20  C   UNL     1       0.470   5.567 -29.522  1.00  0.00     0.028 C 
HETATM   21  C   UNL     1       0.375   7.060 -29.233  1.00  0.00     0.003 C 
HETATM   22  C   UNL     1      -0.865   7.672 -29.874  1.00  0.00     0.028 C 
HETATM   23  C   UNL     1      -0.952   7.355 -31.361  1.00  0.00     0.235 C 
ENDBRANCH  16  17
ENDBRANCH  15  16
ENDBRANCH  12  15
ENDBRANCH  10  11
ENDBRANCH   5  10
BRANCH   6  24
HETATM   24  C   UNL     1      -9.741   1.908 -33.788  1.00  0.00    -0.024 C 
HETATM   25  C   UNL     1     -10.575   2.847 -34.442  1.00  0.00    -0.053 C 
HETATM   26  C   UNL     1     -10.162   4.208 -34.941  1.00  0.00     0.049 C 
HETATM   27  C   UNL     1     -11.928   2.517 -34.684  1.00  0.00     0.014 C 
HETATM   28  C   UNL     1     -12.493   1.316 -34.252  1.00  0.00    -0.061 C 
HETATM   29  C   UNL     1     -13.928   0.996 -34.557  1.00  0.00     0.048 C 
HETATM   30  C   UNL     1     -11.719   0.461 -33.480  1.00  0.00     0.007 C 
HETATM   31  C   UNL     1     -10.375   0.757 -33.241  1.00  0.00     0.011 C 
ENDBRANCH   6  24
BRANCH   9  32
HETATM   32  C   UNL     1      -6.647  -0.028 -33.646  1.00  0.00     0.293 C 
HETATM   33  O   UNL     1      -5.476   0.228 -33.872  1.00  0.00    -0.259 OA
BRANCH  32  34
HETATM   34  O   UNL     1      -7.389  -1.024 -34.162  1.00  0.00    -0.323 OA
HETATM   35  C   UNL     1      -6.712  -2.263 -34.420  1.00  0.00     0.213 C 
ENDBRANCH  32  34
ENDBRANCH   9  32
BRANCH   1  36
HETATM   36  C   UNL     1      -6.761  -0.060 -30.654  1.00  0.00     0.056 C 
HETATM   37  C   UNL     1      -5.764   0.575 -29.696  1.00  0.00     0.011 C 
ENDBRANCH   1  36
TORSDOF 9
ENDMDL
MODEL 4
REMARK VINA RESULT:      -7.7      3.381      5.830
REMARK  9 active torsions:
REMARK  status: ('A' for Active; 'I' for Inactive)
REMARK    1  A    between atoms: C_2  and  C_3 
REMARK    2  A    between atoms: C_7  and  C_8 
REMARK    3  A    between atoms: C_8  and  C_9 
REMARK       I    between atoms: C_9  and  N_10 
REMARK    4  A    between atoms: N_10  and  C_11 
REMARK    5  A    between atoms: C_11  and  C_12 
REMARK    6  A    between atoms: C_12  and  N_13 
REMARK    7  A    between atoms: C_21  and  C_22 
REMARK    8  A    between atoms: C_32  and  C_33 
REMARK    9  A    between atoms: C_33  and  O_34 
ROOT
HETATM    1  C   UNL     1      -7.664   3.305 -33.526  1.00  0.00     0.051 C 
HETATM    2  N   UNL     1      -6.371   3.621 -33.939  1.00  0.00    -0.228 NA
HETATM    3  C   UNL     1      -5.421   3.258 -33.142  1.00  0.00     0.170 C 
HETATM    4  N   UNL     1      -5.687   2.409 -31.873  1.00  0.00    -0.318 N 
HETATM    5  C   UNL     1      -5.035   2.929 -30.891  1.00  0.00     0.011 C 
HETATM    6  C   UNL     1      -6.809   1.463 -32.096  1.00  0.00     0.166 C 
HETATM    7  S   UNL     1      -3.834   3.939 -33.110  1.00  0.00    -0.086 SA
HETATM    8  C   UNL     1      -3.772   3.674 -31.296  1.00  0.00     0.135 C 
HETATM    9  C   UNL     1      -7.914   2.307 -32.644  1.00  0.00     0.069 C 
ENDROOT
BRANCH   5  10
HETATM   10  C   UNL     1      -5.692   3.095 -29.543  1.00  0.00     0.156 C 
BRANCH  10  11
HETATM   11  C   UNL     1      -5.796   4.588 -29.246  1.00  0.00     0.223 C 
HETATM   12  N   UNL     1      -5.131   5.080 -28.161  1.00  0.00    -0.359 N 
HETATM   13  H   UNL     1      -4.663   4.432 -27.531  1.00  0.00     0.162 HD
HETATM   14  O   UNL     1      -6.472   5.323 -29.967  1.00  0.00    -0.273 OA
BRANCH  12  15
HETATM   15  C   UNL     1      -5.397   6.425 -27.619  1.00  0.00     0.150 C 
BRANCH  15  16
HETATM   16  C   UNL     1      -4.312   7.002 -26.673  1.00  0.00     0.254 C 
BRANCH  16  17
HETATM   17  N   UNL     1      -2.900   6.671 -27.127  1.00  0.00    -0.070 N 
HETATM   18  H   UNL     1      -2.936   5.704 -27.497  1.00  0.00     0.279 HD
HETATM   19  C   UNL     1      -2.414   7.527 -28.276  1.00  0.00     0.235 C 
HETATM   20  C   UNL     1      -1.091   6.969 -28.787  1.00  0.00     0.028 C 
HETATM   21  C   UNL     1      -0.047   6.882 -27.679  1.00  0.00     0.003 C 
HETATM   22  C   UNL     1      -0.578   6.116 -26.474  1.00  0.00     0.028 C 
HETATM   23  C   UNL     1      -1.909   6.674 -25.986  1.00  0.00     0.235 C 
ENDBRANCH  16  17
ENDBRANCH  15  16
ENDBRANCH  12  15
ENDBRANCH  10  11
ENDBRANCH   5  10
BRANCH   6  24
HETATM   24  C   UNL     1      -6.257   0.311 -32.974  1.00  0.00    -0.024 C 
HETATM   25  C   UNL     1      -5.185  -0.560 -32.661  1.00  0.00    -0.053 C 
HETATM   26  C   UNL     1      -4.191  -0.383 -31.542  1.00  0.00     0.049 C 
HETATM   27  C   UNL     1      -4.999  -1.728 -33.435  1.00  0.00     0.014 C 
HETATM   28  C   UNL     1      -5.799  -2.031 -34.538  1.00  0.00    -0.061 C 
HETATM   29  C   UNL     1      -5.581  -3.298 -35.313  1.00  0.00     0.048 C 
HETATM   30  C   UNL     1      -6.752  -1.103 -34.937  1.00  0.00     0.007 C 
HETATM   31  C   UNL     1      -6.967   0.050 -34.179  1.00  0.00     0.011 C 
ENDBRANCH   6  24
BRANCH   9  32
HETATM   32  C   UNL     1      -9.198   2.206 -31.923  1.00  0.00     0.293 C 
HETATM   33  O   UNL     1     -10.184   1.702 -32.435  1.00  0.00    -0.259 OA
BRANCH  32  34
HETATM   34  O   UNL     1      -9.124   2.887 -30.766  1.00  0.00    -0.323 OA
HETATM   35  C   UNL     1     -10.155   3.858 -30.525  1.00  0.00     0.213 C 
ENDBRANCH  32  34
ENDBRANCH   9  32
BRANCH   1  36
HETATM   36  C   UNL     1      -8.742   4.198 -34.112  1.00  0.00     0.056 C 
HETATM   37  C   UNL     1      -8.680   5.610 -33.548  1.00  0.00     0.011 C 
ENDBRANCH   1  36
TORSDOF 9
ENDMDL
MODEL 5
REMARK VINA RESULT:      -7.3      2.313      7.887
REMARK  9 active torsions:
REMARK  status: ('A' for Active; 'I' for Inactive)
REMARK    1  A    between atoms: C_2  and  C_3 
REMARK    2  A    between atoms: C_7  and  C_8 
REMARK    3  A    between atoms: C_8  and  C_9 
REMARK       I    between atoms: C_9  and  N_10 
REMARK    4  A    between atoms: N_10  and  C_11 
REMARK    5  A    between atoms: C_11  and  C_12 
REMARK    6  A    between atoms: C_12  and  N_13 
REMARK    7  A    between atoms: C_21  and  C_22 
REMARK    8  A    between atoms: C_32  and  C_33 
REMARK    9  A    between atoms: C_33  and  O_34 
ROOT
HETATM    1  C   UNL     1      -4.295   4.533 -31.589  1.00  0.00     0.051 C 
HETATM    2  N   UNL     1      -5.142   4.096 -30.571  1.00  0.00    -0.228 NA
HETATM    3  C   UNL     1      -6.283   3.624 -30.952  1.00  0.00     0.170 C 
HETATM    4  N   UNL     1      -6.638   3.430 -32.448  1.00  0.00    -0.318 N 
HETATM    5  C   UNL     1      -7.826   3.889 -32.647  1.00  0.00     0.011 C 
HETATM    6  C   UNL     1      -5.434   3.060 -33.233  1.00  0.00     0.166 C 
HETATM    7  S   UNL     1      -7.691   3.504 -29.960  1.00  0.00    -0.086 SA
HETATM    8  C   UNL     1      -8.738   3.828 -31.431  1.00  0.00     0.135 C 
HETATM    9  C   UNL     1      -4.411   4.084 -32.862  1.00  0.00     0.069 C 
ENDROOT
BRANCH   5  10
HETATM   10  C   UNL     1      -8.119   4.744 -33.855  1.00  0.00     0.156 C 
BRANCH  10  11
HETATM   11  C   UNL     1      -9.623   4.701 -34.112  1.00  0.00     0.223 C 
HETATM   12  N   UNL     1     -10.127   3.654 -34.828  1.00  0.00    -0.359 N 
HETATM   13  H   UNL     1      -9.484   2.985 -35.247  1.00  0.00     0.162 HD
HETATM   14  O   UNL     1     -10.355   5.595 -33.690  1.00  0.00    -0.273 OA
BRANCH  12  15
HETATM   15  C   UNL     1     -11.493   3.664 -35.381  1.00  0.00     0.150 C 
BRANCH  15  16
HETATM   16  C   UNL     1     -12.303   2.353 -35.214  1.00  0.00     0.254 C 
BRANCH  16  17
HETATM   17  N   UNL     1     -13.511   2.519 -34.306  1.00  0.00    -0.070 N 
HETATM   18  H   UNL     1     -14.191   3.096 -34.834  1.00  0.00     0.279 HD
HETATM   19  C   UNL     1     -14.228   1.221 -34.006  1.00  0.00     0.235 C 
HETATM   20  C   UNL     1     -15.533   1.531 -33.279  1.00  0.00     0.028 C 
HETATM   21  C   UNL     1     -15.295   2.342 -32.010  1.00  0.00     0.003 C 
HETATM   22  C   UNL     1     -14.474   3.593 -32.295  1.00  0.00     0.028 C 
HETATM   23  C   UNL     1     -13.183   3.270 -33.036  1.00  0.00     0.235 C 
ENDBRANCH  16  17
ENDBRANCH  15  16
ENDBRANCH  12  15
ENDBRANCH  10  11
ENDBRANCH   5  10
BRANCH   6  24
HETATM   24  C   UNL     1      -5.134   1.572 -32.922  1.00  0.00    -0.024 C 
HETATM   25  C   UNL     1      -5.897   0.448 -33.321  1.00  0.00    -0.053 C 
HETATM   26  C   UNL     1      -7.291   0.475 -33.894  1.00  0.00     0.049 C 
HETATM   27  C   UNL     1      -5.335  -0.844 -33.202  1.00  0.00     0.014 C 
HETATM   28  C   UNL     1      -4.071  -1.062 -32.652  1.00  0.00    -0.061 C 
HETATM   29  C   UNL     1      -3.503  -2.449 -32.572  1.00  0.00     0.048 C 
HETATM   30  C   UNL     1      -3.385   0.023 -32.122  1.00  0.00     0.007 C 
HETATM   31  C   UNL     1      -3.911   1.311 -32.242  1.00  0.00     0.011 C 
ENDBRANCH   6  24
BRANCH   9  32
HETATM   32  C   UNL     1      -3.792   4.794 -33.999  1.00  0.00     0.293 C 
HETATM   33  O   UNL     1      -4.429   5.563 -34.699  1.00  0.00    -0.259 OA
BRANCH  32  34
HETATM   34  O   UNL     1      -2.549   4.324 -34.206  1.00  0.00    -0.323 OA
HETATM   35  C   UNL     1      -1.602   5.241 -34.775  1.00  0.00     0.213 C 
ENDBRANCH  32  34
ENDBRANCH   9  32
BRANCH   1  36
HETATM   36  C   UNL     1      -3.281   5.574 -31.153  1.00  0.00     0.056 C 
HETATM   37  C   UNL     1      -1.893   4.977 -30.973  1.00  0.00     0.011 C 
ENDBRANCH   1  36
TORSDOF 9
ENDMDL
MODEL 6
REMARK VINA RESULT:      -7.3      2.782      5.373
REMARK  9 active torsions:
REMARK  status: ('A' for Active; 'I' for Inactive)
REMARK    1  A    between atoms: C_2  and  C_3 
REMARK    2  A    between atoms: C_7  and  C_8 
REMARK    3  A    between atoms: C_8  and  C_9 
REMARK       I    between atoms: C_9  and  N_10 
REMARK    4  A    between atoms: N_10  and  C_11 
REMARK    5  A    between atoms: C_11  and  C_12 
REMARK    6  A    between atoms: C_12  and  N_13 
REMARK    7  A    between atoms: C_21  and  C_22 
REMARK    8  A    between atoms: C_32  and  C_33 
REMARK    9  A    between atoms: C_33  and  O_34 
ROOT
HETATM    1  C   UNL     1      -7.610   3.263 -33.513  1.00  0.00     0.051 C 
HETATM    2  N   UNL     1      -6.336   3.596 -33.972  1.00  0.00    -0.228 NA
HETATM    3  C   UNL     1      -5.356   3.274 -33.194  1.00  0.00     0.170 C 
HETATM    4  N   UNL     1      -5.567   2.453 -31.896  1.00  0.00    -0.318 N 
HETATM    5  C   UNL     1      -4.898   3.013 -30.947  1.00  0.00     0.011 C 
HETATM    6  C   UNL     1      -6.674   1.478 -32.062  1.00  0.00     0.166 C 
HETATM    7  S   UNL     1      -3.784   3.988 -33.227  1.00  0.00    -0.086 SA
HETATM    8  C   UNL     1      -3.664   3.773 -31.409  1.00  0.00     0.135 C 
HETATM    9  C   UNL     1      -7.812   2.284 -32.598  1.00  0.00     0.069 C 
ENDROOT
BRANCH   5  10
HETATM   10  C   UNL     1      -5.519   3.200 -29.586  1.00  0.00     0.156 C 
BRANCH  10  11
HETATM   11  C   UNL     1      -5.935   4.663 -29.451  1.00  0.00     0.223 C 
HETATM   12  N   UNL     1      -6.808   5.174 -30.367  1.00  0.00    -0.359 N 
HETATM   13  H   UNL     1      -7.085   4.601 -31.161  1.00  0.00     0.162 HD
HETATM   14  O   UNL     1      -5.483   5.360 -28.543  1.00  0.00    -0.273 OA
BRANCH  12  15
HETATM   15  C   UNL     1      -7.042   6.623 -30.508  1.00  0.00     0.150 C 
BRANCH  15  16
HETATM   16  C   UNL     1      -6.030   7.391 -31.397  1.00  0.00     0.254 C 
BRANCH  16  17
HETATM   17  N   UNL     1      -4.647   7.480 -30.772  1.00  0.00    -0.070 N 
HETATM   18  H   UNL     1      -4.498   6.584 -30.273  1.00  0.00     0.279 HD
HETATM   19  C   UNL     1      -3.527   7.571 -31.785  1.00  0.00     0.235 C 
HETATM   20  C   UNL     1      -2.191   7.433 -31.063  1.00  0.00     0.028 C 
HETATM   21  C   UNL     1      -2.032   8.478 -29.964  1.00  0.00     0.003 C 
HETATM   22  C   UNL     1      -3.218   8.463 -29.007  1.00  0.00     0.028 C 
HETATM   23  C   UNL     1      -4.545   8.583 -29.744  1.00  0.00     0.235 C 
ENDBRANCH  16  17
ENDBRANCH  15  16
ENDBRANCH  12  15
ENDBRANCH  10  11
ENDBRANCH   5  10
BRANCH   6  24
HETATM   24  C   UNL     1      -6.123   0.316 -32.925  1.00  0.00    -0.024 C 
HETATM   25  C   UNL     1      -5.050  -0.551 -32.603  1.00  0.00    -0.053 C 
HETATM   26  C   UNL     1      -4.054  -0.359 -31.487  1.00  0.00     0.049 C 
HETATM   27  C   UNL     1      -4.864  -1.729 -33.362  1.00  0.00     0.014 C 
HETATM   28  C   UNL     1      -5.665  -2.047 -34.459  1.00  0.00    -0.061 C 
HETATM   29  C   UNL     1      -5.448  -3.323 -35.218  1.00  0.00     0.048 C 
HETATM   30  C   UNL     1      -6.619  -1.125 -34.869  1.00  0.00     0.007 C 
HETATM   31  C   UNL     1      -6.834   0.038 -34.126  1.00  0.00     0.011 C 
ENDBRANCH   6  24
BRANCH   9  32
HETATM   32  C   UNL     1      -9.072   2.175 -31.838  1.00  0.00     0.293 C 
HETATM   33  O   UNL     1      -9.376   2.986 -30.978  1.00  0.00    -0.259 OA
BRANCH  32  34
HETATM   34  O   UNL     1      -9.674   1.007 -32.121  1.00  0.00    -0.323 OA
HETATM   35  C   UNL     1     -10.531   0.988 -33.273  1.00  0.00     0.213 C 
ENDBRANCH  32  34
ENDBRANCH   9  32
BRANCH   1  36
HETATM   36  C   UNL     1      -8.723   4.118 -34.090  1.00  0.00     0.056 C 
HETATM   37  C   UNL     1      -8.623   5.566 -33.635  1.00  0.00     0.011 C 
ENDBRANCH   1  36
TORSDOF 9
ENDMDL
MODEL 7
REMARK VINA RESULT:      -7.0      3.472      6.134
REMARK  9 active torsions:
REMARK  status: ('A' for Active; 'I' for Inactive)
REMARK    1  A    between atoms: C_2  and  C_3 
REMARK    2  A    between atoms: C_7  and  C_8 
REMARK    3  A    between atoms: C_8  and  C_9 
REMARK       I    between atoms: C_9  and  N_10 
REMARK    4  A    between atoms: N_10  and  C_11 
REMARK    5  A    between atoms: C_11  and  C_12 
REMARK    6  A    between atoms: C_12  and  N_13 
REMARK    7  A    between atoms: C_21  and  C_22 
REMARK    8  A    between atoms: C_32  and  C_33 
REMARK    9  A    between atoms: C_33  and  O_34 
ROOT
HETATM    1  C   UNL     1      -7.790   4.390 -33.217  1.00  0.00     0.051 C 
HETATM    2  N   UNL     1      -6.871   4.597 -34.245  1.00  0.00    -0.228 NA
HETATM    3  C   UNL     1      -5.635   4.355 -33.952  1.00  0.00     0.170 C 
HETATM    4  N   UNL     1      -5.213   3.748 -32.590  1.00  0.00    -0.318 N 
HETATM    5  C   UNL     1      -4.206   4.416 -32.141  1.00  0.00     0.011 C 
HETATM    6  C   UNL     1      -6.245   2.805 -32.089  1.00  0.00     0.166 C 
HETATM    7  S   UNL     1      -4.270   4.991 -34.797  1.00  0.00    -0.086 SA
HETATM    8  C   UNL     1      -3.337   5.047 -33.218  1.00  0.00     0.135 C 
HETATM    9  C   UNL     1      -7.527   3.568 -32.172  1.00  0.00     0.069 C 
ENDROOT
BRANCH   5  10
HETATM   10  C   UNL     1      -4.153   4.831 -30.692  1.00  0.00     0.156 C 
BRANCH  10  11
HETATM   11  C   UNL     1      -3.354   6.128 -30.599  1.00  0.00     0.223 C 
HETATM   12  N   UNL     1      -2.047   6.058 -30.216  1.00  0.00    -0.359 N 
HETATM   13  H   UNL     1      -1.666   5.162 -29.916  1.00  0.00     0.162 HD
HETATM   14  O   UNL     1      -3.885   7.209 -30.856  1.00  0.00    -0.273 OA
BRANCH  12  15
HETATM   15  C   UNL     1      -1.279   7.250 -29.812  1.00  0.00     0.150 C 
BRANCH  15  16
HETATM   16  C   UNL     1       0.202   7.005 -29.425  1.00  0.00     0.254 C 
BRANCH  16  17
HETATM   17  N   UNL     1       0.681   7.929 -28.317  1.00  0.00    -0.070 N 
HETATM   18  H   UNL     1       1.459   8.482 -28.721  1.00  0.00     0.279 HD
HETATM   19  C   UNL     1      -0.354   8.944 -27.883  1.00  0.00     0.235 C 
HETATM   20  C   UNL     1       0.299   9.947 -26.938  1.00  0.00     0.028 C 
HETATM   21  C   UNL     1       0.941   9.259 -25.738  1.00  0.00     0.003 C 
HETATM   22  C   UNL     1       1.900   8.158 -26.176  1.00  0.00     0.028 C 
HETATM   23  C   UNL     1       1.238   7.175 -27.132  1.00  0.00     0.235 C 
ENDBRANCH  16  17
ENDBRANCH  15  16
ENDBRANCH  12  15
ENDBRANCH  10  11
ENDBRANCH   5  10
BRANCH   6  24
HETATM   24  C   UNL     1      -6.106   1.505 -32.919  1.00  0.00    -0.024 C 
HETATM   25  C   UNL     1      -5.012   0.605 -32.917  1.00  0.00    -0.053 C 
HETATM   26  C   UNL     1      -3.652   0.858 -32.318  1.00  0.00     0.049 C 
HETATM   27  C   UNL     1      -5.167  -0.669 -33.509  1.00  0.00     0.014 C 
HETATM   28  C   UNL     1      -6.344  -1.059 -34.149  1.00  0.00    -0.061 C 
HETATM   29  C   UNL     1      -6.473  -2.433 -34.738  1.00  0.00     0.048 C 
HETATM   30  C   UNL     1      -7.362  -0.125 -34.285  1.00  0.00     0.007 C 
HETATM   31  C   UNL     1      -7.240   1.135 -33.695  1.00  0.00     0.011 C 
ENDBRANCH   6  24
BRANCH   9  32
HETATM   32  C   UNL     1      -8.305   3.627 -30.919  1.00  0.00     0.293 C 
HETATM   33  O   UNL     1      -9.310   2.955 -30.755  1.00  0.00    -0.259 OA
BRANCH  32  34
HETATM   34  O   UNL     1      -7.837   4.617 -30.139  1.00  0.00    -0.323 OA
HETATM   35  C   UNL     1      -8.806   5.547 -29.631  1.00  0.00     0.213 C 
ENDBRANCH  32  34
ENDBRANCH   9  32
BRANCH   1  36
HETATM   36  C   UNL     1      -9.069   5.193 -33.354  1.00  0.00     0.056 C 
HETATM   37  C   UNL     1      -9.801   4.883 -34.651  1.00  0.00     0.011 C 
ENDBRANCH   1  36
TORSDOF 9
ENDMDL
MODEL 8
REMARK VINA RESULT:      -7.0      4.024      8.699
REMARK  9 active torsions:
REMARK  status: ('A' for Active; 'I' for Inactive)
REMARK    1  A    between atoms: C_2  and  C_3 
REMARK    2  A    between atoms: C_7  and  C_8 
REMARK    3  A    between atoms: C_8  and  C_9 
REMARK       I    between atoms: C_9  and  N_10 
REMARK    4  A    between atoms: N_10  and  C_11 
REMARK    5  A    between atoms: C_11  and  C_12 
REMARK    6  A    between atoms: C_12  and  N_13 
REMARK    7  A    between atoms: C_21  and  C_22 
REMARK    8  A    between atoms: C_32  and  C_33 
REMARK    9  A    between atoms: C_33  and  O_34 
ROOT
HETATM    1  C   UNL     1      -3.428   6.208 -32.645  1.00  0.00     0.051 C 
HETATM    2  N   UNL     1      -4.468   7.136 -32.629  1.00  0.00    -0.228 NA
HETATM    3  C   UNL     1      -5.308   7.024 -31.653  1.00  0.00     0.170 C 
HETATM    4  N   UNL     1      -5.102   6.009 -30.499  1.00  0.00    -0.318 N 
HETATM    5  C   UNL     1      -6.219   5.403 -30.286  1.00  0.00     0.011 C 
HETATM    6  C   UNL     1      -3.658   5.835 -30.200  1.00  0.00     0.166 C 
HETATM    7  S   UNL     1      -6.918   7.650 -31.648  1.00  0.00    -0.086 SA
HETATM    8  C   UNL     1      -7.456   6.218 -30.634  1.00  0.00     0.135 C 
HETATM    9  C   UNL     1      -3.027   5.557 -31.526  1.00  0.00     0.069 C 
ENDROOT
BRANCH   5  10
HETATM   10  C   UNL     1      -6.248   3.909 -30.082  1.00  0.00     0.156 C 
BRANCH  10  11
HETATM   11  C   UNL     1      -6.156   3.242 -31.453  1.00  0.00     0.223 C 
HETATM   12  N   UNL     1      -5.593   2.002 -31.533  1.00  0.00    -0.359 N 
HETATM   13  H   UNL     1      -5.169   1.596 -30.701  1.00  0.00     0.162 HD
HETATM   14  O   UNL     1      -6.574   3.818 -32.457  1.00  0.00    -0.273 OA
BRANCH  12  15
HETATM   15  C   UNL     1      -5.189   1.402 -32.817  1.00  0.00     0.150 C 
BRANCH  15  16
HETATM   16  C   UNL     1      -4.402   0.070 -32.727  1.00  0.00     0.254 C 
BRANCH  16  17
HETATM   17  N   UNL     1      -4.930  -0.991 -33.680  1.00  0.00    -0.070 N 
HETATM   18  H   UNL     1      -4.708  -0.656 -34.635  1.00  0.00     0.279 HD
HETATM   19  C   UNL     1      -4.234  -2.328 -33.547  1.00  0.00     0.235 C 
HETATM   20  C   UNL     1      -4.685  -3.238 -34.684  1.00  0.00     0.028 C 
HETATM   21  C   UNL     1      -6.200  -3.401 -34.712  1.00  0.00     0.003 C 
HETATM   22  C   UNL     1      -6.904  -2.049 -34.732  1.00  0.00     0.028 C 
HETATM   23  C   UNL     1      -6.431  -1.146 -33.601  1.00  0.00     0.235 C 
ENDBRANCH  16  17
ENDBRANCH  15  16
ENDBRANCH  12  15
ENDBRANCH  10  11
ENDBRANCH   5  10
BRANCH   6  24
HETATM   24  C   UNL     1      -3.206   7.094 -29.419  1.00  0.00    -0.024 C 
HETATM   25  C   UNL     1      -3.589   7.466 -28.107  1.00  0.00    -0.053 C 
HETATM   26  C   UNL     1      -4.713   6.864 -27.302  1.00  0.00     0.049 C 
HETATM   27  C   UNL     1      -2.867   8.483 -27.441  1.00  0.00     0.014 C 
HETATM   28  C   UNL     1      -1.823   9.180 -28.049  1.00  0.00    -0.061 C 
HETATM   29  C   UNL     1      -1.067  10.234 -27.293  1.00  0.00     0.048 C 
HETATM   30  C   UNL     1      -1.546   8.923 -29.385  1.00  0.00     0.007 C 
HETATM   31  C   UNL     1      -2.233   7.911 -30.060  1.00  0.00     0.011 C 
ENDBRANCH   6  24
BRANCH   9  32
HETATM   32  C   UNL     1      -2.210   4.330 -31.588  1.00  0.00     0.293 C 
HETATM   33  O   UNL     1      -2.641   3.294 -32.067  1.00  0.00    -0.259 OA
BRANCH  32  34
HETATM   34  O   UNL     1      -1.068   4.509 -30.901  1.00  0.00    -0.323 OA
HETATM   35  C   UNL     1      -0.061   5.317 -31.530  1.00  0.00     0.213 C 
ENDBRANCH  32  34
ENDBRANCH   9  32
BRANCH   1  36
HETATM   36  C   UNL     1      -2.831   5.965 -34.019  1.00  0.00     0.056 C 
HETATM   37  C   UNL     1      -3.795   5.228 -34.937  1.00  0.00     0.011 C 
ENDBRANCH   1  36
TORSDOF 9
ENDMDL
MODEL 9
REMARK VINA RESULT:      -6.8      2.724      5.635
REMARK  9 active torsions:
REMARK  status: ('A' for Active; 'I' for Inactive)
REMARK    1  A    between atoms: C_2  and  C_3 
REMARK    2  A    between atoms: C_7  and  C_8 
REMARK    3  A    between atoms: C_8  and  C_9 
REMARK       I    between atoms: C_9  and  N_10 
REMARK    4  A    between atoms: N_10  and  C_11 
REMARK    5  A    between atoms: C_11  and  C_12 
REMARK    6  A    between atoms: C_12  and  N_13 
REMARK    7  A    between atoms: C_21  and  C_22 
REMARK    8  A    between atoms: C_32  and  C_33 
REMARK    9  A    between atoms: C_33  and  O_34 
ROOT
HETATM    1  C   UNL     1      -6.432   1.443 -31.301  1.00  0.00     0.051 C 
HETATM    2  N   UNL     1      -7.550   0.612 -31.243  1.00  0.00    -0.228 NA
HETATM    3  C   UNL     1      -8.236   0.516 -32.334  1.00  0.00     0.170 C 
HETATM    4  N   UNL     1      -7.777   1.175 -33.660  1.00  0.00    -0.318 N 
HETATM    5  C   UNL     1      -8.788   1.773 -34.189  1.00  0.00     0.011 C 
HETATM    6  C   UNL     1      -6.296   1.171 -33.766  1.00  0.00     0.166 C 
HETATM    7  S   UNL     1      -9.887   0.016 -32.430  1.00  0.00    -0.086 SA
HETATM    8  C   UNL     1     -10.136   1.161 -33.842  1.00  0.00     0.135 C 
HETATM    9  C   UNL     1      -5.822   1.748 -32.472  1.00  0.00     0.069 C 
ENDROOT
BRANCH   5  10
HETATM   10  C   UNL     1      -8.637   3.160 -34.764  1.00  0.00     0.156 C 
BRANCH  10  11
HETATM   11  C   UNL     1      -9.057   4.165 -33.694  1.00  0.00     0.223 C 
HETATM   12  N   UNL     1      -8.101   4.652 -32.852  1.00  0.00    -0.359 N 
HETATM   13  H   UNL     1      -7.159   4.268 -32.897  1.00  0.00     0.162 HD
HETATM   14  O   UNL     1     -10.233   4.516 -33.595  1.00  0.00    -0.273 OA
BRANCH  12  15
HETATM   15  C   UNL     1      -8.438   5.383 -31.618  1.00  0.00     0.150 C 
BRANCH  15  16
HETATM   16  C   UNL     1      -7.848   6.811 -31.492  1.00  0.00     0.254 C 
BRANCH  16  17
HETATM   17  N   UNL     1      -6.840   6.934 -30.361  1.00  0.00    -0.070 N 
HETATM   18  H   UNL     1      -6.555   7.930 -30.335  1.00  0.00     0.279 HD
HETATM   19  C   UNL     1      -7.422   6.645 -28.994  1.00  0.00     0.235 C 
HETATM   20  C   UNL     1      -6.393   7.009 -27.929  1.00  0.00     0.028 C 
HETATM   21  C   UNL     1      -5.075   6.271 -28.139  1.00  0.00     0.003 C 
HETATM   22  C   UNL     1      -4.547   6.471 -29.554  1.00  0.00     0.028 C 
HETATM   23  C   UNL     1      -5.590   6.120 -30.606  1.00  0.00     0.235 C 
ENDBRANCH  16  17
ENDBRANCH  15  16
ENDBRANCH  12  15
ENDBRANCH  10  11
ENDBRANCH   5  10
BRANCH   6  24
HETATM   24  C   UNL     1      -5.875  -0.276 -34.126  1.00  0.00    -0.024 C 
HETATM   25  C   UNL     1      -4.704  -0.953 -33.706  1.00  0.00    -0.053 C 
HETATM   26  C   UNL     1      -3.501  -0.327 -33.048  1.00  0.00     0.049 C 
HETATM   27  C   UNL     1      -4.615  -2.352 -33.886  1.00  0.00     0.014 C 
HETATM   28  C   UNL     1      -5.617  -3.091 -34.516  1.00  0.00    -0.061 C 
HETATM   29  C   UNL     1      -5.491  -4.580 -34.660  1.00  0.00     0.048 C 
HETATM   30  C   UNL     1      -6.695  -2.409 -35.063  1.00  0.00     0.007 C 
HETATM   31  C   UNL     1      -6.815  -1.029 -34.884  1.00  0.00     0.011 C 
ENDBRANCH   6  24
BRANCH   9  32
HETATM   32  C   UNL     1      -4.899   2.893 -32.595  1.00  0.00     0.293 C 
HETATM   33  O   UNL     1      -5.168   3.863 -33.283  1.00  0.00    -0.259 OA
BRANCH  32  34
HETATM   34  O   UNL     1      -3.727   2.599 -32.004  1.00  0.00    -0.323 OA
HETATM   35  C   UNL     1      -2.867   3.705 -31.695  1.00  0.00     0.213 C 
ENDBRANCH  32  34
ENDBRANCH   9  32
BRANCH   1  36
HETATM   36  C   UNL     1      -6.001   2.001 -29.957  1.00  0.00     0.056 C 
HETATM   37  C   UNL     1      -6.998   3.013 -29.414  1.00  0.00     0.011 C 
ENDBRANCH   1  36
TORSDOF 9
ENDMDL
MODEL 10
REMARK VINA RESULT:      -6.8      1.966      3.118
REMARK  9 active torsions:
REMARK  status: ('A' for Active; 'I' for Inactive)
REMARK    1  A    between atoms: C_2  and  C_3 
REMARK    2  A    between atoms: C_7  and  C_8 
REMARK    3  A    between atoms: C_8  and  C_9 
REMARK       I    between atoms: C_9  and  N_10 
REMARK    4  A    between atoms: N_10  and  C_11 
REMARK    5  A    between atoms: C_11  and  C_12 
REMARK    6  A    between atoms: C_12  and  N_13 
REMARK    7  A    between atoms: C_21  and  C_22 
REMARK    8  A    between atoms: C_32  and  C_33 
REMARK    9  A    between atoms: C_33  and  O_34 
ROOT
HETATM    1  C   UNL     1      -6.799   2.172 -30.914  1.00  0.00     0.051 C 
HETATM    2  N   UNL     1      -7.899   2.815 -30.347  1.00  0.00    -0.228 NA
HETATM    3  C   UNL     1      -8.312   3.872 -30.964  1.00  0.00     0.170 C 
HETATM    4  N   UNL     1      -7.711   4.326 -32.319  1.00  0.00    -0.318 N 
HETATM    5  C   UNL     1      -7.488   5.594 -32.262  1.00  0.00     0.011 C 
HETATM    6  C   UNL     1      -7.311   3.153 -33.137  1.00  0.00     0.166 C 
HETATM    7  S   UNL     1      -9.264   5.128 -30.257  1.00  0.00    -0.086 SA
HETATM    8  C   UNL     1      -8.411   6.355 -31.322  1.00  0.00     0.135 C 
HETATM    9  C   UNL     1      -6.475   2.320 -32.221  1.00  0.00     0.069 C 
ENDROOT
BRANCH   5  10
HETATM   10  C   UNL     1      -6.193   6.163 -32.785  1.00  0.00     0.156 C 
BRANCH  10  11
HETATM   11  C   UNL     1      -5.455   6.812 -31.618  1.00  0.00     0.223 C 
HETATM   12  N   UNL     1      -4.789   6.004 -30.743  1.00  0.00    -0.359 N 
HETATM   13  H   UNL     1      -4.877   4.994 -30.837  1.00  0.00     0.162 HD
HETATM   14  O   UNL     1      -5.471   8.034 -31.470  1.00  0.00    -0.273 OA
BRANCH  12  15
HETATM   15  C   UNL     1      -4.302   6.488 -29.439  1.00  0.00     0.150 C 
BRANCH  15  16
HETATM   16  C   UNL     1      -2.923   7.196 -29.449  1.00  0.00     0.254 C 
BRANCH  16  17
HETATM   17  N   UNL     1      -1.797   6.284 -29.909  1.00  0.00    -0.070 N 
HETATM   18  H   UNL     1      -2.149   5.315 -29.801  1.00  0.00     0.279 HD
HETATM   19  C   UNL     1      -1.456   6.430 -31.376  1.00  0.00     0.235 C 
HETATM   20  C   UNL     1      -0.481   5.327 -31.772  1.00  0.00     0.028 C 
HETATM   21  C   UNL     1       0.774   5.344 -30.906  1.00  0.00     0.003 C 
HETATM   22  C   UNL     1       0.426   5.311 -29.423  1.00  0.00     0.028 C 
HETATM   23  C   UNL     1      -0.562   6.407 -29.046  1.00  0.00     0.235 C 
ENDBRANCH  16  17
ENDBRANCH  15  16
ENDBRANCH  12  15
ENDBRANCH  10  11
ENDBRANCH   5  10
BRANCH   6  24
HETATM   24  C   UNL     1      -8.612   2.540 -33.711  1.00  0.00    -0.024 C 
HETATM   25  C   UNL     1      -9.003   1.179 -33.670  1.00  0.00    -0.053 C 
HETATM   26  C   UNL     1      -8.124   0.010 -33.306  1.00  0.00     0.049 C 
HETATM   27  C   UNL     1     -10.339   0.836 -33.979  1.00  0.00     0.014 C 
HETATM   28  C   UNL     1     -11.281   1.784 -34.380  1.00  0.00    -0.061 C 
HETATM   29  C   UNL     1     -12.697   1.378 -34.671  1.00  0.00     0.048 C 
HETATM   30  C   UNL     1     -10.862   3.095 -34.567  1.00  0.00     0.007 C 
HETATM   31  C   UNL     1      -9.552   3.462 -34.252  1.00  0.00     0.011 C 
ENDBRANCH   6  24
BRANCH   9  32
HETATM   32  C   UNL     1      -5.139   1.964 -32.739  1.00  0.00     0.293 C 
HETATM   33  O   UNL     1      -4.849   0.817 -33.034  1.00  0.00    -0.259 OA
BRANCH  32  34
HETATM   34  O   UNL     1      -4.320   3.027 -32.649  1.00  0.00    -0.323 OA
HETATM   35  C   UNL     1      -3.223   2.917 -31.730  1.00  0.00     0.213 C 
ENDBRANCH  32  34
ENDBRANCH   9  32
BRANCH   1  36
HETATM   36  C   UNL     1      -5.988   1.344 -29.935  1.00  0.00     0.056 C 
HETATM   37  C   UNL     1      -6.365  -0.129 -29.985  1.00  0.00     0.011 C 
ENDBRANCH   1  36
TORSDOF 9
ENDMDL
