MODEL 1
REMARK VINA RESULT:      -9.0      0.000      0.000
REMARK  10 active torsions:
REMARK  status: ('A' for Active; 'I' for Inactive)
REMARK    1  A    between atoms: O_2  and  C_3 
REMARK    2  A    between atoms: C_3  and  C_4 
REMARK    3  A    between atoms: C_8  and  N_9 
REMARK       I    between atoms: N_9  and  C_10 
REMARK    4  A    between atoms: C_10  and  C_11 
REMARK    5  A    between atoms: C_12  and  C_13 
REMARK    6  A    between atoms: C_22  and  C_23 
REMARK    7  A    between atoms: C_23  and  N_24 
REMARK    8  A    between atoms: C_26  and  C_27 
REMARK    9  A    between atoms: C_27  and  C_28 
REMARK   10  A    between atoms: C_28  and  O_29 
ROOT
HETATM    1  C   UNL     1      -7.496   3.631 -30.639  1.00  0.00     0.110 C 
HETATM    2  S   UNL     1      -7.183   4.998 -29.660  1.00  0.00    -0.061 SA
HETATM    3  C   UNL     1      -5.586   5.115 -30.211  1.00  0.00     0.111 A 
HETATM    4  C   UNL     1      -5.254   4.133 -31.135  1.00  0.00     0.028 A 
HETATM    5  C   UNL     1      -6.351   3.202 -31.309  1.00  0.00     0.071 C 
HETATM    6  N   UNL     1      -4.794   6.114 -29.761  1.00  0.00    -0.243 NA
HETATM    7  C   UNL     1      -3.570   6.176 -30.324  1.00  0.00     0.061 A 
HETATM    8  C   UNL     1      -3.130   5.297 -31.305  1.00  0.00     0.030 A 
HETATM    9  C   UNL     1      -3.973   4.267 -31.718  1.00  0.00     0.019 A 
ENDROOT
BRANCH   5  10
HETATM   10  N   UNL     1      -6.386   2.029 -32.077  1.00  0.00    -0.321 N 
HETATM   11  C   UNL     1      -6.415   1.959 -33.451  1.00  0.00     0.245 C 
HETATM   12  O   UNL     1      -6.333   2.900 -34.231  1.00  0.00    -0.268 OA
HETATM   13  H   UNL     1      -6.173   1.168 -31.572  1.00  0.00     0.169 HD
BRANCH  11  14
HETATM   14  C   UNL     1      -6.506   0.554 -33.937  1.00  0.00     0.075 C 
HETATM   15  C   UNL     1      -5.646  -0.366 -33.475  1.00  0.00     0.017 C 
BRANCH  15  16
HETATM   16  C   UNL     1      -5.628  -1.748 -33.965  1.00  0.00    -0.036 A 
HETATM   17  C   UNL     1      -4.426  -2.467 -33.907  1.00  0.00     0.014 A 
HETATM   18  C   UNL     1      -4.371  -3.785 -34.367  1.00  0.00     0.043 A 
HETATM   19  C   UNL     1      -5.519  -4.384 -34.870  1.00  0.00     0.116 A 
HETATM   20  F   UNL     1      -5.465  -5.646 -35.312  1.00  0.00    -0.206 F 
HETATM   21  C   UNL     1      -6.724  -3.693 -34.916  1.00  0.00     0.043 A 
HETATM   22  C   UNL     1      -6.781  -2.373 -34.461  1.00  0.00     0.014 A 
ENDBRANCH  15  16
ENDBRANCH  11  14
ENDBRANCH   5  10
BRANCH   1  23
HETATM   23  C   UNL     1      -8.810   3.006 -30.686  1.00  0.00     0.302 C 
HETATM   24  O   UNL     1      -9.014   1.896 -31.170  1.00  0.00    -0.259 OA
BRANCH  23  25
HETATM   25  O   UNL     1      -9.778   3.803 -30.155  1.00  0.00    -0.322 OA
HETATM   26  C   UNL     1     -10.859   4.091 -31.047  1.00  0.00     0.213 C 
ENDBRANCH  23  25
ENDBRANCH   1  23
BRANCH   7  27
HETATM   27  C   UNL     1      -2.641   7.259 -29.809  1.00  0.00     0.294 C 
BRANCH  27  28
HETATM   28  N   UNL     1      -1.570   6.808 -28.805  1.00  0.00    -0.061 N 
HETATM   29  H   UNL     1      -1.600   5.782 -28.822  1.00  0.00     0.280 HD
HETATM   30  C   UNL     1      -0.125   7.199 -29.156  1.00  0.00     0.190 C 
HETATM   31  C   UNL     1       0.798   6.593 -28.078  1.00  0.00     0.033 C 
HETATM   32  C   UNL     1       0.406   6.987 -26.662  1.00  0.00     0.004 C 
HETATM   33  C   UNL     1      -1.040   6.611 -26.383  1.00  0.00     0.028 C 
HETATM   34  C   UNL     1      -1.964   7.244 -27.405  1.00  0.00     0.235 C 
BRANCH  30  35
HETATM   35  C   UNL     1       0.290   6.633 -30.525  1.00  0.00     0.059 C 
BRANCH  35  36
HETATM   36  C   UNL     1       0.810   5.200 -30.464  1.00  0.00     0.166 C 
BRANCH  36  37
HETATM   37  O   UNL     1      -0.285   4.365 -30.117  1.00  0.00    -0.401 OA
HETATM   38  H   UNL     1      -1.003   4.938 -29.790  1.00  0.00     0.209 HD
ENDBRANCH  36  37
ENDBRANCH  35  36
ENDBRANCH  30  35
ENDBRANCH  27  28
ENDBRANCH   7  27
TORSDOF 10
ENDMDL
MODEL 2
REMARK VINA RESULT:      -9.0      4.325     10.483
REMARK  10 active torsions:
REMARK  status: ('A' for Active; 'I' for Inactive)
REMARK    1  A    between atoms: O_2  and  C_3 
REMARK    2  A    between atoms: C_3  and  C_4 
REMARK    3  A    between atoms: C_8  and  N_9 
REMARK       I    between atoms: N_9  and  C_10 
REMARK    4  A    between atoms: C_10  and  C_11 
REMARK    5  A    between atoms: C_12  and  C_13 
REMARK    6  A    between atoms: C_22  and  C_23 
REMARK    7  A    between atoms: C_23  and  N_24 
REMARK    8  A    between atoms: C_26  and  C_27 
REMARK    9  A    between atoms: C_27  and  C_28 
REMARK   10  A    between atoms: C_28  and  O_29 
ROOT
HETATM    1  C   UNL     1      -3.038   6.348 -32.670  1.00  0.00     0.110 C 
HETATM    2  S   UNL     1      -4.160   5.613 -33.732  1.00  0.00    -0.061 SA
HETATM    3  C   UNL     1      -4.726   4.570 -32.524  1.00  0.00     0.111 A 
HETATM    4  C   UNL     1      -4.086   4.748 -31.305  1.00  0.00     0.028 A 
HETATM    5  C   UNL     1      -3.024   5.727 -31.422  1.00  0.00     0.071 C 
HETATM    6  N   UNL     1      -5.724   3.702 -32.804  1.00  0.00    -0.243 NA
HETATM    7  C   UNL     1      -6.166   2.977 -31.756  1.00  0.00     0.061 A 
HETATM    8  C   UNL     1      -5.659   3.098 -30.469  1.00  0.00     0.030 A 
HETATM    9  C   UNL     1      -4.613   3.988 -30.235  1.00  0.00     0.019 A 
ENDROOT
BRANCH   5  10
HETATM   10  N   UNL     1      -2.091   6.122 -30.453  1.00  0.00    -0.321 N 
HETATM   11  C   UNL     1      -0.816   5.623 -30.303  1.00  0.00     0.245 C 
HETATM   12  O   UNL     1      -0.258   4.816 -31.036  1.00  0.00    -0.268 OA
HETATM   13  H   UNL     1      -2.315   6.983 -29.953  1.00  0.00     0.169 HD
BRANCH  11  14
HETATM   14  C   UNL     1      -0.115   6.227 -29.136  1.00  0.00     0.075 C 
HETATM   15  C   UNL     1      -0.319   7.517 -28.831  1.00  0.00     0.017 C 
BRANCH  15  16
HETATM   16  C   UNL     1       0.395   8.196 -27.745  1.00  0.00    -0.036 A 
HETATM   17  C   UNL     1       0.021   9.504 -27.408  1.00  0.00     0.014 A 
HETATM   18  C   UNL     1       0.680  10.183 -26.380  1.00  0.00     0.043 A 
HETATM   19  C   UNL     1       1.700   9.548 -25.684  1.00  0.00     0.116 A 
HETATM   20  F   UNL     1       2.333  10.199 -24.701  1.00  0.00    -0.206 F 
HETATM   21  C   UNL     1       2.071   8.244 -25.992  1.00  0.00     0.043 A 
HETATM   22  C   UNL     1       1.417   7.565 -27.022  1.00  0.00     0.014 A 
ENDBRANCH  15  16
ENDBRANCH  11  14
ENDBRANCH   5  10
BRANCH   1  23
HETATM   23  C   UNL     1      -2.191   7.454 -33.095  1.00  0.00     0.302 C 
HETATM   24  O   UNL     1      -2.025   8.472 -32.430  1.00  0.00    -0.259 OA
BRANCH  23  25
HETATM   25  O   UNL     1      -1.633   7.235 -34.318  1.00  0.00    -0.322 OA
HETATM   26  C   UNL     1      -0.822   6.060 -34.394  1.00  0.00     0.213 C 
ENDBRANCH  23  25
ENDBRANCH   1  23
BRANCH   7  27
HETATM   27  C   UNL     1      -7.255   1.962 -32.046  1.00  0.00     0.294 C 
BRANCH  27  28
HETATM   28  N   UNL     1      -6.915   0.885 -33.086  1.00  0.00    -0.061 N 
HETATM   29  H   UNL     1      -6.071   1.227 -33.561  1.00  0.00     0.280 HD
HETATM   30  C   UNL     1      -6.556  -0.498 -32.519  1.00  0.00     0.190 C 
HETATM   31  C   UNL     1      -6.173  -1.406 -33.706  1.00  0.00     0.033 C 
HETATM   32  C   UNL     1      -7.247  -1.469 -34.782  1.00  0.00     0.004 C 
HETATM   33  C   UNL     1      -7.587  -0.075 -35.280  1.00  0.00     0.028 C 
HETATM   34  C   UNL     1      -8.016   0.814 -34.130  1.00  0.00     0.235 C 
BRANCH  30  35
HETATM   35  C   UNL     1      -5.352  -0.413 -31.563  1.00  0.00     0.059 C 
BRANCH  35  36
HETATM   36  C   UNL     1      -4.006  -0.350 -32.278  1.00  0.00     0.166 C 
BRANCH  36  37
HETATM   37  O   UNL     1      -3.784   1.004 -32.645  1.00  0.00    -0.401 OA
HETATM   38  H   UNL     1      -2.956   1.040 -33.159  1.00  0.00     0.209 HD
ENDBRANCH  36  37
ENDBRANCH  35  36
ENDBRANCH  30  35
ENDBRANCH  27  28
ENDBRANCH   7  27
TORSDOF 10
ENDMDL
MODEL 3
REMARK VINA RESULT:      -8.9      1.617      1.833
REMARK  10 active torsions:
REMARK  status: ('A' for Active; 'I' for Inactive)
REMARK    1  A    between atoms: O_2  and  C_3 
REMARK    2  A    between atoms: C_3  and  C_4 
REMARK    3  A    between atoms: C_8  and  N_9 
REMARK       I    between atoms: N_9  and  C_10 
REMARK    4  A    between atoms: C_10  and  C_11 
REMARK    5  A    between atoms: C_12  and  C_13 
REMARK    6  A    between atoms: C_22  and  C_23 
REMARK    7  A    between atoms: C_23  and  N_24 
REMARK    8  A    between atoms: C_26  and  C_27 
REMARK    9  A    between atoms: C_27  and  C_28 
REMARK   10  A    between atoms: C_28  and  O_29 
ROOT
HETATM    1  C   UNL     1      -6.995   4.730 -32.943  1.00  0.00     0.110 C 
HETATM    2  S   UNL     1      -6.621   6.342 -32.508  1.00  0.00    -0.061 SA
HETATM    3  C   UNL     1      -5.089   5.905 -31.934  1.00  0.00     0.111 A 
HETATM    4  C   UNL     1      -4.828   4.546 -32.053  1.00  0.00     0.028 A 
HETATM    5  C   UNL     1      -5.991   3.844 -32.555  1.00  0.00     0.071 C 
HETATM    6  N   UNL     1      -4.259   6.856 -31.450  1.00  0.00    -0.243 NA
HETATM    7  C   UNL     1      -3.030   6.424 -31.100  1.00  0.00     0.061 A 
HETATM    8  C   UNL     1      -2.615   5.106 -31.225  1.00  0.00     0.030 A 
HETATM    9  C   UNL     1      -3.514   4.155 -31.704  1.00  0.00     0.019 A 
ENDROOT
BRANCH   5  10
HETATM   10  N   UNL     1      -6.169   2.464 -32.731  1.00  0.00    -0.321 N 
HETATM   11  C   UNL     1      -6.506   1.558 -31.751  1.00  0.00     0.245 C 
HETATM   12  O   UNL     1      -6.788   1.814 -30.587  1.00  0.00    -0.268 OA
HETATM   13  H   UNL     1      -6.245   2.151 -33.700  1.00  0.00     0.169 HD
BRANCH  11  14
HETATM   14  C   UNL     1      -6.557   0.164 -32.273  1.00  0.00     0.075 C 
HETATM   15  C   UNL     1      -5.652  -0.241 -33.177  1.00  0.00     0.017 C 
BRANCH  15  16
HETATM   16  C   UNL     1      -5.687  -1.572 -33.790  1.00  0.00    -0.036 A 
HETATM   17  C   UNL     1      -4.487  -2.285 -33.923  1.00  0.00     0.014 A 
HETATM   18  C   UNL     1      -4.483  -3.555 -34.504  1.00  0.00     0.043 A 
HETATM   19  C   UNL     1      -5.678  -4.115 -34.938  1.00  0.00     0.116 A 
HETATM   20  F   UNL     1      -5.673  -5.331 -35.497  1.00  0.00    -0.206 F 
HETATM   21  C   UNL     1      -6.880  -3.431 -34.796  1.00  0.00     0.043 A 
HETATM   22  C   UNL     1      -6.886  -2.159 -34.219  1.00  0.00     0.014 A 
ENDBRANCH  15  16
ENDBRANCH  11  14
ENDBRANCH   5  10
BRANCH   1  23
HETATM   23  C   UNL     1      -8.251   4.384 -33.593  1.00  0.00     0.302 C 
HETATM   24  O   UNL     1      -8.947   3.430 -33.256  1.00  0.00    -0.259 OA
BRANCH  23  25
HETATM   25  O   UNL     1      -8.544   5.222 -34.627  1.00  0.00    -0.322 OA
HETATM   26  C   UNL     1      -9.935   5.521 -34.766  1.00  0.00     0.213 C 
ENDBRANCH  23  25
ENDBRANCH   1  23
BRANCH   7  27
HETATM   27  C   UNL     1      -2.090   7.460 -30.512  1.00  0.00     0.294 C 
BRANCH  27  28
HETATM   28  N   UNL     1      -1.364   7.056 -29.220  1.00  0.00    -0.061 N 
HETATM   29  H   UNL     1      -1.597   6.066 -29.079  1.00  0.00     0.280 HD
HETATM   30  C   UNL     1       0.171   7.129 -29.270  1.00  0.00     0.190 C 
HETATM   31  C   UNL     1       0.709   6.614 -27.919  1.00  0.00     0.033 C 
HETATM   32  C   UNL     1       0.120   7.346 -26.722  1.00  0.00     0.004 C 
HETATM   33  C   UNL     1      -1.397   7.271 -26.743  1.00  0.00     0.028 C 
HETATM   34  C   UNL     1      -1.942   7.825 -28.046  1.00  0.00     0.235 C 
BRANCH  30  35
HETATM   35  C   UNL     1       0.736   6.238 -30.390  1.00  0.00     0.059 C 
BRANCH  35  36
HETATM   36  C   UNL     1       0.868   4.770 -29.997  1.00  0.00     0.166 C 
BRANCH  36  37
HETATM   37  O   UNL     1       1.742   4.157 -30.934  1.00  0.00    -0.401 OA
HETATM   38  H   UNL     1       2.497   3.788 -30.440  1.00  0.00     0.209 HD
ENDBRANCH  36  37
ENDBRANCH  35  36
ENDBRANCH  30  35
ENDBRANCH  27  28
ENDBRANCH   7  27
TORSDOF 10
ENDMDL
MODEL 4
REMARK VINA RESULT:      -8.5      3.203      4.811
REMARK  10 active torsions:
REMARK  status: ('A' for Active; 'I' for Inactive)
REMARK    1  A    between atoms: O_2  and  C_3 
REMARK    2  A    between atoms: C_3  and  C_4 
REMARK    3  A    between atoms: C_8  and  N_9 
REMARK       I    between atoms: N_9  and  C_10 
REMARK    4  A    between atoms: C_10  and  C_11 
REMARK    5  A    between atoms: C_12  and  C_13 
REMARK    6  A    between atoms: C_22  and  C_23 
REMARK    7  A    between atoms: C_23  and  N_24 
REMARK    8  A    between atoms: C_26  and  C_27 
REMARK    9  A    between atoms: C_27  and  C_28 
REMARK   10  A    between atoms: C_28  and  O_29 
ROOT
HETATM    1  C   UNL     1      -5.035   2.299 -32.508  1.00  0.00     0.110 C 
HETATM    2  S   UNL     1      -3.441   2.782 -32.116  1.00  0.00    -0.061 SA
HETATM    3  C   UNL     1      -3.965   4.281 -31.527  1.00  0.00     0.111 A 
HETATM    4  C   UNL     1      -5.341   4.451 -31.615  1.00  0.00     0.028 A 
HETATM    5  C   UNL     1      -5.955   3.323 -32.284  1.00  0.00     0.071 C 
HETATM    6  N   UNL     1      -3.065   5.151 -31.017  1.00  0.00    -0.243 NA
HETATM    7  C   UNL     1      -3.588   6.279 -30.493  1.00  0.00     0.061 A 
HETATM    8  C   UNL     1      -4.950   6.550 -30.458  1.00  0.00     0.030 A 
HETATM    9  C   UNL     1      -5.837   5.634 -31.020  1.00  0.00     0.019 A 
ENDROOT
BRANCH   5  10
HETATM   10  N   UNL     1      -7.298   3.150 -32.649  1.00  0.00    -0.321 N 
HETATM   11  C   UNL     1      -7.990   3.899 -33.573  1.00  0.00     0.245 C 
HETATM   12  O   UNL     1      -7.532   4.782 -34.287  1.00  0.00    -0.268 OA
HETATM   13  H   UNL     1      -7.725   2.274 -32.345  1.00  0.00     0.169 HD
BRANCH  11  14
HETATM   14  C   UNL     1      -9.416   3.481 -33.675  1.00  0.00     0.075 C 
HETATM   15  C   UNL     1      -9.717   2.195 -33.912  1.00  0.00     0.017 C 
BRANCH  15  16
HETATM   16  C   UNL     1     -11.093   1.726 -34.100  1.00  0.00    -0.036 A 
HETATM   17  C   UNL     1     -11.491   0.536 -33.474  1.00  0.00     0.014 A 
HETATM   18  C   UNL     1     -12.794   0.058 -33.632  1.00  0.00     0.043 A 
HETATM   19  C   UNL     1     -13.698   0.776 -34.404  1.00  0.00     0.116 A 
HETATM   20  F   UNL     1     -14.946   0.317 -34.558  1.00  0.00    -0.206 F 
HETATM   21  C   UNL     1     -13.327   1.968 -35.017  1.00  0.00     0.043 A 
HETATM   22  C   UNL     1     -12.024   2.446 -34.863  1.00  0.00     0.014 A 
ENDBRANCH  15  16
ENDBRANCH  11  14
ENDBRANCH   5  10
BRANCH   1  23
HETATM   23  C   UNL     1      -5.324   0.980 -33.053  1.00  0.00     0.302 C 
HETATM   24  O   UNL     1      -6.048   0.795 -34.027  1.00  0.00    -0.259 OA
BRANCH  23  25
HETATM   25  O   UNL     1      -4.720  -0.014 -32.343  1.00  0.00    -0.322 OA
HETATM   26  C   UNL     1      -3.941  -0.914 -33.136  1.00  0.00     0.213 C 
ENDBRANCH  23  25
ENDBRANCH   1  23
BRANCH   7  27
HETATM   27  C   UNL     1      -2.602   7.295 -29.952  1.00  0.00     0.294 C 
BRANCH  27  28
HETATM   28  N   UNL     1      -1.638   6.790 -28.868  1.00  0.00    -0.061 N 
HETATM   29  H   UNL     1      -1.717   5.766 -28.894  1.00  0.00     0.280 HD
HETATM   30  C   UNL     1      -0.152   7.110 -29.098  1.00  0.00     0.190 C 
HETATM   31  C   UNL     1       0.651   6.456 -27.954  1.00  0.00     0.033 C 
HETATM   32  C   UNL     1       0.165   6.865 -26.571  1.00  0.00     0.004 C 
HETATM   33  C   UNL     1      -1.315   6.559 -26.413  1.00  0.00     0.028 C 
HETATM   34  C   UNL     1      -2.122   7.240 -27.501  1.00  0.00     0.235 C 
BRANCH  30  35
HETATM   35  C   UNL     1       0.343   6.527 -30.434  1.00  0.00     0.059 C 
BRANCH  35  36
HETATM   36  C   UNL     1       0.719   5.051 -30.358  1.00  0.00     0.166 C 
BRANCH  36  37
HETATM   37  O   UNL     1      -0.489   4.311 -30.251  1.00  0.00    -0.401 OA
HETATM   38  H   UNL     1      -0.269   3.434 -29.886  1.00  0.00     0.209 HD
ENDBRANCH  36  37
ENDBRANCH  35  36
ENDBRANCH  30  35
ENDBRANCH  27  28
ENDBRANCH   7  27
TORSDOF 10
ENDMDL
MODEL 5
REMARK VINA RESULT:      -8.5      1.930      2.699
REMARK  10 active torsions:
REMARK  status: ('A' for Active; 'I' for Inactive)
REMARK    1  A    between atoms: O_2  and  C_3 
REMARK    2  A    between atoms: C_3  and  C_4 
REMARK    3  A    between atoms: C_8  and  N_9 
REMARK       I    between atoms: N_9  and  C_10 
REMARK    4  A    between atoms: C_10  and  C_11 
REMARK    5  A    between atoms: C_12  and  C_13 
REMARK    6  A    between atoms: C_22  and  C_23 
REMARK    7  A    between atoms: C_23  and  N_24 
REMARK    8  A    between atoms: C_26  and  C_27 
REMARK    9  A    between atoms: C_27  and  C_28 
REMARK   10  A    between atoms: C_28  and  O_29 
ROOT
HETATM    1  C   UNL     1      -6.247   4.772 -32.848  1.00  0.00     0.110 C 
HETATM    2  S   UNL     1      -5.675   6.342 -32.485  1.00  0.00    -0.061 SA
HETATM    3  C   UNL     1      -4.085   5.793 -32.290  1.00  0.00     0.111 A 
HETATM    4  C   UNL     1      -3.951   4.425 -32.488  1.00  0.00     0.028 A 
HETATM    5  C   UNL     1      -5.244   3.813 -32.718  1.00  0.00     0.071 C 
HETATM    6  N   UNL     1      -3.103   6.675 -31.995  1.00  0.00    -0.243 NA
HETATM    7  C   UNL     1      -1.859   6.157 -31.947  1.00  0.00     0.061 A 
HETATM    8  C   UNL     1      -1.574   4.819 -32.187  1.00  0.00     0.030 A 
HETATM    9  C   UNL     1      -2.622   3.942 -32.460  1.00  0.00     0.019 A 
ENDROOT
BRANCH   5  10
HETATM   10  N   UNL     1      -5.550   2.453 -32.871  1.00  0.00    -0.321 N 
HETATM   11  C   UNL     1      -5.762   1.550 -31.853  1.00  0.00     0.245 C 
HETATM   12  O   UNL     1      -5.801   1.798 -30.655  1.00  0.00    -0.268 OA
HETATM   13  H   UNL     1      -5.829   2.168 -33.811  1.00  0.00     0.169 HD
BRANCH  11  14
HETATM   14  C   UNL     1      -6.010   0.175 -32.370  1.00  0.00     0.075 C 
HETATM   15  C   UNL     1      -5.091  -0.421 -33.144  1.00  0.00     0.017 C 
BRANCH  15  16
HETATM   16  C   UNL     1      -5.301  -1.740 -33.749  1.00  0.00    -0.036 A 
HETATM   17  C   UNL     1      -6.549  -2.029 -34.318  1.00  0.00     0.014 A 
HETATM   18  C   UNL     1      -6.786  -3.276 -34.901  1.00  0.00     0.043 A 
HETATM   19  C   UNL     1      -5.771  -4.225 -34.926  1.00  0.00     0.116 A 
HETATM   20  F   UNL     1      -5.999  -5.420 -35.483  1.00  0.00    -0.206 F 
HETATM   21  C   UNL     1      -4.521  -3.948 -34.384  1.00  0.00     0.043 A 
HETATM   22  C   UNL     1      -4.283  -2.703 -33.796  1.00  0.00     0.014 A 
ENDBRANCH  15  16
ENDBRANCH  11  14
ENDBRANCH   5  10
BRANCH   1  23
HETATM   23  C   UNL     1      -7.640   4.525 -33.195  1.00  0.00     0.302 C 
HETATM   24  O   UNL     1      -8.155   4.912 -34.240  1.00  0.00    -0.259 OA
BRANCH  23  25
HETATM   25  O   UNL     1      -8.300   3.841 -32.219  1.00  0.00    -0.322 OA
HETATM   26  C   UNL     1      -9.197   2.839 -32.706  1.00  0.00     0.213 C 
ENDBRANCH  23  25
ENDBRANCH   1  23
BRANCH   7  27
HETATM   27  C   UNL     1      -0.741   7.112 -31.577  1.00  0.00     0.294 C 
BRANCH  27  28
HETATM   28  N   UNL     1      -0.389   7.193 -30.084  1.00  0.00    -0.061 N 
HETATM   29  H   UNL     1       0.378   7.874 -30.025  1.00  0.00     0.280 HD
HETATM   30  C   UNL     1      -1.502   7.726 -29.167  1.00  0.00     0.190 C 
HETATM   31  C   UNL     1      -0.932   7.805 -27.736  1.00  0.00     0.033 C 
HETATM   32  C   UNL     1      -0.345   6.487 -27.251  1.00  0.00     0.004 C 
HETATM   33  C   UNL     1       0.723   5.992 -28.212  1.00  0.00     0.028 C 
HETATM   34  C   UNL     1       0.160   5.858 -29.614  1.00  0.00     0.235 C 
BRANCH  30  35
HETATM   35  C   UNL     1      -1.948   9.136 -29.591  1.00  0.00     0.059 C 
BRANCH  35  36
HETATM   36  C   UNL     1      -3.460   9.337 -29.560  1.00  0.00     0.166 C 
BRANCH  36  37
HETATM   37  O   UNL     1      -4.057   8.050 -29.486  1.00  0.00    -0.401 OA
HETATM   38  H   UNL     1      -5.021   8.174 -29.412  1.00  0.00     0.209 HD
ENDBRANCH  36  37
ENDBRANCH  35  36
ENDBRANCH  30  35
ENDBRANCH  27  28
ENDBRANCH   7  27
TORSDOF 10
ENDMDL
MODEL 6
REMARK VINA RESULT:      -8.3      4.388     10.344
REMARK  10 active torsions:
REMARK  status: ('A' for Active; 'I' for Inactive)
REMARK    1  A    between atoms: O_2  and  C_3 
REMARK    2  A    between atoms: C_3  and  C_4 
REMARK    3  A    between atoms: C_8  and  N_9 
REMARK       I    between atoms: N_9  and  C_10 
REMARK    4  A    between atoms: C_10  and  C_11 
REMARK    5  A    between atoms: C_12  and  C_13 
REMARK    6  A    between atoms: C_22  and  C_23 
REMARK    7  A    between atoms: C_23  and  N_24 
REMARK    8  A    between atoms: C_26  and  C_27 
REMARK    9  A    between atoms: C_27  and  C_28 
REMARK   10  A    between atoms: C_28  and  O_29 
ROOT
HETATM    1  C   UNL     1      -7.328   0.739 -32.840  1.00  0.00     0.110 C 
HETATM    2  S   UNL     1      -8.819   0.023 -33.273  1.00  0.00    -0.061 SA
HETATM    3  C   UNL     1      -9.473   1.510 -33.755  1.00  0.00     0.111 A 
HETATM    4  C   UNL     1      -8.590   2.571 -33.598  1.00  0.00     0.028 A 
HETATM    5  C   UNL     1      -7.364   2.128 -32.966  1.00  0.00     0.071 C 
HETATM    6  N   UNL     1     -10.728   1.559 -34.255  1.00  0.00    -0.243 NA
HETATM    7  C   UNL     1     -11.126   2.771 -34.692  1.00  0.00     0.061 A 
HETATM    8  C   UNL     1     -10.324   3.903 -34.654  1.00  0.00     0.030 A 
HETATM    9  C   UNL     1      -9.046   3.810 -34.105  1.00  0.00     0.019 A 
ENDROOT
BRANCH   5  10
HETATM   10  N   UNL     1      -6.268   2.898 -32.553  1.00  0.00    -0.321 N 
HETATM   11  C   UNL     1      -5.444   3.640 -33.370  1.00  0.00     0.245 C 
HETATM   12  O   UNL     1      -5.579   3.819 -34.574  1.00  0.00    -0.268 OA
HETATM   13  H   UNL     1      -6.207   3.071 -31.549  1.00  0.00     0.169 HD
BRANCH  11  14
HETATM   14  C   UNL     1      -4.343   4.291 -32.607  1.00  0.00     0.075 C 
HETATM   15  C   UNL     1      -3.292   4.806 -33.264  1.00  0.00     0.017 C 
BRANCH  15  16
HETATM   16  C   UNL     1      -2.138   5.392 -32.576  1.00  0.00    -0.036 A 
HETATM   17  C   UNL     1      -1.649   6.630 -33.015  1.00  0.00     0.014 A 
HETATM   18  C   UNL     1      -0.550   7.218 -32.384  1.00  0.00     0.043 A 
HETATM   19  C   UNL     1       0.048   6.573 -31.309  1.00  0.00     0.116 A 
HETATM   20  F   UNL     1       1.103   7.135 -30.707  1.00  0.00    -0.206 F 
HETATM   21  C   UNL     1      -0.435   5.354 -30.848  1.00  0.00     0.043 A 
HETATM   22  C   UNL     1      -1.531   4.762 -31.479  1.00  0.00     0.014 A 
ENDBRANCH  15  16
ENDBRANCH  11  14
ENDBRANCH   5  10
BRANCH   1  23
HETATM   23  C   UNL     1      -6.208  -0.055 -32.356  1.00  0.00     0.302 C 
HETATM   24  O   UNL     1      -5.779   0.008 -31.208  1.00  0.00    -0.259 OA
BRANCH  23  25
HETATM   25  O   UNL     1      -5.683  -0.851 -33.330  1.00  0.00    -0.322 OA
HETATM   26  C   UNL     1      -4.362  -1.324 -33.055  1.00  0.00     0.213 C 
ENDBRANCH  23  25
ENDBRANCH   1  23
BRANCH   7  27
HETATM   27  C   UNL     1     -12.545   2.868 -35.220  1.00  0.00     0.294 C 
BRANCH  27  28
HETATM   28  N   UNL     1     -13.649   3.016 -34.162  1.00  0.00    -0.061 N 
HETATM   29  H   UNL     1     -14.512   3.177 -34.695  1.00  0.00     0.280 HD
HETATM   30  C   UNL     1     -13.910   1.772 -33.296  1.00  0.00     0.190 C 
HETATM   31  C   UNL     1     -15.094   2.093 -32.361  1.00  0.00     0.033 C 
HETATM   32  C   UNL     1     -14.883   3.355 -31.537  1.00  0.00     0.004 C 
HETATM   33  C   UNL     1     -14.595   4.541 -32.441  1.00  0.00     0.028 C 
HETATM   34  C   UNL     1     -13.398   4.260 -33.329  1.00  0.00     0.235 C 
BRANCH  30  35
HETATM   35  C   UNL     1     -14.289   0.558 -34.162  1.00  0.00     0.059 C 
BRANCH  35  36
HETATM   36  C   UNL     1     -13.782  -0.771 -33.611  1.00  0.00     0.166 C 
BRANCH  36  37
HETATM   37  O   UNL     1     -12.508  -0.530 -33.030  1.00  0.00    -0.401 OA
HETATM   38  H   UNL     1     -11.998  -1.359 -33.080  1.00  0.00     0.209 HD
ENDBRANCH  36  37
ENDBRANCH  35  36
ENDBRANCH  30  35
ENDBRANCH  27  28
ENDBRANCH   7  27
TORSDOF 10
ENDMDL
MODEL 7
REMARK VINA RESULT:      -8.2      3.655      5.669
REMARK  10 active torsions:
REMARK  status: ('A' for Active; 'I' for Inactive)
REMARK    1  A    between atoms: O_2  and  C_3 
REMARK    2  A    between atoms: C_3  and  C_4 
REMARK    3  A    between atoms: C_8  and  N_9 
REMARK       I    between atoms: N_9  and  C_10 
REMARK    4  A    between atoms: C_10  and  C_11 
REMARK    5  A    between atoms: C_12  and  C_13 
REMARK    6  A    between atoms: C_22  and  C_23 
REMARK    7  A    between atoms: C_23  and  N_24 
REMARK    8  A    between atoms: C_26  and  C_27 
REMARK    9  A    between atoms: C_27  and  C_28 
REMARK   10  A    between atoms: C_28  and  O_29 
ROOT
HETATM    1  C   UNL     1      -5.204   0.956 -32.249  1.00  0.00     0.110 C 
HETATM    2  S   UNL     1      -3.589   1.501 -32.105  1.00  0.00    -0.061 SA
HETATM    3  C   UNL     1      -3.988   3.050 -32.662  1.00  0.00     0.111 A 
HETATM    4  C   UNL     1      -5.335   3.189 -32.970  1.00  0.00     0.028 A 
HETATM    5  C   UNL     1      -6.028   1.926 -32.820  1.00  0.00     0.071 C 
HETATM    6  N   UNL     1      -3.030   4.000 -32.741  1.00  0.00    -0.243 NA
HETATM    7  C   UNL     1      -3.462   5.224 -33.110  1.00  0.00     0.061 A 
HETATM    8  C   UNL     1      -4.790   5.519 -33.387  1.00  0.00     0.030 A 
HETATM    9  C   UNL     1      -5.738   4.499 -33.318  1.00  0.00     0.019 A 
ENDROOT
BRANCH   5  10
HETATM   10  N   UNL     1      -7.364   1.623 -33.118  1.00  0.00    -0.321 N 
HETATM   11  C   UNL     1      -7.838   1.130 -34.313  1.00  0.00     0.245 C 
HETATM   12  O   UNL     1      -7.167   0.798 -35.282  1.00  0.00    -0.268 OA
HETATM   13  H   UNL     1      -7.994   1.581 -32.315  1.00  0.00     0.169 HD
BRANCH  11  14
HETATM   14  C   UNL     1      -9.319   0.976 -34.304  1.00  0.00     0.075 C 
HETATM   15  C   UNL     1     -10.080   1.889 -33.684  1.00  0.00     0.017 C 
BRANCH  15  16
HETATM   16  C   UNL     1     -11.536   1.761 -33.570  1.00  0.00    -0.036 A 
HETATM   17  C   UNL     1     -12.117   0.497 -33.750  1.00  0.00     0.014 A 
HETATM   18  C   UNL     1     -13.501   0.338 -33.651  1.00  0.00     0.043 A 
HETATM   19  C   UNL     1     -14.299   1.437 -33.361  1.00  0.00     0.116 A 
HETATM   20  F   UNL     1     -15.626   1.285 -33.269  1.00  0.00    -0.206 F 
HETATM   21  C   UNL     1     -13.739   2.694 -33.161  1.00  0.00     0.043 A 
HETATM   22  C   UNL     1     -12.355   2.857 -33.263  1.00  0.00     0.014 A 
ENDBRANCH  15  16
ENDBRANCH  11  14
ENDBRANCH   5  10
BRANCH   1  23
HETATM   23  C   UNL     1      -5.598  -0.388 -31.852  1.00  0.00     0.302 C 
HETATM   24  O   UNL     1      -6.523  -0.621 -31.080  1.00  0.00    -0.259 OA
BRANCH  23  25
HETATM   25  O   UNL     1      -4.807  -1.343 -32.415  1.00  0.00    -0.322 OA
HETATM   26  C   UNL     1      -5.221  -1.758 -33.719  1.00  0.00     0.213 C 
ENDBRANCH  23  25
ENDBRANCH   1  23
BRANCH   7  27
HETATM   27  C   UNL     1      -2.404   6.302 -33.250  1.00  0.00     0.294 C 
BRANCH  27  28
HETATM   28  N   UNL     1      -1.544   6.569 -32.006  1.00  0.00    -0.061 N 
HETATM   29  H   UNL     1      -1.101   7.480 -32.176  1.00  0.00     0.280 HD
HETATM   30  C   UNL     1      -2.315   6.710 -30.683  1.00  0.00     0.190 C 
HETATM   31  C   UNL     1      -1.292   7.051 -29.579  1.00  0.00     0.033 C 
HETATM   32  C   UNL     1      -0.148   6.052 -29.494  1.00  0.00     0.004 C 
HETATM   33  C   UNL     1       0.554   5.927 -30.835  1.00  0.00     0.028 C 
HETATM   34  C   UNL     1      -0.431   5.540 -31.921  1.00  0.00     0.235 C 
BRANCH  30  35
HETATM   35  C   UNL     1      -3.348   7.848 -30.757  1.00  0.00     0.059 C 
BRANCH  35  36
HETATM   36  C   UNL     1      -2.736   9.240 -30.635  1.00  0.00     0.166 C 
BRANCH  36  37
HETATM   37  O   UNL     1      -2.096   9.532 -31.870  1.00  0.00    -0.401 OA
HETATM   38  H   UNL     1      -1.681   8.710 -32.190  1.00  0.00     0.209 HD
ENDBRANCH  36  37
ENDBRANCH  35  36
ENDBRANCH  30  35
ENDBRANCH  27  28
ENDBRANCH   7  27
TORSDOF 10
ENDMDL
MODEL 8
REMARK VINA RESULT:      -8.1      3.530      5.370
REMARK  10 active torsions:
REMARK  status: ('A' for Active; 'I' for Inactive)
REMARK    1  A    between atoms: O_2  and  C_3 
REMARK    2  A    between atoms: C_3  and  C_4 
REMARK    3  A    between atoms: C_8  and  N_9 
REMARK       I    between atoms: N_9  and  C_10 
REMARK    4  A    between atoms: C_10  and  C_11 
REMARK    5  A    between atoms: C_12  and  C_13 
REMARK    6  A    between atoms: C_22  and  C_23 
REMARK    7  A    between atoms: C_23  and  N_24 
REMARK    8  A    between atoms: C_26  and  C_27 
REMARK    9  A    between atoms: C_27  and  C_28 
REMARK   10  A    between atoms: C_28  and  O_29 
ROOT
HETATM    1  C   UNL     1      -5.327   1.326 -31.686  1.00  0.00     0.110 C 
HETATM    2  S   UNL     1      -3.817   2.056 -31.347  1.00  0.00    -0.061 SA
HETATM    3  C   UNL     1      -4.465   3.616 -31.472  1.00  0.00     0.111 A 
HETATM    4  C   UNL     1      -5.820   3.622 -31.773  1.00  0.00     0.028 A 
HETATM    5  C   UNL     1      -6.301   2.274 -31.996  1.00  0.00     0.071 C 
HETATM    6  N   UNL     1      -3.670   4.689 -31.258  1.00  0.00    -0.243 NA
HETATM    7  C   UNL     1      -4.296   5.883 -31.293  1.00  0.00     0.061 A 
HETATM    8  C   UNL     1      -5.658   6.031 -31.520  1.00  0.00     0.030 A 
HETATM    9  C   UNL     1      -6.431   4.897 -31.762  1.00  0.00     0.019 A 
ENDROOT
BRANCH   5  10
HETATM   10  N   UNL     1      -7.577   1.859 -32.407  1.00  0.00    -0.321 N 
HETATM   11  C   UNL     1      -7.946   1.523 -33.690  1.00  0.00     0.245 C 
HETATM   12  O   UNL     1      -7.210   1.450 -34.666  1.00  0.00    -0.268 OA
HETATM   13  H   UNL     1      -8.217   1.601 -31.655  1.00  0.00     0.169 HD
BRANCH  11  14
HETATM   14  C   UNL     1      -9.393   1.182 -33.782  1.00  0.00     0.075 C 
HETATM   15  C   UNL     1     -10.316   2.126 -33.544  1.00  0.00     0.017 C 
BRANCH  15  16
HETATM   16  C   UNL     1     -11.754   1.844 -33.542  1.00  0.00    -0.036 A 
HETATM   17  C   UNL     1     -12.647   2.894 -33.282  1.00  0.00     0.014 A 
HETATM   18  C   UNL     1     -14.024   2.661 -33.270  1.00  0.00     0.043 A 
HETATM   19  C   UNL     1     -14.506   1.385 -33.530  1.00  0.00     0.116 A 
HETATM   20  F   UNL     1     -15.826   1.162 -33.517  1.00  0.00    -0.206 F 
HETATM   21  C   UNL     1     -13.637   0.336 -33.810  1.00  0.00     0.043 A 
HETATM   22  C   UNL     1     -12.259   0.566 -33.819  1.00  0.00     0.014 A 
ENDBRANCH  15  16
ENDBRANCH  11  14
ENDBRANCH   5  10
BRANCH   1  23
HETATM   23  C   UNL     1      -5.497  -0.120 -31.683  1.00  0.00     0.302 C 
HETATM   24  O   UNL     1      -6.346  -0.700 -31.013  1.00  0.00    -0.259 OA
BRANCH  23  25
HETATM   25  O   UNL     1      -4.593  -0.746 -32.487  1.00  0.00    -0.322 OA
HETATM   26  C   UNL     1      -5.153  -1.307 -33.678  1.00  0.00     0.213 C 
ENDBRANCH  23  25
ENDBRANCH   1  23
BRANCH   7  27
HETATM   27  C   UNL     1      -3.425   7.110 -31.100  1.00  0.00     0.294 C 
BRANCH  27  28
HETATM   28  N   UNL     1      -2.050   6.867 -30.461  1.00  0.00    -0.061 N 
HETATM   29  H   UNL     1      -2.050   5.877 -30.189  1.00  0.00     0.280 HD
HETATM   30  C   UNL     1      -0.842   7.053 -31.394  1.00  0.00     0.190 C 
HETATM   31  C   UNL     1       0.427   6.690 -30.594  1.00  0.00     0.033 C 
HETATM   32  C   UNL     1       0.559   7.468 -29.293  1.00  0.00     0.004 C 
HETATM   33  C   UNL     1      -0.675   7.277 -28.429  1.00  0.00     0.028 C 
HETATM   34  C   UNL     1      -1.926   7.681 -29.185  1.00  0.00     0.235 C 
BRANCH  30  35
HETATM   35  C   UNL     1      -0.931   6.120 -32.614  1.00  0.00     0.059 C 
BRANCH  35  36
HETATM   36  C   UNL     1      -1.221   6.848 -33.923  1.00  0.00     0.166 C 
BRANCH  36  37
HETATM   37  O   UNL     1      -1.673   8.153 -33.591  1.00  0.00    -0.401 OA
HETATM   38  H   UNL     1      -1.568   8.714 -34.381  1.00  0.00     0.209 HD
ENDBRANCH  36  37
ENDBRANCH  35  36
ENDBRANCH  30  35
ENDBRANCH  27  28
ENDBRANCH   7  27
TORSDOF 10
ENDMDL
MODEL 9
REMARK VINA RESULT:      -7.9      6.779     10.063
REMARK  10 active torsions:
REMARK  status: ('A' for Active; 'I' for Inactive)
REMARK    1  A    between atoms: O_2  and  C_3 
REMARK    2  A    between atoms: C_3  and  C_4 
REMARK    3  A    between atoms: C_8  and  N_9 
REMARK       I    between atoms: N_9  and  C_10 
REMARK    4  A    between atoms: C_10  and  C_11 
REMARK    5  A    between atoms: C_12  and  C_13 
REMARK    6  A    between atoms: C_22  and  C_23 
REMARK    7  A    between atoms: C_23  and  N_24 
REMARK    8  A    between atoms: C_26  and  C_27 
REMARK    9  A    between atoms: C_27  and  C_28 
REMARK   10  A    between atoms: C_28  and  O_29 
ROOT
HETATM    1  C   UNL     1      -1.324   9.950 -25.159  1.00  0.00     0.110 C 
HETATM    2  S   UNL     1      -0.644  10.439 -23.667  1.00  0.00    -0.061 SA
HETATM    3  C   UNL     1       0.862   9.769 -24.054  1.00  0.00     0.111 A 
HETATM    4  C   UNL     1       0.886   9.163 -25.304  1.00  0.00     0.028 A 
HETATM    5  C   UNL     1      -0.430   9.185 -25.908  1.00  0.00     0.071 C 
HETATM    6  N   UNL     1       1.889   9.883 -23.182  1.00  0.00    -0.243 NA
HETATM    7  C   UNL     1       3.070   9.396 -23.617  1.00  0.00     0.061 A 
HETATM    8  C   UNL     1       3.250   8.822 -24.868  1.00  0.00     0.030 A 
HETATM    9  C   UNL     1       2.155   8.702 -25.722  1.00  0.00     0.019 A 
ENDROOT
BRANCH   5  10
HETATM   10  N   UNL     1      -0.847   8.604 -27.114  1.00  0.00    -0.321 N 
HETATM   11  C   UNL     1      -0.967   7.256 -27.366  1.00  0.00     0.245 C 
HETATM   12  O   UNL     1      -0.812   6.346 -26.560  1.00  0.00    -0.268 OA
HETATM   13  H   UNL     1      -1.279   9.242 -27.783  1.00  0.00     0.169 HD
BRANCH  11  14
HETATM   14  C   UNL     1      -1.380   6.985 -28.771  1.00  0.00     0.075 C 
HETATM   15  C   UNL     1      -0.489   6.489 -29.643  1.00  0.00     0.017 C 
BRANCH  15  16
HETATM   16  C   UNL     1      -0.804   6.270 -31.058  1.00  0.00    -0.036 A 
HETATM   17  C   UNL     1      -1.278   5.012 -31.456  1.00  0.00     0.014 A 
HETATM   18  C   UNL     1      -1.586   4.767 -32.796  1.00  0.00     0.043 A 
HETATM   19  C   UNL     1      -1.433   5.782 -33.731  1.00  0.00     0.116 A 
HETATM   20  F   UNL     1      -1.726   5.546 -35.016  1.00  0.00    -0.206 F 
HETATM   21  C   UNL     1      -0.984   7.042 -33.352  1.00  0.00     0.043 A 
HETATM   22  C   UNL     1      -0.671   7.288 -32.013  1.00  0.00     0.014 A 
ENDBRANCH  15  16
ENDBRANCH  11  14
ENDBRANCH   5  10
BRANCH   1  23
HETATM   23  C   UNL     1      -2.694  10.282 -25.522  1.00  0.00     0.302 C 
HETATM   24  O   UNL     1      -2.997  10.860 -26.563  1.00  0.00    -0.259 OA
BRANCH  23  25
HETATM   25  O   UNL     1      -3.587   9.901 -24.567  1.00  0.00    -0.322 OA
HETATM   26  C   UNL     1      -4.019   8.541 -24.673  1.00  0.00     0.213 C 
ENDBRANCH  23  25
ENDBRANCH   1  23
BRANCH   7  27
HETATM   27  C   UNL     1       4.232   9.470 -22.646  1.00  0.00     0.294 C 
BRANCH  27  28
HETATM   28  N   UNL     1       5.378   8.476 -22.887  1.00  0.00    -0.061 N 
HETATM   29  H   UNL     1       5.229   8.119 -23.838  1.00  0.00     0.280 HD
HETATM   30  C   UNL     1       6.793   9.077 -22.874  1.00  0.00     0.190 C 
HETATM   31  C   UNL     1       7.786   7.945 -23.210  1.00  0.00     0.033 C 
HETATM   32  C   UNL     1       7.648   6.736 -22.297  1.00  0.00     0.004 C 
HETATM   33  C   UNL     1       6.224   6.207 -22.322  1.00  0.00     0.028 C 
HETATM   34  C   UNL     1       5.241   7.297 -21.940  1.00  0.00     0.235 C 
BRANCH  30  35
HETATM   35  C   UNL     1       6.939  10.183 -23.934  1.00  0.00     0.059 C 
BRANCH  35  36
HETATM   36  C   UNL     1       8.119   9.976 -24.878  1.00  0.00     0.166 C 
BRANCH  36  37
HETATM   37  O   UNL     1       7.618  10.044 -26.205  1.00  0.00    -0.401 OA
HETATM   38  H   UNL     1       6.697  10.360 -26.159  1.00  0.00     0.209 HD
ENDBRANCH  36  37
ENDBRANCH  35  36
ENDBRANCH  30  35
ENDBRANCH  27  28
ENDBRANCH   7  27
TORSDOF 10
ENDMDL
MODEL 10
REMARK VINA RESULT:      -7.8      2.781      3.817
REMARK  10 active torsions:
REMARK  status: ('A' for Active; 'I' for Inactive)
REMARK    1  A    between atoms: O_2  and  C_3 
REMARK    2  A    between atoms: C_3  and  C_4 
REMARK    3  A    between atoms: C_8  and  N_9 
REMARK       I    between atoms: N_9  and  C_10 
REMARK    4  A    between atoms: C_10  and  C_11 
REMARK    5  A    between atoms: C_12  and  C_13 
REMARK    6  A    between atoms: C_22  and  C_23 
REMARK    7  A    between atoms: C_23  and  N_24 
REMARK    8  A    between atoms: C_26  and  C_27 
REMARK    9  A    between atoms: C_27  and  C_28 
REMARK   10  A    between atoms: C_28  and  O_29 
ROOT
HETATM    1  C   UNL     1      -4.725   5.540 -32.867  1.00  0.00     0.110 C 
HETATM    2  S   UNL     1      -4.520   7.093 -32.182  1.00  0.00    -0.061 SA
HETATM    3  C   UNL     1      -4.899   6.535 -30.628  1.00  0.00     0.111 A 
HETATM    4  C   UNL     1      -5.189   5.177 -30.592  1.00  0.00     0.028 A 
HETATM    5  C   UNL     1      -5.183   4.617 -31.927  1.00  0.00     0.071 C 
HETATM    6  N   UNL     1      -4.870   7.393 -29.584  1.00  0.00    -0.243 NA
HETATM    7  C   UNL     1      -5.099   6.836 -28.376  1.00  0.00     0.061 A 
HETATM    8  C   UNL     1      -5.341   5.482 -28.187  1.00  0.00     0.030 A 
HETATM    9  C   UNL     1      -5.387   4.641 -29.298  1.00  0.00     0.019 A 
ENDROOT
BRANCH   5  10
HETATM   10  N   UNL     1      -5.513   3.314 -32.328  1.00  0.00    -0.321 N 
HETATM   11  C   UNL     1      -4.658   2.235 -32.366  1.00  0.00     0.245 C 
HETATM   12  O   UNL     1      -3.496   2.212 -31.980  1.00  0.00    -0.268 OA
HETATM   13  H   UNL     1      -6.512   3.118 -32.406  1.00  0.00     0.169 HD
BRANCH  11  14
HETATM   14  C   UNL     1      -5.324   1.013 -32.895  1.00  0.00     0.075 C 
HETATM   15  C   UNL     1      -4.605  -0.099 -33.105  1.00  0.00     0.017 C 
BRANCH  15  16
HETATM   16  C   UNL     1      -5.178  -1.313 -33.694  1.00  0.00    -0.036 A 
HETATM   17  C   UNL     1      -6.556  -1.350 -33.954  1.00  0.00     0.014 A 
HETATM   18  C   UNL     1      -7.137  -2.491 -34.512  1.00  0.00     0.043 A 
HETATM   19  C   UNL     1      -6.339  -3.584 -34.823  1.00  0.00     0.116 A 
HETATM   20  F   UNL     1      -6.896  -4.678 -35.357  1.00  0.00    -0.206 F 
HETATM   21  C   UNL     1      -4.968  -3.558 -34.591  1.00  0.00     0.043 A 
HETATM   22  C   UNL     1      -4.385  -2.420 -34.028  1.00  0.00     0.014 A 
ENDBRANCH  15  16
ENDBRANCH  11  14
ENDBRANCH   5  10
BRANCH   1  23
HETATM   23  C   UNL     1      -4.482   5.287 -34.280  1.00  0.00     0.302 C 
HETATM   24  O   UNL     1      -5.189   4.556 -34.968  1.00  0.00    -0.259 OA
BRANCH  23  25
HETATM   25  O   UNL     1      -3.373   5.932 -34.735  1.00  0.00    -0.322 OA
HETATM   26  C   UNL     1      -2.168   5.166 -34.651  1.00  0.00     0.213 C 
ENDBRANCH  23  25
ENDBRANCH   1  23
BRANCH   7  27
HETATM   27  C   UNL     1      -5.116   7.779 -27.188  1.00  0.00     0.294 C 
BRANCH  27  28
HETATM   28  N   UNL     1      -3.888   8.687 -27.029  1.00  0.00    -0.061 N 
HETATM   29  H   UNL     1      -3.890   8.972 -26.043  1.00  0.00     0.280 HD
HETATM   30  C   UNL     1      -2.528   8.015 -27.277  1.00  0.00     0.190 C 
HETATM   31  C   UNL     1      -1.429   9.061 -26.993  1.00  0.00     0.033 C 
HETATM   32  C   UNL     1      -1.607  10.346 -27.787  1.00  0.00     0.004 C 
HETATM   33  C   UNL     1      -2.979  10.947 -27.532  1.00  0.00     0.028 C 
HETATM   34  C   UNL     1      -4.071   9.946 -27.858  1.00  0.00     0.235 C 
BRANCH  30  35
HETATM   35  C   UNL     1      -2.316   6.819 -26.331  1.00  0.00     0.059 C 
BRANCH  35  36
HETATM   36  C   UNL     1      -0.878   6.313 -26.294  1.00  0.00     0.166 C 
BRANCH  36  37
HETATM   37  O   UNL     1      -0.585   5.774 -27.575  1.00  0.00    -0.401 OA
HETATM   38  H   UNL     1      -0.077   6.443 -28.070  1.00  0.00     0.209 HD
ENDBRANCH  36  37
ENDBRANCH  35  36
ENDBRANCH  30  35
ENDBRANCH  27  28
ENDBRANCH   7  27
TORSDOF 10
ENDMDL
