MODEL 1
REMARK VINA RESULT:     -10.5      0.000      0.000
REMARK  5 active torsions:
REMARK  status: ('A' for Active; 'I' for Inactive)
REMARK    1  A    between atoms: C_7  and  C_8 
REMARK    2  A    between atoms: C_16  and  C_17 
REMARK    3  A    between atoms: C_19  and  O_20 
REMARK    4  A    between atoms: C_24  and  C_25 
REMARK       I    between atoms: C_25  and  N_26 
REMARK    5  A    between atoms: N_26  and  C_27 
ROOT
HETATM    1  C   UNL     1      -5.324   2.917 -29.808  1.00  0.00     0.070 C 
HETATM    2  C   UNL     1      -6.052   2.229 -30.936  1.00  0.00     0.037 C 
HETATM    3  N   UNL     1      -7.342   1.783 -30.636  1.00  0.00    -0.192 N 
HETATM    4  C   UNL     1      -8.220   1.434 -31.600  1.00  0.00     0.726 A 
HETATM    5  N   UNL     1      -7.761   1.218 -32.866  1.00  0.00    -0.083 N 
HETATM    6  N   UNL     1      -8.766   1.011 -33.736  1.00  0.00    -0.135 NA
HETATM    7  C   UNL     1      -9.835   1.067 -32.917  1.00  0.00     0.199 A 
HETATM    8  N   UNL     1      -9.521   1.316 -31.589  1.00  0.00    -0.041 NA
HETATM    9  C   UNL     1      -6.352   1.308 -33.247  1.00  0.00     0.202 C 
HETATM   10  C   UNL     1      -5.544   2.048 -32.184  1.00  0.00     0.062 C 
HETATM   11  H   UNL     1      -7.727   2.085 -29.744  1.00  0.00     0.184 HD
ENDROOT
BRANCH  10  12
HETATM   12  C   UNL     1      -4.304   2.765 -32.622  1.00  0.00     0.256 C 
HETATM   13  N   UNL     1      -4.503   4.058 -33.054  1.00  0.00    -0.323 N 
HETATM   14  H   UNL     1      -5.450   4.397 -33.154  1.00  0.00     0.169 HD
HETATM   15  O   UNL     1      -3.221   2.199 -32.515  1.00  0.00    -0.267 OA
BRANCH  13  16
HETATM   16  C   UNL     1      -3.512   5.013 -33.373  1.00  0.00     0.035 A 
HETATM   17  C   UNL     1      -2.557   4.851 -34.380  1.00  0.00     0.029 A 
HETATM   18  C   UNL     1      -1.596   5.840 -34.613  1.00  0.00     0.002 A 
HETATM   19  C   UNL     1      -1.576   6.997 -33.840  1.00  0.00     0.000 A 
HETATM   20  C   UNL     1      -2.523   7.171 -32.835  1.00  0.00     0.002 A 
HETATM   21  C   UNL     1      -3.490   6.187 -32.608  1.00  0.00     0.029 A 
ENDBRANCH  13  16
ENDBRANCH  10  12
BRANCH   9  22
HETATM   22  C   UNL     1      -5.829  -0.101 -33.539  1.00  0.00    -0.025 A 
HETATM   23  C   UNL     1      -4.839  -0.710 -32.743  1.00  0.00     0.046 A 
HETATM   24  C   UNL     1      -4.374  -1.984 -33.061  1.00  0.00     0.066 A 
HETATM   25  C   UNL     1      -4.885  -2.679 -34.148  1.00  0.00     0.036 A 
HETATM   26  C   UNL     1      -5.883  -2.101 -34.928  1.00  0.00     0.003 A 
HETATM   27  C   UNL     1      -6.355  -0.821 -34.627  1.00  0.00     0.010 A 
BRANCH  24  28
HETATM   28  O   UNL     1      -3.404  -2.591 -32.320  1.00  0.00    -0.361 OA
HETATM   29  H   UNL     1      -3.800  -3.311 -31.802  1.00  0.00     0.217 HD
ENDBRANCH  24  28
ENDBRANCH   9  22
BRANCH   7  30
HETATM   30  C   UNL     1     -11.214   0.935 -33.382  1.00  0.00     0.014 A 
HETATM   31  C   UNL     1     -11.886   2.023 -33.961  1.00  0.00     0.017 A 
HETATM   32  C   UNL     1     -13.213   1.900 -34.383  1.00  0.00     0.025 A 
HETATM   33  C   UNL     1     -13.878   0.686 -34.227  1.00  0.00     0.034 A 
HETATM   34 CL   UNL     1     -15.514   0.536 -34.737  1.00  0.00    -0.084 Cl
HETATM   35  C   UNL     1     -13.227  -0.405 -33.657  1.00  0.00     0.025 A 
HETATM   36  C   UNL     1     -11.898  -0.281 -33.238  1.00  0.00     0.017 A 
ENDBRANCH   7  30
TORSDOF 5
ENDMDL
MODEL 2
REMARK VINA RESULT:      -9.5      4.316      7.713
REMARK  5 active torsions:
REMARK  status: ('A' for Active; 'I' for Inactive)
REMARK    1  A    between atoms: C_7  and  C_8 
REMARK    2  A    between atoms: C_16  and  C_17 
REMARK    3  A    between atoms: C_19  and  O_20 
REMARK    4  A    between atoms: C_24  and  C_25 
REMARK       I    between atoms: C_25  and  N_26 
REMARK    5  A    between atoms: N_26  and  C_27 
ROOT
HETATM    1  C   UNL     1     -13.008   1.819 -33.478  1.00  0.00     0.070 C 
HETATM    2  C   UNL     1     -11.504   1.806 -33.601  1.00  0.00     0.037 C 
HETATM    3  N   UNL     1     -10.861   0.710 -33.020  1.00  0.00    -0.192 N 
HETATM    4  C   UNL     1      -9.579   0.399 -33.305  1.00  0.00     0.726 A 
HETATM    5  N   UNL     1      -8.797   1.327 -33.926  1.00  0.00    -0.083 N 
HETATM    6  N   UNL     1      -7.593   0.825 -34.261  1.00  0.00    -0.135 NA
HETATM    7  C   UNL     1      -7.686  -0.425 -33.766  1.00  0.00     0.199 A 
HETATM    8  N   UNL     1      -8.900  -0.708 -33.159  1.00  0.00    -0.041 NA
HETATM    9  C   UNL     1      -9.252   2.670 -34.280  1.00  0.00     0.202 C 
HETATM   10  C   UNL     1     -10.776   2.760 -34.241  1.00  0.00     0.062 C 
HETATM   11  H   UNL     1     -11.463  -0.045 -32.698  1.00  0.00     0.184 HD
ENDROOT
BRANCH  10  12
HETATM   12  C   UNL     1     -11.439   3.776 -35.118  1.00  0.00     0.256 C 
HETATM   13  N   UNL     1     -11.412   5.066 -34.634  1.00  0.00    -0.323 N 
HETATM   14  H   UNL     1     -11.060   5.228 -33.700  1.00  0.00     0.169 HD
HETATM   15  O   UNL     1     -11.894   3.421 -36.200  1.00  0.00    -0.267 OA
BRANCH  13  16
HETATM   16  C   UNL     1     -11.815   6.240 -35.310  1.00  0.00     0.035 A 
HETATM   17  C   UNL     1     -13.144   6.584 -35.566  1.00  0.00     0.029 A 
HETATM   18  C   UNL     1     -13.453   7.756 -36.263  1.00  0.00     0.002 A 
HETATM   19  C   UNL     1     -12.437   8.593 -36.716  1.00  0.00     0.000 A 
HETATM   20  C   UNL     1     -11.108   8.262 -36.465  1.00  0.00     0.002 A 
HETATM   21  C   UNL     1     -10.800   7.095 -35.759  1.00  0.00     0.029 A 
ENDBRANCH  13  16
ENDBRANCH  10  12
BRANCH   9  22
HETATM   22  C   UNL     1      -8.558   3.683 -33.365  1.00  0.00    -0.025 A 
HETATM   23  C   UNL     1      -7.581   4.578 -33.847  1.00  0.00     0.046 A 
HETATM   24  C   UNL     1      -6.957   5.466 -32.974  1.00  0.00     0.066 A 
HETATM   25  C   UNL     1      -7.296   5.500 -31.628  1.00  0.00     0.036 A 
HETATM   26  C   UNL     1      -8.279   4.641 -31.143  1.00  0.00     0.003 A 
HETATM   27  C   UNL     1      -8.908   3.740 -32.004  1.00  0.00     0.010 A 
BRANCH  24  28
HETATM   28  O   UNL     1      -5.996   6.329 -33.407  1.00  0.00    -0.361 OA
HETATM   29  H   UNL     1      -6.418   7.138 -33.741  1.00  0.00     0.217 HD
ENDBRANCH  24  28
ENDBRANCH   9  22
BRANCH   7  30
HETATM   30  C   UNL     1      -6.628  -1.424 -33.898  1.00  0.00     0.014 A 
HETATM   31  C   UNL     1      -6.869  -2.646 -34.545  1.00  0.00     0.017 A 
HETATM   32  C   UNL     1      -5.861  -3.610 -34.649  1.00  0.00     0.025 A 
HETATM   33  C   UNL     1      -4.604  -3.356 -34.105  1.00  0.00     0.034 A 
HETATM   34 CL   UNL     1      -3.366  -4.545 -34.223  1.00  0.00    -0.084 Cl
HETATM   35  C   UNL     1      -4.346  -2.149 -33.461  1.00  0.00     0.025 A 
HETATM   36  C   UNL     1      -5.355  -1.185 -33.360  1.00  0.00     0.017 A 
ENDBRANCH   7  30
TORSDOF 5
ENDMDL
MODEL 3
REMARK VINA RESULT:      -9.4      4.396      7.824
REMARK  5 active torsions:
REMARK  status: ('A' for Active; 'I' for Inactive)
REMARK    1  A    between atoms: C_7  and  C_8 
REMARK    2  A    between atoms: C_16  and  C_17 
REMARK    3  A    between atoms: C_19  and  O_20 
REMARK    4  A    between atoms: C_24  and  C_25 
REMARK       I    between atoms: C_25  and  N_26 
REMARK    5  A    between atoms: N_26  and  C_27 
ROOT
HETATM    1  C   UNL     1      -8.125   5.738 -33.082  1.00  0.00     0.070 C 
HETATM    2  C   UNL     1      -8.375   4.250 -33.119  1.00  0.00     0.037 C 
HETATM    3  N   UNL     1      -7.521   3.516 -33.947  1.00  0.00    -0.192 N 
HETATM    4  C   UNL     1      -7.415   2.174 -33.854  1.00  0.00     0.726 A 
HETATM    5  N   UNL     1      -8.366   1.482 -33.164  1.00  0.00    -0.083 N 
HETATM    6  N   UNL     1      -8.053   0.178 -33.049  1.00  0.00    -0.135 NA
HETATM    7  C   UNL     1      -6.899   0.125 -33.743  1.00  0.00     0.199 A 
HETATM    8  N   UNL     1      -6.491   1.345 -34.261  1.00  0.00    -0.041 NA
HETATM    9  C   UNL     1      -9.530   2.104 -32.536  1.00  0.00     0.202 C 
HETATM   10  C   UNL     1      -9.338   3.613 -32.401  1.00  0.00     0.062 C 
HETATM   11  H   UNL     1      -6.725   4.020 -34.331  1.00  0.00     0.184 HD
ENDROOT
BRANCH  10  12
HETATM   12  C   UNL     1     -10.066   4.314 -31.296  1.00  0.00     0.256 C 
HETATM   13  N   UNL     1     -11.211   4.975 -31.683  1.00  0.00    -0.323 N 
HETATM   14  H   UNL     1     -11.425   5.041 -32.670  1.00  0.00     0.169 HD
HETATM   15  O   UNL     1      -9.647   4.210 -30.148  1.00  0.00    -0.267 OA
BRANCH  13  16
HETATM   16  C   UNL     1     -12.171   5.583 -30.844  1.00  0.00     0.035 A 
HETATM   17  C   UNL     1     -13.330   4.951 -30.386  1.00  0.00     0.029 A 
HETATM   18  C   UNL     1     -14.240   5.636 -29.575  1.00  0.00     0.002 A 
HETATM   19  C   UNL     1     -14.005   6.962 -29.219  1.00  0.00     0.000 A 
HETATM   20  C   UNL     1     -12.853   7.602 -29.668  1.00  0.00     0.002 A 
HETATM   21  C   UNL     1     -11.938   6.914 -30.470  1.00  0.00     0.029 A 
ENDBRANCH  13  16
ENDBRANCH  10  12
BRANCH   9  22
HETATM   22  C   UNL     1     -10.783   1.717 -33.326  1.00  0.00    -0.025 A 
HETATM   23  C   UNL     1     -11.518   0.550 -33.036  1.00  0.00     0.046 A 
HETATM   24  C   UNL     1     -12.638   0.224 -33.797  1.00  0.00     0.066 A 
HETATM   25  C   UNL     1     -13.059   1.044 -34.835  1.00  0.00     0.036 A 
HETATM   26  C   UNL     1     -12.359   2.214 -35.116  1.00  0.00     0.003 A 
HETATM   27  C   UNL     1     -11.230   2.552 -34.366  1.00  0.00     0.010 A 
BRANCH  24  28
HETATM   28  O   UNL     1     -13.357  -0.908 -33.552  1.00  0.00    -0.361 OA
HETATM   29  H   UNL     1     -12.913  -1.666 -33.967  1.00  0.00     0.217 HD
ENDBRANCH  24  28
ENDBRANCH   9  22
BRANCH   7  30
HETATM   30  C   UNL     1      -6.107  -1.093 -33.897  1.00  0.00     0.014 A 
HETATM   31  C   UNL     1      -6.611  -2.194 -34.607  1.00  0.00     0.017 A 
HETATM   32  C   UNL     1      -5.861  -3.367 -34.732  1.00  0.00     0.025 A 
HETATM   33  C   UNL     1      -4.600  -3.447 -34.145  1.00  0.00     0.034 A 
HETATM   34 CL   UNL     1      -3.680  -4.893 -34.290  1.00  0.00    -0.084 Cl
HETATM   35  C   UNL     1      -4.083  -2.364 -33.438  1.00  0.00     0.025 A 
HETATM   36  C   UNL     1      -4.834  -1.190 -33.316  1.00  0.00     0.017 A 
ENDBRANCH   7  30
TORSDOF 5
ENDMDL
MODEL 4
REMARK VINA RESULT:      -9.4      4.254      7.250
REMARK  5 active torsions:
REMARK  status: ('A' for Active; 'I' for Inactive)
REMARK    1  A    between atoms: C_7  and  C_8 
REMARK    2  A    between atoms: C_16  and  C_17 
REMARK    3  A    between atoms: C_19  and  O_20 
REMARK    4  A    between atoms: C_24  and  C_25 
REMARK       I    between atoms: C_25  and  N_26 
REMARK    5  A    between atoms: N_26  and  C_27 
ROOT
HETATM    1  C   UNL     1      -2.359   7.810 -32.443  1.00  0.00     0.070 C 
HETATM    2  C   UNL     1      -3.325   6.735 -32.007  1.00  0.00     0.037 C 
HETATM    3  N   UNL     1      -3.886   5.976 -33.039  1.00  0.00    -0.192 N 
HETATM    4  C   UNL     1      -4.513   4.805 -32.804  1.00  0.00     0.726 A 
HETATM    5  N   UNL     1      -4.880   4.495 -31.528  1.00  0.00    -0.083 N 
HETATM    6  N   UNL     1      -5.371   3.245 -31.436  1.00  0.00    -0.135 NA
HETATM    7  C   UNL     1      -5.320   2.851 -32.723  1.00  0.00     0.199 A 
HETATM    8  N   UNL     1      -4.805   3.803 -33.590  1.00  0.00    -0.041 NA
HETATM    9  C   UNL     1      -4.665   5.378 -30.382  1.00  0.00     0.202 C 
HETATM   10  C   UNL     1      -3.648   6.467 -30.714  1.00  0.00     0.062 C 
HETATM   11  H   UNL     1      -3.489   6.115 -33.965  1.00  0.00     0.184 HD
ENDROOT
BRANCH  10  12
HETATM   12  C   UNL     1      -2.855   7.051 -29.585  1.00  0.00     0.256 C 
HETATM   13  N   UNL     1      -1.635   6.451 -29.363  1.00  0.00    -0.323 N 
HETATM   14  H   UNL     1      -1.404   5.613 -29.879  1.00  0.00     0.169 HD
HETATM   15  O   UNL     1      -3.297   8.029 -28.992  1.00  0.00    -0.267 OA
BRANCH  13  16
HETATM   16  C   UNL     1      -0.619   6.884 -28.481  1.00  0.00     0.035 A 
HETATM   17  C   UNL     1      -0.508   6.478 -27.149  1.00  0.00     0.029 A 
HETATM   18  C   UNL     1       0.518   6.975 -26.339  1.00  0.00     0.002 A 
HETATM   19  C   UNL     1       1.438   7.887 -26.849  1.00  0.00     0.000 A 
HETATM   20  C   UNL     1       1.338   8.297 -28.176  1.00  0.00     0.002 A 
HETATM   21  C   UNL     1       0.319   7.793 -28.989  1.00  0.00     0.029 A 
ENDBRANCH  13  16
ENDBRANCH  10  12
BRANCH   9  22
HETATM   22  C   UNL     1      -6.018   5.927 -29.921  1.00  0.00    -0.025 A 
HETATM   23  C   UNL     1      -6.749   6.854 -30.690  1.00  0.00     0.046 A 
HETATM   24  C   UNL     1      -7.965   7.346 -30.220  1.00  0.00     0.066 A 
HETATM   25  C   UNL     1      -8.483   6.922 -29.004  1.00  0.00     0.036 A 
HETATM   26  C   UNL     1      -7.785   5.986 -28.246  1.00  0.00     0.003 A 
HETATM   27  C   UNL     1      -6.562   5.489 -28.701  1.00  0.00     0.010 A 
BRANCH  24  28
HETATM   28  O   UNL     1      -8.685   8.258 -30.933  1.00  0.00    -0.361 OA
HETATM   29  H   UNL     1      -8.138   9.045 -31.091  1.00  0.00     0.217 HD
ENDBRANCH  24  28
ENDBRANCH   9  22
BRANCH   7  30
HETATM   30  C   UNL     1      -5.719   1.519 -33.173  1.00  0.00     0.014 A 
HETATM   31  C   UNL     1      -5.241   0.368 -32.527  1.00  0.00     0.017 A 
HETATM   32  C   UNL     1      -5.605  -0.906 -32.975  1.00  0.00     0.025 A 
HETATM   33  C   UNL     1      -6.450  -1.035 -34.076  1.00  0.00     0.034 A 
HETATM   34 CL   UNL     1      -6.890  -2.602 -34.635  1.00  0.00    -0.084 Cl
HETATM   35  C   UNL     1      -6.935   0.095 -34.728  1.00  0.00     0.025 A 
HETATM   36  C   UNL     1      -6.572   1.368 -34.277  1.00  0.00     0.017 A 
ENDBRANCH   7  30
TORSDOF 5
ENDMDL
MODEL 5
REMARK VINA RESULT:      -9.3      4.650      7.380
REMARK  5 active torsions:
REMARK  status: ('A' for Active; 'I' for Inactive)
REMARK    1  A    between atoms: C_7  and  C_8 
REMARK    2  A    between atoms: C_16  and  C_17 
REMARK    3  A    between atoms: C_19  and  O_20 
REMARK    4  A    between atoms: C_24  and  C_25 
REMARK       I    between atoms: C_25  and  N_26 
REMARK    5  A    between atoms: N_26  and  C_27 
ROOT
HETATM    1  C   UNL     1      -8.175   3.334 -30.719  1.00  0.00     0.070 C 
HETATM    2  C   UNL     1      -9.132   3.524 -31.870  1.00  0.00     0.037 C 
HETATM    3  N   UNL     1      -9.585   4.832 -32.065  1.00  0.00    -0.192 N 
HETATM    4  C   UNL     1     -10.186   5.215 -33.211  1.00  0.00     0.726 A 
HETATM    5  N   UNL     1     -10.636   4.261 -34.074  1.00  0.00    -0.083 N 
HETATM    6  N   UNL     1     -11.088   4.795 -35.224  1.00  0.00    -0.135 NA
HETATM    7  C   UNL     1     -10.926   6.111 -34.979  1.00  0.00     0.199 A 
HETATM    8  N   UNL     1     -10.382   6.396 -33.736  1.00  0.00    -0.041 NA
HETATM    9  C   UNL     1     -10.540   2.824 -33.820  1.00  0.00     0.202 C 
HETATM   10  C   UNL     1      -9.541   2.531 -32.703  1.00  0.00     0.062 C 
HETATM   11  H   UNL     1      -9.125   5.554 -31.516  1.00  0.00     0.184 HD
ENDROOT
BRANCH  10  12
HETATM   12  C   UNL     1      -8.857   1.199 -32.709  1.00  0.00     0.256 C 
HETATM   13  N   UNL     1      -7.789   1.099 -33.573  1.00  0.00    -0.323 N 
HETATM   14  H   UNL     1      -7.606   1.863 -34.210  1.00  0.00     0.169 HD
HETATM   15  O   UNL     1      -9.237   0.332 -31.929  1.00  0.00    -0.267 OA
BRANCH  13  16
HETATM   16  C   UNL     1      -6.870   0.030 -33.676  1.00  0.00     0.035 A 
HETATM   17  C   UNL     1      -5.650  -0.027 -32.999  1.00  0.00     0.029 A 
HETATM   18  C   UNL     1      -4.789  -1.114 -33.177  1.00  0.00     0.002 A 
HETATM   19  C   UNL     1      -5.136  -2.153 -34.037  1.00  0.00     0.000 A 
HETATM   20  C   UNL     1      -6.351  -2.108 -34.715  1.00  0.00     0.002 A 
HETATM   21  C   UNL     1      -7.216  -1.026 -34.530  1.00  0.00     0.029 A 
ENDBRANCH  13  16
ENDBRANCH  10  12
BRANCH   9  22
HETATM   22  C   UNL     1     -11.943   2.277 -33.542  1.00  0.00    -0.025 A 
HETATM   23  C   UNL     1     -12.302   0.949 -33.851  1.00  0.00     0.046 A 
HETATM   24  C   UNL     1     -13.597   0.501 -33.604  1.00  0.00     0.066 A 
HETATM   25  C   UNL     1     -14.547   1.340 -33.037  1.00  0.00     0.036 A 
HETATM   26  C   UNL     1     -14.200   2.646 -32.702  1.00  0.00     0.003 A 
HETATM   27  C   UNL     1     -12.906   3.113 -32.950  1.00  0.00     0.010 A 
BRANCH  24  28
HETATM   28  O   UNL     1     -13.978  -0.771 -33.910  1.00  0.00    -0.361 OA
HETATM   29  H   UNL     1     -14.613  -0.748 -34.645  1.00  0.00     0.217 HD
ENDBRANCH  24  28
ENDBRANCH   9  22
BRANCH   7  30
HETATM   30  C   UNL     1     -11.242   7.155 -35.952  1.00  0.00     0.014 A 
HETATM   31  C   UNL     1     -12.574   7.497 -36.234  1.00  0.00     0.017 A 
HETATM   32  C   UNL     1     -12.873   8.480 -37.182  1.00  0.00     0.025 A 
HETATM   33  C   UNL     1     -11.840   9.126 -37.857  1.00  0.00     0.034 A 
HETATM   34 CL   UNL     1     -12.206  10.327 -39.032  1.00  0.00    -0.084 Cl
HETATM   35  C   UNL     1     -10.512   8.800 -37.590  1.00  0.00     0.025 A 
HETATM   36  C   UNL     1     -10.215   7.819 -36.638  1.00  0.00     0.017 A 
ENDBRANCH   7  30
TORSDOF 5
ENDMDL
MODEL 6
REMARK VINA RESULT:      -9.3      3.942      8.647
REMARK  5 active torsions:
REMARK  status: ('A' for Active; 'I' for Inactive)
REMARK    1  A    between atoms: C_7  and  C_8 
REMARK    2  A    between atoms: C_16  and  C_17 
REMARK    3  A    between atoms: C_19  and  O_20 
REMARK    4  A    between atoms: C_24  and  C_25 
REMARK       I    between atoms: C_25  and  N_26 
REMARK    5  A    between atoms: N_26  and  C_27 
ROOT
HETATM    1  C   UNL     1      -9.800   5.335 -34.737  1.00  0.00     0.070 C 
HETATM    2  C   UNL     1      -8.649   4.674 -34.020  1.00  0.00     0.037 C 
HETATM    3  N   UNL     1      -7.409   5.305 -34.161  1.00  0.00    -0.192 N 
HETATM    4  C   UNL     1      -6.368   5.023 -33.351  1.00  0.00     0.726 A 
HETATM    5  N   UNL     1      -6.414   3.899 -32.581  1.00  0.00    -0.083 N 
HETATM    6  N   UNL     1      -5.370   3.826 -31.735  1.00  0.00    -0.135 NA
HETATM    7  C   UNL     1      -4.682   4.934 -32.075  1.00  0.00     0.199 A 
HETATM    8  N   UNL     1      -5.273   5.684 -33.081  1.00  0.00    -0.041 NA
HETATM    9  C   UNL     1      -7.521   2.944 -32.600  1.00  0.00     0.202 C 
HETATM   10  C   UNL     1      -8.757   3.553 -33.258  1.00  0.00     0.062 C 
HETATM   11  H   UNL     1      -7.419   6.220 -34.606  1.00  0.00     0.184 HD
ENDROOT
BRANCH  10  12
HETATM   12  C   UNL     1     -10.099   3.028 -32.847  1.00  0.00     0.256 C 
HETATM   13  N   UNL     1     -10.827   2.444 -33.859  1.00  0.00    -0.323 N 
HETATM   14  H   UNL     1     -10.478   2.501 -34.806  1.00  0.00     0.169 HD
HETATM   15  O   UNL     1     -10.426   3.094 -31.667  1.00  0.00    -0.267 OA
BRANCH  13  16
HETATM   16  C   UNL     1     -12.042   1.732 -33.735  1.00  0.00     0.035 A 
HETATM   17  C   UNL     1     -12.135   0.340 -33.668  1.00  0.00     0.029 A 
HETATM   18  C   UNL     1     -13.382  -0.285 -33.569  1.00  0.00     0.002 A 
HETATM   19  C   UNL     1     -14.549   0.475 -33.543  1.00  0.00     0.000 A 
HETATM   20  C   UNL     1     -14.468   1.863 -33.608  1.00  0.00     0.002 A 
HETATM   21  C   UNL     1     -13.221   2.488 -33.697  1.00  0.00     0.029 A 
ENDBRANCH  13  16
ENDBRANCH  10  12
BRANCH   9  22
HETATM   22  C   UNL     1      -7.048   1.652 -33.271  1.00  0.00    -0.025 A 
HETATM   23  C   UNL     1      -6.250   0.709 -32.594  1.00  0.00     0.046 A 
HETATM   24  C   UNL     1      -5.820  -0.442 -33.251  1.00  0.00     0.066 A 
HETATM   25  C   UNL     1      -6.182  -0.688 -34.568  1.00  0.00     0.036 A 
HETATM   26  C   UNL     1      -6.993   0.222 -35.242  1.00  0.00     0.003 A 
HETATM   27  C   UNL     1      -7.426   1.384 -34.599  1.00  0.00     0.010 A 
BRANCH  24  28
HETATM   28  O   UNL     1      -5.032  -1.363 -32.628  1.00  0.00    -0.361 OA
HETATM   29  H   UNL     1      -4.863  -2.103 -33.235  1.00  0.00     0.217 HD
ENDBRANCH  24  28
ENDBRANCH   9  22
BRANCH   7  30
HETATM   30  C   UNL     1      -3.449   5.351 -31.412  1.00  0.00     0.014 A 
HETATM   31  C   UNL     1      -3.442   6.434 -30.518  1.00  0.00     0.017 A 
HETATM   32  C   UNL     1      -2.255   6.845 -29.904  1.00  0.00     0.025 A 
HETATM   33  C   UNL     1      -1.065   6.177 -30.182  1.00  0.00     0.034 A 
HETATM   34 CL   UNL     1       0.397   6.689 -29.436  1.00  0.00    -0.084 Cl
HETATM   35  C   UNL     1      -1.052   5.100 -31.065  1.00  0.00     0.025 A 
HETATM   36  C   UNL     1      -2.242   4.688 -31.676  1.00  0.00     0.017 A 
ENDBRANCH   7  30
TORSDOF 5
ENDMDL
MODEL 7
REMARK VINA RESULT:      -9.3      3.830      7.049
REMARK  5 active torsions:
REMARK  status: ('A' for Active; 'I' for Inactive)
REMARK    1  A    between atoms: C_7  and  C_8 
REMARK    2  A    between atoms: C_16  and  C_17 
REMARK    3  A    between atoms: C_19  and  O_20 
REMARK    4  A    between atoms: C_24  and  C_25 
REMARK       I    between atoms: C_25  and  N_26 
REMARK    5  A    between atoms: N_26  and  C_27 
ROOT
HETATM    1  C   UNL     1     -10.097   4.121 -30.749  1.00  0.00     0.070 C 
HETATM    2  C   UNL     1      -8.991   3.571 -31.615  1.00  0.00     0.037 C 
HETATM    3  N   UNL     1      -8.484   2.328 -31.226  1.00  0.00    -0.192 N 
HETATM    4  C   UNL     1      -7.727   1.575 -32.052  1.00  0.00     0.726 A 
HETATM    5  N   UNL     1      -7.188   2.151 -33.164  1.00  0.00    -0.083 N 
HETATM    6  N   UNL     1      -6.575   1.247 -33.951  1.00  0.00    -0.135 NA
HETATM    7  C   UNL     1      -6.736   0.122 -33.228  1.00  0.00     0.199 A 
HETATM    8  N   UNL     1      -7.435   0.302 -32.043  1.00  0.00    -0.041 NA
HETATM    9  C   UNL     1      -7.351   3.562 -33.509  1.00  0.00     0.202 C 
HETATM   10  C   UNL     1      -8.497   4.190 -32.720  1.00  0.00     0.062 C 
HETATM   11  H   UNL     1      -8.996   1.843 -30.493  1.00  0.00     0.184 HD
ENDROOT
BRANCH  10  12
HETATM   12  C   UNL     1      -9.205   5.362 -33.328  1.00  0.00     0.256 C 
HETATM   13  N   UNL     1     -10.036   5.053 -34.383  1.00  0.00    -0.323 N 
HETATM   14  H   UNL     1     -10.033   4.109 -34.745  1.00  0.00     0.169 HD
HETATM   15  O   UNL     1      -9.055   6.472 -32.829  1.00  0.00    -0.267 OA
BRANCH  13  16
HETATM   16  C   UNL     1     -10.939   5.919 -35.040  1.00  0.00     0.035 A 
HETATM   17  C   UNL     1     -10.560   7.069 -35.737  1.00  0.00     0.029 A 
HETATM   18  C   UNL     1     -11.524   7.883 -36.340  1.00  0.00     0.002 A 
HETATM   19  C   UNL     1     -12.876   7.560 -36.247  1.00  0.00     0.000 A 
HETATM   20  C   UNL     1     -13.264   6.416 -35.556  1.00  0.00     0.002 A 
HETATM   21  C   UNL     1     -12.300   5.596 -34.962  1.00  0.00     0.029 A 
ENDBRANCH  13  16
ENDBRANCH  10  12
BRANCH   9  22
HETATM   22  C   UNL     1      -6.011   4.277 -33.312  1.00  0.00    -0.025 A 
HETATM   23  C   UNL     1      -5.264   4.776 -34.398  1.00  0.00     0.046 A 
HETATM   24  C   UNL     1      -4.038   5.398 -34.174  1.00  0.00     0.066 A 
HETATM   25  C   UNL     1      -3.540   5.552 -32.887  1.00  0.00     0.036 A 
HETATM   26  C   UNL     1      -4.280   5.088 -31.803  1.00  0.00     0.003 A 
HETATM   27  C   UNL     1      -5.508   4.456 -32.011  1.00  0.00     0.010 A 
BRANCH  24  28
HETATM   28  O   UNL     1      -3.285   5.873 -35.206  1.00  0.00    -0.361 OA
HETATM   29  H   UNL     1      -2.343   5.758 -34.995  1.00  0.00     0.217 HD
ENDBRANCH  24  28
ENDBRANCH   9  22
BRANCH   7  30
HETATM   30  C   UNL     1      -6.269  -1.191 -33.667  1.00  0.00     0.014 A 
HETATM   31  C   UNL     1      -4.918  -1.554 -33.542  1.00  0.00     0.017 A 
HETATM   32  C   UNL     1      -4.470  -2.802 -33.986  1.00  0.00     0.025 A 
HETATM   33  C   UNL     1      -5.371  -3.695 -34.560  1.00  0.00     0.034 A 
HETATM   34 CL   UNL     1      -4.819  -5.227 -35.116  1.00  0.00    -0.084 Cl
HETATM   35  C   UNL     1      -6.715  -3.354 -34.691  1.00  0.00     0.025 A 
HETATM   36  C   UNL     1      -7.162  -2.106 -34.244  1.00  0.00     0.017 A 
ENDBRANCH   7  30
TORSDOF 5
ENDMDL
MODEL 8
REMARK VINA RESULT:      -9.2      3.915      6.398
REMARK  5 active torsions:
REMARK  status: ('A' for Active; 'I' for Inactive)
REMARK    1  A    between atoms: C_7  and  C_8 
REMARK    2  A    between atoms: C_16  and  C_17 
REMARK    3  A    between atoms: C_19  and  O_20 
REMARK    4  A    between atoms: C_24  and  C_25 
REMARK       I    between atoms: C_25  and  N_26 
REMARK    5  A    between atoms: N_26  and  C_27 
ROOT
HETATM    1  C   UNL     1      -5.928   4.898 -28.529  1.00  0.00     0.070 C 
HETATM    2  C   UNL     1      -5.597   4.290 -29.869  1.00  0.00     0.037 C 
HETATM    3  N   UNL     1      -5.314   2.921 -29.855  1.00  0.00    -0.192 N 
HETATM    4  C   UNL     1      -5.303   2.182 -30.985  1.00  0.00     0.726 A 
HETATM    5  N   UNL     1      -5.265   2.818 -32.191  1.00  0.00    -0.083 N 
HETATM    6  N   UNL     1      -5.393   1.956 -33.217  1.00  0.00    -0.135 NA
HETATM    7  C   UNL     1      -5.461   0.780 -32.562  1.00  0.00     0.199 A 
HETATM    8  N   UNL     1      -5.395   0.894 -31.181  1.00  0.00    -0.041 NA
HETATM    9  C   UNL     1      -5.199   4.270 -32.343  1.00  0.00     0.202 C 
HETATM   10  C   UNL     1      -5.581   4.975 -31.044  1.00  0.00     0.062 C 
HETATM   11  H   UNL     1      -5.496   2.433 -28.982  1.00  0.00     0.184 HD
ENDROOT
BRANCH  10  12
HETATM   12  C   UNL     1      -6.160   6.353 -31.139  1.00  0.00     0.256 C 
HETATM   13  N   UNL     1      -7.532   6.399 -31.258  1.00  0.00    -0.323 N 
HETATM   14  H   UNL     1      -8.038   5.532 -31.382  1.00  0.00     0.169 HD
HETATM   15  O   UNL     1      -5.411   7.320 -31.048  1.00  0.00    -0.267 OA
BRANCH  13  16
HETATM   16  C   UNL     1      -8.355   7.546 -31.210  1.00  0.00     0.035 A 
HETATM   17  C   UNL     1      -8.835   8.218 -32.336  1.00  0.00     0.029 A 
HETATM   18  C   UNL     1      -9.627   9.362 -32.197  1.00  0.00     0.002 A 
HETATM   19  C   UNL     1      -9.942   9.850 -30.932  1.00  0.00     0.000 A 
HETATM   20  C   UNL     1      -9.471   9.187 -29.801  1.00  0.00     0.002 A 
HETATM   21  C   UNL     1      -8.687   8.038 -29.940  1.00  0.00     0.029 A 
ENDBRANCH  13  16
ENDBRANCH  10  12
BRANCH   9  22
HETATM   22  C   UNL     1      -3.808   4.650 -32.857  1.00  0.00    -0.025 A 
HETATM   23  C   UNL     1      -2.662   4.571 -32.039  1.00  0.00     0.046 A 
HETATM   24  C   UNL     1      -1.420   4.951 -32.541  1.00  0.00     0.066 A 
HETATM   25  C   UNL     1      -1.284   5.394 -33.849  1.00  0.00     0.036 A 
HETATM   26  C   UNL     1      -2.402   5.453 -34.677  1.00  0.00     0.003 A 
HETATM   27  C   UNL     1      -3.656   5.082 -34.187  1.00  0.00     0.010 A 
BRANCH  24  28
HETATM   28  O   UNL     1      -0.298   4.903 -31.768  1.00  0.00    -0.361 OA
HETATM   29  H   UNL     1       0.420   5.381 -32.216  1.00  0.00     0.217 HD
ENDBRANCH  24  28
ENDBRANCH   9  22
BRANCH   7  30
HETATM   30  C   UNL     1      -5.644  -0.505 -33.232  1.00  0.00     0.014 A 
HETATM   31  C   UNL     1      -4.546  -1.337 -33.506  1.00  0.00     0.017 A 
HETATM   32  C   UNL     1      -4.722  -2.555 -34.169  1.00  0.00     0.025 A 
HETATM   33  C   UNL     1      -5.998  -2.949 -34.564  1.00  0.00     0.034 A 
HETATM   34 CL   UNL     1      -6.214  -4.443 -35.389  1.00  0.00    -0.084 Cl
HETATM   35  C   UNL     1      -7.099  -2.138 -34.300  1.00  0.00     0.025 A 
HETATM   36  C   UNL     1      -6.921  -0.921 -33.634  1.00  0.00     0.017 A 
ENDBRANCH   7  30
TORSDOF 5
ENDMDL
MODEL 9
REMARK VINA RESULT:      -9.1      3.815      6.066
REMARK  5 active torsions:
REMARK  status: ('A' for Active; 'I' for Inactive)
REMARK    1  A    between atoms: C_7  and  C_8 
REMARK    2  A    between atoms: C_16  and  C_17 
REMARK    3  A    between atoms: C_19  and  O_20 
REMARK    4  A    between atoms: C_24  and  C_25 
REMARK       I    between atoms: C_25  and  N_26 
REMARK    5  A    between atoms: N_26  and  C_27 
ROOT
HETATM    1  C   UNL     1      -7.012   4.827 -28.681  1.00  0.00     0.070 C 
HETATM    2  C   UNL     1      -6.405   4.218 -29.921  1.00  0.00     0.037 C 
HETATM    3  N   UNL     1      -6.192   2.838 -29.871  1.00  0.00    -0.192 N 
HETATM    4  C   UNL     1      -5.951   2.112 -30.983  1.00  0.00     0.726 A 
HETATM    5  N   UNL     1      -5.606   2.758 -32.133  1.00  0.00    -0.083 N 
HETATM    6  N   UNL     1      -5.530   1.914 -33.179  1.00  0.00    -0.135 NA
HETATM    7  C   UNL     1      -5.799   0.736 -32.583  1.00  0.00     0.199 A 
HETATM    8  N   UNL     1      -6.050   0.831 -31.223  1.00  0.00    -0.041 NA
HETATM    9  C   UNL     1      -5.444   4.207 -32.235  1.00  0.00     0.202 C 
HETATM   10  C   UNL     1      -6.087   4.915 -31.044  1.00  0.00     0.062 C 
HETATM   11  H   UNL     1      -6.593   2.349 -29.074  1.00  0.00     0.184 HD
ENDROOT
BRANCH  10  12
HETATM   12  C   UNL     1      -6.568   6.319 -31.242  1.00  0.00     0.256 C 
HETATM   13  N   UNL     1      -5.983   7.254 -30.416  1.00  0.00    -0.323 N 
HETATM   14  H   UNL     1      -5.370   6.935 -29.678  1.00  0.00     0.169 HD
HETATM   15  O   UNL     1      -7.377   6.551 -32.134  1.00  0.00    -0.267 OA
BRANCH  13  16
HETATM   16  C   UNL     1      -6.122   8.659 -30.483  1.00  0.00     0.035 A 
HETATM   17  C   UNL     1      -5.197   9.514 -31.086  1.00  0.00     0.029 A 
HETATM   18  C   UNL     1      -5.404  10.897 -31.086  1.00  0.00     0.002 A 
HETATM   19  C   UNL     1      -6.533  11.440 -30.479  1.00  0.00     0.000 A 
HETATM   20  C   UNL     1      -7.463  10.597 -29.877  1.00  0.00     0.002 A 
HETATM   21  C   UNL     1      -7.262   9.214 -29.885  1.00  0.00     0.029 A 
ENDBRANCH  13  16
ENDBRANCH  10  12
BRANCH   9  22
HETATM   22  C   UNL     1      -3.957   4.527 -32.404  1.00  0.00    -0.025 A 
HETATM   23  C   UNL     1      -3.031   4.350 -31.357  1.00  0.00     0.046 A 
HETATM   24  C   UNL     1      -1.690   4.678 -31.548  1.00  0.00     0.066 A 
HETATM   25  C   UNL     1      -1.242   5.165 -32.768  1.00  0.00     0.036 A 
HETATM   26  C   UNL     1      -2.140   5.320 -33.820  1.00  0.00     0.003 A 
HETATM   27  C   UNL     1      -3.489   5.002 -33.643  1.00  0.00     0.010 A 
BRANCH  24  28
HETATM   28  O   UNL     1      -0.775   4.534 -30.548  1.00  0.00    -0.361 OA
HETATM   29  H   UNL     1      -1.113   3.900 -29.893  1.00  0.00     0.217 HD
ENDBRANCH  24  28
ENDBRANCH   9  22
BRANCH   7  30
HETATM   30  C   UNL     1      -5.876  -0.532 -33.305  1.00  0.00     0.014 A 
HETATM   31  C   UNL     1      -7.112  -1.043 -33.732  1.00  0.00     0.017 A 
HETATM   32  C   UNL     1      -7.186  -2.268 -34.402  1.00  0.00     0.025 A 
HETATM   33  C   UNL     1      -6.021  -2.992 -34.647  1.00  0.00     0.034 A 
HETATM   34 CL   UNL     1      -6.111  -4.505 -35.461  1.00  0.00    -0.084 Cl
HETATM   35  C   UNL     1      -4.786  -2.501 -34.233  1.00  0.00     0.025 A 
HETATM   36  C   UNL     1      -4.714  -1.273 -33.565  1.00  0.00     0.017 A 
ENDBRANCH   7  30
TORSDOF 5
ENDMDL
MODEL 10
REMARK VINA RESULT:      -9.0      4.638      8.270
REMARK  5 active torsions:
REMARK  status: ('A' for Active; 'I' for Inactive)
REMARK    1  A    between atoms: C_7  and  C_8 
REMARK    2  A    between atoms: C_16  and  C_17 
REMARK    3  A    between atoms: C_19  and  O_20 
REMARK    4  A    between atoms: C_24  and  C_25 
REMARK       I    between atoms: C_25  and  N_26 
REMARK    5  A    between atoms: N_26  and  C_27 
ROOT
HETATM    1  C   UNL     1      -9.121   3.180 -32.849  1.00  0.00     0.070 C 
HETATM    2  C   UNL     1      -7.932   3.773 -32.132  1.00  0.00     0.037 C 
HETATM    3  N   UNL     1      -8.097   5.084 -31.677  1.00  0.00    -0.192 N 
HETATM    4  C   UNL     1      -7.263   5.635 -30.770  1.00  0.00     0.726 A 
HETATM    5  N   UNL     1      -6.069   5.028 -30.514  1.00  0.00    -0.083 N 
HETATM    6  N   UNL     1      -5.413   5.618 -29.497  1.00  0.00    -0.135 NA
HETATM    7  C   UNL     1      -6.254   6.628 -29.197  1.00  0.00     0.199 A 
HETATM    8  N   UNL     1      -7.399   6.666 -29.979  1.00  0.00    -0.041 NA
HETATM    9  C   UNL     1      -5.609   3.818 -31.194  1.00  0.00     0.202 C 
HETATM   10  C   UNL     1      -6.765   3.114 -31.901  1.00  0.00     0.062 C 
HETATM   11  H   UNL     1      -9.037   5.466 -31.737  1.00  0.00     0.184 HD
ENDROOT
BRANCH  10  12
HETATM   12  C   UNL     1      -6.662   1.635 -32.107  1.00  0.00     0.256 C 
HETATM   13  N   UNL     1      -6.165   1.254 -33.334  1.00  0.00    -0.323 N 
HETATM   14  H   UNL     1      -6.011   1.963 -34.038  1.00  0.00     0.169 HD
HETATM   15  O   UNL     1      -6.957   0.883 -31.184  1.00  0.00    -0.267 OA
BRANCH  13  16
HETATM   16  C   UNL     1      -5.814  -0.052 -33.745  1.00  0.00     0.035 A 
HETATM   17  C   UNL     1      -6.635  -0.884 -34.509  1.00  0.00     0.029 A 
HETATM   18  C   UNL     1      -6.217  -2.174 -34.852  1.00  0.00     0.002 A 
HETATM   19  C   UNL     1      -4.977  -2.646 -34.431  1.00  0.00     0.000 A 
HETATM   20  C   UNL     1      -4.149  -1.825 -33.671  1.00  0.00     0.002 A 
HETATM   21  C   UNL     1      -4.563  -0.533 -33.336  1.00  0.00     0.029 A 
ENDBRANCH  13  16
ENDBRANCH  10  12
BRANCH   9  22
HETATM   22  C   UNL     1      -4.456   4.187 -32.131  1.00  0.00    -0.025 A 
HETATM   23  C   UNL     1      -4.678   4.752 -33.403  1.00  0.00     0.046 A 
HETATM   24  C   UNL     1      -3.599   5.049 -34.233  1.00  0.00     0.066 A 
HETATM   25  C   UNL     1      -2.295   4.812 -33.820  1.00  0.00     0.036 A 
HETATM   26  C   UNL     1      -2.059   4.279 -32.556  1.00  0.00     0.003 A 
HETATM   27  C   UNL     1      -3.130   3.970 -31.714  1.00  0.00     0.010 A 
BRANCH  24  28
HETATM   28  O   UNL     1      -3.784   5.578 -35.475  1.00  0.00    -0.361 OA
HETATM   29  H   UNL     1      -3.820   4.859 -36.128  1.00  0.00     0.217 HD
ENDBRANCH  24  28
ENDBRANCH   9  22
BRANCH   7  30
HETATM   30  C   UNL     1      -6.018   7.574 -28.109  1.00  0.00     0.014 A 
HETATM   31  C   UNL     1      -6.865   8.678 -27.919  1.00  0.00     0.017 A 
HETATM   32  C   UNL     1      -6.623   9.595 -26.892  1.00  0.00     0.025 A 
HETATM   33  C   UNL     1      -5.530   9.414 -26.048  1.00  0.00     0.034 A 
HETATM   34 CL   UNL     1      -5.225  10.548 -24.791  1.00  0.00    -0.084 Cl
HETATM   35  C   UNL     1      -4.679   8.325 -26.220  1.00  0.00     0.025 A 
HETATM   36  C   UNL     1      -4.925   7.407 -27.247  1.00  0.00     0.017 A 
ENDBRANCH   7  30
TORSDOF 5
ENDMDL
