MODEL 1
REMARK VINA RESULT:      -9.1      0.000      0.000
REMARK  8 active torsions:
REMARK  status: ('A' for Active; 'I' for Inactive)
REMARK    1  A    between atoms: O_2  and  C_3 
REMARK    2  A    between atoms: C_6  and  C_7 
REMARK    3  A    between atoms: C_7  and  C_8 
REMARK    4  A    between atoms: C_8  and  C_9 
REMARK    5  A    between atoms: C_11  and  N_12 
REMARK       I    between atoms: N_12  and  C_13 
REMARK    6  A    between atoms: C_13  and  C_14 
REMARK    7  A    between atoms: C_18  and  C_19 
REMARK    8  A    between atoms: C_22  and  O_23 
ROOT
HETATM    1  N   UNL     1      -3.034   4.989 -31.714  1.00  0.00    -0.149 N 
HETATM    2  C   UNL     1      -1.706   5.099 -32.036  1.00  0.00     0.290 C 
HETATM    3  O   UNL     1      -1.200   5.016 -33.151  1.00  0.00    -0.265 OA
HETATM    4  H   UNL     1      -3.297   5.065 -30.742  1.00  0.00     0.188 HD
ENDROOT
BRANCH   1   5
HETATM    5  C   UNL     1      -4.036   4.751 -32.605  1.00  0.00     0.747 A 
HETATM    6  N   UNL     1      -4.615   3.507 -32.635  1.00  0.00    -0.046 NA
HETATM    7  C   UNL     1      -5.522   3.608 -33.584  1.00  0.00     0.140 A 
HETATM    8  N   UNL     1      -5.485   4.876 -34.087  1.00  0.00    -0.248 N 
HETATM    9  N   UNL     1      -4.543   5.607 -33.491  1.00  0.00     0.020 NA
HETATM   10  H   UNL     1      -6.046   5.296 -34.820  1.00  0.00     0.191 HD
BRANCH   7  11
HETATM   11  C   UNL     1      -6.483   2.585 -34.077  1.00  0.00     0.085 C 
BRANCH  11  12
HETATM   12  C   UNL     1      -6.714   1.482 -33.038  1.00  0.00     0.046 C 
BRANCH  12  13
HETATM   13  C   UNL     1      -6.306   0.122 -33.551  1.00  0.00    -0.058 A 
HETATM   14  C   UNL     1      -5.023  -0.375 -33.287  1.00  0.00     0.010 A 
HETATM   15  C   UNL     1      -4.633  -1.636 -33.751  1.00  0.00     0.037 A 
HETATM   16  C   UNL     1      -5.523  -2.418 -34.484  1.00  0.00     0.068 A 
HETATM   17  C   UNL     1      -6.798  -1.918 -34.763  1.00  0.00     0.037 A 
HETATM   18  C   UNL     1      -7.190  -0.658 -34.302  1.00  0.00     0.010 A 
BRANCH  16  19
HETATM   19  O   UNL     1      -5.272  -3.666 -34.983  1.00  0.00    -0.356 OA
HETATM   20  C   UNL     1      -6.389  -4.534 -35.129  1.00  0.00     0.210 C 
ENDBRANCH  16  19
ENDBRANCH  12  13
ENDBRANCH  11  12
ENDBRANCH   7  11
ENDBRANCH   1   5
BRANCH   2  21
HETATM   21  C   UNL     1      -0.860   5.317 -30.849  1.00  0.00     0.147 A 
HETATM   22  N   UNL     1      -0.014   4.387 -30.363  1.00  0.00    -0.169 NA
HETATM   23  N   UNL     1       0.563   4.996 -29.308  1.00  0.00    -0.277 N 
HETATM   24  H   UNL     1       1.267   4.484 -28.786  1.00  0.00     0.189 HD
HETATM   25  C   UNL     1       0.145   6.284 -29.096  1.00  0.00     0.063 A 
HETATM   26  C   UNL     1      -0.795   6.508 -30.080  1.00  0.00     0.071 A 
BRANCH  25  27
HETATM   27  C   UNL     1       0.672   7.170 -28.061  1.00  0.00    -0.008 A 
HETATM   28  C   UNL     1       0.547   6.813 -26.713  1.00  0.00     0.016 A 
HETATM   29  C   UNL     1       1.044   7.643 -25.705  1.00  0.00     0.037 A 
HETATM   30  C   UNL     1       1.681   8.842 -26.022  1.00  0.00     0.068 A 
HETATM   31  C   UNL     1       1.816   9.205 -27.361  1.00  0.00     0.037 A 
HETATM   32  C   UNL     1       1.314   8.374 -28.375  1.00  0.00     0.016 A 
BRANCH  30  33
HETATM   33  O   UNL     1       2.121   9.555 -24.942  1.00  0.00    -0.356 OA
HETATM   34  C   UNL     1       2.951   8.872 -24.011  1.00  0.00     0.210 C 
ENDBRANCH  30  33
ENDBRANCH  25  27
ENDBRANCH   2  21
TORSDOF 8
ENDMDL
MODEL 2
REMARK VINA RESULT:      -8.9      1.998      2.957
REMARK  8 active torsions:
REMARK  status: ('A' for Active; 'I' for Inactive)
REMARK    1  A    between atoms: O_2  and  C_3 
REMARK    2  A    between atoms: C_6  and  C_7 
REMARK    3  A    between atoms: C_7  and  C_8 
REMARK    4  A    between atoms: C_8  and  C_9 
REMARK    5  A    between atoms: C_11  and  N_12 
REMARK       I    between atoms: N_12  and  C_13 
REMARK    6  A    between atoms: C_13  and  C_14 
REMARK    7  A    between atoms: C_18  and  C_19 
REMARK    8  A    between atoms: C_22  and  O_23 
ROOT
HETATM    1  N   UNL     1      -5.140   5.150 -33.232  1.00  0.00    -0.149 N 
HETATM    2  C   UNL     1      -4.152   5.564 -34.088  1.00  0.00     0.290 C 
HETATM    3  O   UNL     1      -4.080   5.361 -35.296  1.00  0.00    -0.265 OA
HETATM    4  H   UNL     1      -5.050   5.383 -32.254  1.00  0.00     0.188 HD
ENDROOT
BRANCH   1   5
HETATM    5  C   UNL     1      -6.228   4.415 -33.592  1.00  0.00     0.747 A 
HETATM    6  N   UNL     1      -6.180   3.050 -33.456  1.00  0.00    -0.046 NA
HETATM    7  C   UNL     1      -7.361   2.652 -33.884  1.00  0.00     0.140 A 
HETATM    8  N   UNL     1      -8.083   3.752 -34.248  1.00  0.00    -0.248 N 
HETATM    9  N   UNL     1      -7.378   4.871 -34.084  1.00  0.00     0.020 NA
HETATM   10  H   UNL     1      -9.027   3.811 -34.614  1.00  0.00     0.191 HD
BRANCH   7  11
HETATM   11  C   UNL     1      -7.912   1.274 -33.969  1.00  0.00     0.085 C 
BRANCH  11  12
HETATM   12  C   UNL     1      -7.279   0.483 -35.119  1.00  0.00     0.046 C 
BRANCH  12  13
HETATM   13  C   UNL     1      -6.344  -0.593 -34.623  1.00  0.00    -0.058 A 
HETATM   14  C   UNL     1      -6.531  -1.926 -35.015  1.00  0.00     0.010 A 
HETATM   15  C   UNL     1      -5.669  -2.933 -34.567  1.00  0.00     0.037 A 
HETATM   16  C   UNL     1      -4.606  -2.619 -33.724  1.00  0.00     0.068 A 
HETATM   17  C   UNL     1      -4.426  -1.294 -33.318  1.00  0.00     0.037 A 
HETATM   18  C   UNL     1      -5.287  -0.286 -33.762  1.00  0.00     0.010 A 
BRANCH  16  19
HETATM   19  O   UNL     1      -3.688  -3.503 -33.227  1.00  0.00    -0.356 OA
HETATM   20  C   UNL     1      -3.694  -4.813 -33.780  1.00  0.00     0.210 C 
ENDBRANCH  16  19
ENDBRANCH  12  13
ENDBRANCH  11  12
ENDBRANCH   7  11
ENDBRANCH   1   5
BRANCH   2  21
HETATM   21  C   UNL     1      -3.086   6.308 -33.394  1.00  0.00     0.147 A 
HETATM   22  N   UNL     1      -2.187   7.081 -34.035  1.00  0.00    -0.169 NA
HETATM   23  N   UNL     1      -1.426   7.581 -33.041  1.00  0.00    -0.277 N 
HETATM   24  H   UNL     1      -0.677   8.221 -33.286  1.00  0.00     0.189 HD
HETATM   25  C   UNL     1      -1.799   7.183 -31.783  1.00  0.00     0.063 A 
HETATM   26  C   UNL     1      -2.871   6.340 -31.992  1.00  0.00     0.071 A 
BRANCH  25  27
HETATM   27  C   UNL     1      -1.174   7.643 -30.545  1.00  0.00    -0.008 A 
HETATM   28  C   UNL     1       0.054   7.103 -30.146  1.00  0.00     0.016 A 
HETATM   29  C   UNL     1       0.672   7.528 -28.967  1.00  0.00     0.037 A 
HETATM   30  C   UNL     1       0.079   8.504 -28.166  1.00  0.00     0.068 A 
HETATM   31  C   UNL     1      -1.142   9.051 -28.556  1.00  0.00     0.037 A 
HETATM   32  C   UNL     1      -1.766   8.623 -29.739  1.00  0.00     0.016 A 
BRANCH  30  33
HETATM   33  O   UNL     1       0.790   8.827 -27.045  1.00  0.00    -0.356 OA
HETATM   34  C   UNL     1       1.677   7.840 -26.534  1.00  0.00     0.210 C 
ENDBRANCH  30  33
ENDBRANCH  25  27
ENDBRANCH   2  21
TORSDOF 8
ENDMDL
MODEL 3
REMARK VINA RESULT:      -8.8      1.887      2.541
REMARK  8 active torsions:
REMARK  status: ('A' for Active; 'I' for Inactive)
REMARK    1  A    between atoms: O_2  and  C_3 
REMARK    2  A    between atoms: C_6  and  C_7 
REMARK    3  A    between atoms: C_7  and  C_8 
REMARK    4  A    between atoms: C_8  and  C_9 
REMARK    5  A    between atoms: C_11  and  N_12 
REMARK       I    between atoms: N_12  and  C_13 
REMARK    6  A    between atoms: C_13  and  C_14 
REMARK    7  A    between atoms: C_18  and  C_19 
REMARK    8  A    between atoms: C_22  and  O_23 
ROOT
HETATM    1  N   UNL     1      -2.788   3.677 -31.259  1.00  0.00    -0.149 N 
HETATM    2  C   UNL     1      -2.152   4.388 -32.244  1.00  0.00     0.290 C 
HETATM    3  O   UNL     1      -2.112   4.129 -33.442  1.00  0.00    -0.265 OA
HETATM    4  H   UNL     1      -2.717   4.010 -30.309  1.00  0.00     0.188 HD
ENDROOT
BRANCH   1   5
HETATM    5  C   UNL     1      -3.489   2.526 -31.456  1.00  0.00     0.747 A 
HETATM    6  N   UNL     1      -4.735   2.599 -32.028  1.00  0.00    -0.046 NA
HETATM    7  C   UNL     1      -5.131   1.343 -32.073  1.00  0.00     0.140 A 
HETATM    8  N   UNL     1      -4.142   0.558 -31.556  1.00  0.00    -0.248 N 
HETATM    9  N   UNL     1      -3.105   1.289 -31.148  1.00  0.00     0.020 NA
HETATM   10  H   UNL     1      -4.112  -0.450 -31.444  1.00  0.00     0.191 HD
BRANCH   7  11
HETATM   11  C   UNL     1      -6.402   0.779 -32.600  1.00  0.00     0.085 C 
BRANCH  11  12
HETATM   12  C   UNL     1      -6.276   0.384 -34.076  1.00  0.00     0.046 C 
BRANCH  12  13
HETATM   13  C   UNL     1      -5.994  -1.089 -34.249  1.00  0.00    -0.058 A 
HETATM   14  C   UNL     1      -7.043  -1.983 -34.501  1.00  0.00     0.010 A 
HETATM   15  C   UNL     1      -6.797  -3.350 -34.669  1.00  0.00     0.037 A 
HETATM   16  C   UNL     1      -5.495  -3.840 -34.589  1.00  0.00     0.068 A 
HETATM   17  C   UNL     1      -4.449  -2.954 -34.321  1.00  0.00     0.037 A 
HETATM   18  C   UNL     1      -4.692  -1.588 -34.151  1.00  0.00     0.010 A 
BRANCH  16  19
HETATM   19  O   UNL     1      -5.119  -5.146 -34.745  1.00  0.00    -0.356 OA
HETATM   20  C   UNL     1      -4.143  -5.643 -33.838  1.00  0.00     0.210 C 
ENDBRANCH  16  19
ENDBRANCH  12  13
ENDBRANCH  11  12
ENDBRANCH   7  11
ENDBRANCH   1   5
BRANCH   2  21
HETATM   21  C   UNL     1      -1.444   5.567 -31.712  1.00  0.00     0.147 A 
HETATM   22  N   UNL     1      -0.865   6.497 -32.497  1.00  0.00    -0.169 NA
HETATM   23  N   UNL     1      -0.361   7.389 -31.621  1.00  0.00    -0.277 N 
HETATM   24  H   UNL     1       0.114   8.207 -31.990  1.00  0.00     0.189 HD
HETATM   25  C   UNL     1      -0.600   7.091 -30.305  1.00  0.00     0.063 A 
HETATM   26  C   UNL     1      -1.292   5.898 -30.341  1.00  0.00     0.071 A 
BRANCH  25  27
HETATM   27  C   UNL     1      -0.216   7.937 -29.177  1.00  0.00    -0.008 A 
HETATM   28  C   UNL     1      -1.142   8.838 -28.640  1.00  0.00     0.016 A 
HETATM   29  C   UNL     1      -0.799   9.657 -27.561  1.00  0.00     0.037 A 
HETATM   30  C   UNL     1       0.473   9.590 -26.994  1.00  0.00     0.068 A 
HETATM   31  C   UNL     1       1.403   8.692 -27.519  1.00  0.00     0.037 A 
HETATM   32  C   UNL     1       1.060   7.871 -28.605  1.00  0.00     0.016 A 
BRANCH  30  33
HETATM   33  O   UNL     1       0.674  10.443 -25.946  1.00  0.00    -0.356 OA
HETATM   34  C   UNL     1      -0.458  10.768 -25.149  1.00  0.00     0.210 C 
ENDBRANCH  30  33
ENDBRANCH  25  27
ENDBRANCH   2  21
TORSDOF 8
ENDMDL
MODEL 4
REMARK VINA RESULT:      -8.4      1.655     11.615
REMARK  8 active torsions:
REMARK  status: ('A' for Active; 'I' for Inactive)
REMARK    1  A    between atoms: O_2  and  C_3 
REMARK    2  A    between atoms: C_6  and  C_7 
REMARK    3  A    between atoms: C_7  and  C_8 
REMARK    4  A    between atoms: C_8  and  C_9 
REMARK    5  A    between atoms: C_11  and  N_12 
REMARK       I    between atoms: N_12  and  C_13 
REMARK    6  A    between atoms: C_13  and  C_14 
REMARK    7  A    between atoms: C_18  and  C_19 
REMARK    8  A    between atoms: C_22  and  O_23 
ROOT
HETATM    1  N   UNL     1      -3.339   4.252 -32.606  1.00  0.00    -0.149 N 
HETATM    2  C   UNL     1      -4.607   4.237 -32.084  1.00  0.00     0.290 C 
HETATM    3  O   UNL     1      -5.139   5.100 -31.393  1.00  0.00    -0.265 OA
HETATM    4  H   UNL     1      -3.037   3.454 -33.146  1.00  0.00     0.188 HD
ENDROOT
BRANCH   1   5
HETATM    5  C   UNL     1      -2.434   5.253 -32.427  1.00  0.00     0.747 A 
HETATM    6  N   UNL     1      -1.434   5.086 -31.502  1.00  0.00    -0.046 NA
HETATM    7  C   UNL     1      -0.751   6.210 -31.575  1.00  0.00     0.140 A 
HETATM    8  N   UNL     1      -1.325   7.006 -32.522  1.00  0.00    -0.248 N 
HETATM    9  N   UNL     1      -2.397   6.425 -33.060  1.00  0.00     0.020 NA
HETATM   10  H   UNL     1      -1.055   7.932 -32.836  1.00  0.00     0.191 HD
BRANCH   7  11
HETATM   11  C   UNL     1       0.462   6.621 -30.818  1.00  0.00     0.085 C 
BRANCH  11  12
HETATM   12  C   UNL     1       0.533   5.934 -29.449  1.00  0.00     0.046 C 
BRANCH  12  13
HETATM   13  C   UNL     1       0.494   6.925 -28.312  1.00  0.00    -0.058 A 
HETATM   14  C   UNL     1      -0.292   6.669 -27.180  1.00  0.00     0.010 A 
HETATM   15  C   UNL     1      -0.333   7.576 -26.115  1.00  0.00     0.037 A 
HETATM   16  C   UNL     1       0.415   8.750 -26.168  1.00  0.00     0.068 A 
HETATM   17  C   UNL     1       1.187   9.016 -27.302  1.00  0.00     0.037 A 
HETATM   18  C   UNL     1       1.228   8.113 -28.368  1.00  0.00     0.010 A 
BRANCH  16  19
HETATM   19  O   UNL     1       0.472   9.710 -25.195  1.00  0.00    -0.356 OA
HETATM   20  C   UNL     1      -0.691  10.507 -25.012  1.00  0.00     0.210 C 
ENDBRANCH  16  19
ENDBRANCH  12  13
ENDBRANCH  11  12
ENDBRANCH   7  11
ENDBRANCH   1   5
BRANCH   2  21
HETATM   21  C   UNL     1      -5.334   2.998 -32.419  1.00  0.00     0.147 A 
HETATM   22  N   UNL     1      -6.676   2.892 -32.364  1.00  0.00    -0.169 NA
HETATM   23  N   UNL     1      -6.916   1.627 -32.761  1.00  0.00    -0.277 N 
HETATM   24  H   UNL     1      -7.880   1.317 -32.820  1.00  0.00     0.189 HD
HETATM   25  C   UNL     1      -5.792   0.911 -33.088  1.00  0.00     0.063 A 
HETATM   26  C   UNL     1      -4.749   1.783 -32.857  1.00  0.00     0.071 A 
BRANCH  25  27
HETATM   27  C   UNL     1      -5.799  -0.454 -33.609  1.00  0.00    -0.008 A 
HETATM   28  C   UNL     1      -4.615  -1.202 -33.606  1.00  0.00     0.016 A 
HETATM   29  C   UNL     1      -4.596  -2.510 -34.099  1.00  0.00     0.037 A 
HETATM   30  C   UNL     1      -5.757  -3.098 -34.598  1.00  0.00     0.068 A 
HETATM   31  C   UNL     1      -6.942  -2.363 -34.602  1.00  0.00     0.037 A 
HETATM   32  C   UNL     1      -6.963  -1.049 -34.111  1.00  0.00     0.016 A 
BRANCH  30  33
HETATM   33  O   UNL     1      -5.598  -4.380 -35.045  1.00  0.00    -0.356 OA
HETATM   34  C   UNL     1      -4.697  -5.209 -34.322  1.00  0.00     0.210 C 
ENDBRANCH  30  33
ENDBRANCH  25  27
ENDBRANCH   2  21
TORSDOF 8
ENDMDL
MODEL 5
REMARK VINA RESULT:      -8.4      1.595      1.953
REMARK  8 active torsions:
REMARK  status: ('A' for Active; 'I' for Inactive)
REMARK    1  A    between atoms: O_2  and  C_3 
REMARK    2  A    between atoms: C_6  and  C_7 
REMARK    3  A    between atoms: C_7  and  C_8 
REMARK    4  A    between atoms: C_8  and  C_9 
REMARK    5  A    between atoms: C_11  and  N_12 
REMARK       I    between atoms: N_12  and  C_13 
REMARK    6  A    between atoms: C_13  and  C_14 
REMARK    7  A    between atoms: C_18  and  C_19 
REMARK    8  A    between atoms: C_22  and  O_23 
ROOT
HETATM    1  N   UNL     1      -2.742   5.204 -30.761  1.00  0.00    -0.149 N 
HETATM    2  C   UNL     1      -1.753   6.010 -31.262  1.00  0.00     0.290 C 
HETATM    3  O   UNL     1      -1.163   5.889 -32.331  1.00  0.00    -0.265 OA
HETATM    4  H   UNL     1      -3.123   5.425 -29.853  1.00  0.00     0.188 HD
ENDROOT
BRANCH   1   5
HETATM    5  C   UNL     1      -3.237   4.098 -31.382  1.00  0.00     0.747 A 
HETATM    6  N   UNL     1      -4.534   4.113 -31.831  1.00  0.00    -0.046 NA
HETATM    7  C   UNL     1      -4.693   2.921 -32.367  1.00  0.00     0.140 A 
HETATM    8  N   UNL     1      -3.521   2.231 -32.247  1.00  0.00    -0.248 N 
HETATM    9  N   UNL     1      -2.596   2.954 -31.615  1.00  0.00     0.020 NA
HETATM   10  H   UNL     1      -3.292   1.292 -32.553  1.00  0.00     0.191 HD
BRANCH   7  11
HETATM   11  C   UNL     1      -5.892   2.343 -33.032  1.00  0.00     0.085 C 
BRANCH  11  12
HETATM   12  C   UNL     1      -6.382   1.080 -32.315  1.00  0.00     0.046 C 
BRANCH  12  13
HETATM   13  C   UNL     1      -6.126  -0.169 -33.123  1.00  0.00    -0.058 A 
HETATM   14  C   UNL     1      -4.929  -0.879 -32.965  1.00  0.00     0.010 A 
HETATM   15  C   UNL     1      -4.681  -2.041 -33.703  1.00  0.00     0.037 A 
HETATM   16  C   UNL     1      -5.630  -2.510 -34.608  1.00  0.00     0.068 A 
HETATM   17  C   UNL     1      -6.818  -1.795 -34.780  1.00  0.00     0.037 A 
HETATM   18  C   UNL     1      -7.068  -0.633 -34.046  1.00  0.00     0.010 A 
BRANCH  16  19
HETATM   19  O   UNL     1      -5.517  -3.634 -35.379  1.00  0.00    -0.356 OA
HETATM   20  C   UNL     1      -6.599  -4.556 -35.329  1.00  0.00     0.210 C 
ENDBRANCH  16  19
ENDBRANCH  12  13
ENDBRANCH  11  12
ENDBRANCH   7  11
ENDBRANCH   1   5
BRANCH   2  21
HETATM   21  C   UNL     1      -1.405   7.106 -30.340  1.00  0.00     0.147 A 
HETATM   22  N   UNL     1      -2.066   8.280 -30.305  1.00  0.00    -0.169 NA
HETATM   23  N   UNL     1      -1.447   8.969 -29.325  1.00  0.00    -0.277 N 
HETATM   24  H   UNL     1      -1.793   9.896 -29.099  1.00  0.00     0.189 HD
HETATM   25  C   UNL     1      -0.427   8.290 -28.710  1.00  0.00     0.063 A 
HETATM   26  C   UNL     1      -0.373   7.079 -29.368  1.00  0.00     0.071 A 
BRANCH  25  27
HETATM   27  C   UNL     1       0.346   8.798 -27.578  1.00  0.00    -0.008 A 
HETATM   28  C   UNL     1       1.431   8.058 -27.093  1.00  0.00     0.016 A 
HETATM   29  C   UNL     1       2.185   8.523 -26.012  1.00  0.00     0.037 A 
HETATM   30  C   UNL     1       1.876   9.736 -25.399  1.00  0.00     0.068 A 
HETATM   31  C   UNL     1       0.800  10.483 -25.877  1.00  0.00     0.037 A 
HETATM   32  C   UNL     1       0.039  10.016 -26.960  1.00  0.00     0.016 A 
BRANCH  30  33
HETATM   33  O   UNL     1       2.694  10.071 -24.357  1.00  0.00    -0.356 OA
HETATM   34  C   UNL     1       2.541  11.373 -23.806  1.00  0.00     0.210 C 
ENDBRANCH  30  33
ENDBRANCH  25  27
ENDBRANCH   2  21
TORSDOF 8
ENDMDL
MODEL 6
REMARK VINA RESULT:      -8.3      1.690     11.709
REMARK  8 active torsions:
REMARK  status: ('A' for Active; 'I' for Inactive)
REMARK    1  A    between atoms: O_2  and  C_3 
REMARK    2  A    between atoms: C_6  and  C_7 
REMARK    3  A    between atoms: C_7  and  C_8 
REMARK    4  A    between atoms: C_8  and  C_9 
REMARK    5  A    between atoms: C_11  and  N_12 
REMARK       I    between atoms: N_12  and  C_13 
REMARK    6  A    between atoms: C_13  and  C_14 
REMARK    7  A    between atoms: C_18  and  C_19 
REMARK    8  A    between atoms: C_22  and  O_23 
ROOT
HETATM    1  N   UNL     1      -2.870   4.074 -32.245  1.00  0.00    -0.149 N 
HETATM    2  C   UNL     1      -4.098   4.000 -31.638  1.00  0.00     0.290 C 
HETATM    3  O   UNL     1      -4.544   4.742 -30.768  1.00  0.00    -0.265 OA
HETATM    4  H   UNL     1      -2.638   3.376 -32.937  1.00  0.00     0.188 HD
ENDROOT
BRANCH   1   5
HETATM    5  C   UNL     1      -1.915   5.003 -31.964  1.00  0.00     0.747 A 
HETATM    6  N   UNL     1      -0.990   4.729 -30.988  1.00  0.00    -0.046 NA
HETATM    7  C   UNL     1      -0.232   5.806 -30.965  1.00  0.00     0.140 A 
HETATM    8  N   UNL     1      -0.691   6.680 -31.908  1.00  0.00    -0.248 N 
HETATM    9  N   UNL     1      -1.762   6.195 -32.537  1.00  0.00     0.020 NA
HETATM   10  H   UNL     1      -0.342   7.598 -32.160  1.00  0.00     0.191 HD
BRANCH   7  11
HETATM   11  C   UNL     1       0.953   6.101 -30.116  1.00  0.00     0.085 C 
BRANCH  11  12
HETATM   12  C   UNL     1       0.697   5.749 -28.647  1.00  0.00     0.046 C 
BRANCH  12  13
HETATM   13  C   UNL     1       0.503   6.978 -27.792  1.00  0.00    -0.058 A 
HETATM   14  C   UNL     1       1.277   8.124 -28.018  1.00  0.00     0.010 A 
HETATM   15  C   UNL     1       1.104   9.272 -27.237  1.00  0.00     0.037 A 
HETATM   16  C   UNL     1       0.152   9.289 -26.220  1.00  0.00     0.068 A 
HETATM   17  C   UNL     1      -0.610   8.142 -25.981  1.00  0.00     0.037 A 
HETATM   18  C   UNL     1      -0.438   6.993 -26.759  1.00  0.00     0.010 A 
BRANCH  16  19
HETATM   19  O   UNL     1      -0.124  10.345 -25.396  1.00  0.00    -0.356 OA
HETATM   20  C   UNL     1      -0.946  10.078 -24.267  1.00  0.00     0.210 C 
ENDBRANCH  16  19
ENDBRANCH  12  13
ENDBRANCH  11  12
ENDBRANCH   7  11
ENDBRANCH   1   5
BRANCH   2  21
HETATM   21  C   UNL     1      -4.895   2.861 -32.127  1.00  0.00     0.147 A 
HETATM   22  N   UNL     1      -6.236   2.898 -32.251  1.00  0.00    -0.169 NA
HETATM   23  N   UNL     1      -6.548   1.681 -32.741  1.00  0.00    -0.277 N 
HETATM   24  H   UNL     1      -7.522   1.479 -32.939  1.00  0.00     0.189 HD
HETATM   25  C   UNL     1      -5.470   0.862 -32.957  1.00  0.00     0.063 A 
HETATM   26  C   UNL     1      -4.383   1.607 -32.548  1.00  0.00     0.071 A 
BRANCH  25  27
HETATM   27  C   UNL     1      -5.544  -0.474 -33.545  1.00  0.00    -0.008 A 
HETATM   28  C   UNL     1      -6.748  -0.918 -34.106  1.00  0.00     0.016 A 
HETATM   29  C   UNL     1      -6.844  -2.190 -34.675  1.00  0.00     0.037 A 
HETATM   30  C   UNL     1      -5.740  -3.042 -34.700  1.00  0.00     0.068 A 
HETATM   31  C   UNL     1      -4.536  -2.609 -34.148  1.00  0.00     0.037 A 
HETATM   32  C   UNL     1      -4.438  -1.332 -33.573  1.00  0.00     0.016 A 
BRANCH  30  33
HETATM   33  O   UNL     1      -5.972  -4.254 -35.287  1.00  0.00    -0.356 OA
HETATM   34  C   UNL     1      -5.203  -5.356 -34.822  1.00  0.00     0.210 C 
ENDBRANCH  30  33
ENDBRANCH  25  27
ENDBRANCH   2  21
TORSDOF 8
ENDMDL
MODEL 7
REMARK VINA RESULT:      -8.2      4.735      8.321
REMARK  8 active torsions:
REMARK  status: ('A' for Active; 'I' for Inactive)
REMARK    1  A    between atoms: O_2  and  C_3 
REMARK    2  A    between atoms: C_6  and  C_7 
REMARK    3  A    between atoms: C_7  and  C_8 
REMARK    4  A    between atoms: C_8  and  C_9 
REMARK    5  A    between atoms: C_11  and  N_12 
REMARK       I    between atoms: N_12  and  C_13 
REMARK    6  A    between atoms: C_13  and  C_14 
REMARK    7  A    between atoms: C_18  and  C_19 
REMARK    8  A    between atoms: C_22  and  O_23 
ROOT
HETATM    1  N   UNL     1       1.257   8.068 -25.949  1.00  0.00    -0.149 N 
HETATM    2  C   UNL     1       1.155   9.436 -25.964  1.00  0.00     0.290 C 
HETATM    3  O   UNL     1       0.447  10.122 -26.694  1.00  0.00    -0.265 OA
HETATM    4  H   UNL     1       1.900   7.646 -25.296  1.00  0.00     0.188 HD
ENDROOT
BRANCH   1   5
HETATM    5  C   UNL     1       0.576   7.225 -26.773  1.00  0.00     0.747 A 
HETATM    6  N   UNL     1       1.152   6.850 -27.961  1.00  0.00    -0.046 NA
HETATM    7  C   UNL     1       0.255   6.055 -28.506  1.00  0.00     0.140 A 
HETATM    8  N   UNL     1      -0.811   5.958 -27.658  1.00  0.00    -0.248 N 
HETATM    9  N   UNL     1      -0.631   6.702 -26.567  1.00  0.00     0.020 NA
HETATM   10  H   UNL     1      -1.670   5.429 -27.761  1.00  0.00     0.191 HD
BRANCH   7  11
HETATM   11  C   UNL     1       0.311   5.326 -29.801  1.00  0.00     0.085 C 
BRANCH  11  12
HETATM   12  C   UNL     1       0.550   6.279 -30.976  1.00  0.00     0.046 C 
BRANCH  12  13
HETATM   13  C   UNL     1      -0.556   6.209 -32.001  1.00  0.00    -0.058 A 
HETATM   14  C   UNL     1      -0.875   7.335 -32.772  1.00  0.00     0.010 A 
HETATM   15  C   UNL     1      -1.894   7.283 -33.729  1.00  0.00     0.037 A 
HETATM   16  C   UNL     1      -2.606   6.103 -33.930  1.00  0.00     0.068 A 
HETATM   17  C   UNL     1      -2.301   4.983 -33.151  1.00  0.00     0.037 A 
HETATM   18  C   UNL     1      -1.285   5.032 -32.192  1.00  0.00     0.010 A 
BRANCH  16  19
HETATM   19  O   UNL     1      -3.612   5.916 -34.837  1.00  0.00    -0.356 OA
HETATM   20  C   UNL     1      -4.577   4.918 -34.527  1.00  0.00     0.210 C 
ENDBRANCH  16  19
ENDBRANCH  12  13
ENDBRANCH  11  12
ENDBRANCH   7  11
ENDBRANCH   1   5
BRANCH   2  21
HETATM   21  C   UNL     1       2.048  10.073 -24.980  1.00  0.00     0.147 A 
HETATM   22  N   UNL     1       2.146  11.409 -24.829  1.00  0.00    -0.169 NA
HETATM   23  N   UNL     1       3.039  11.554 -23.829  1.00  0.00    -0.277 N 
HETATM   24  H   UNL     1       3.263  12.495 -23.519  1.00  0.00     0.189 HD
HETATM   25  C   UNL     1       3.512  10.376 -23.312  1.00  0.00     0.063 A 
HETATM   26  C   UNL     1       2.889   9.397 -24.059  1.00  0.00     0.071 A 
BRANCH  25  27
HETATM   27  C   UNL     1       4.432  10.273 -22.182  1.00  0.00    -0.008 A 
HETATM   28  C   UNL     1       5.020  11.431 -21.659  1.00  0.00     0.016 A 
HETATM   29  C   UNL     1       5.902  11.358 -20.578  1.00  0.00     0.037 A 
HETATM   30  C   UNL     1       6.210  10.130 -19.993  1.00  0.00     0.068 A 
HETATM   31  C   UNL     1       5.626   8.971 -20.503  1.00  0.00     0.037 A 
HETATM   32  C   UNL     1       4.742   9.042 -21.591  1.00  0.00     0.016 A 
BRANCH  30  33
HETATM   33  O   UNL     1       7.083  10.203 -18.944  1.00  0.00    -0.356 OA
HETATM   34  C   UNL     1       7.635   8.980 -18.475  1.00  0.00     0.210 C 
ENDBRANCH  30  33
ENDBRANCH  25  27
ENDBRANCH   2  21
TORSDOF 8
ENDMDL
MODEL 8
REMARK VINA RESULT:      -8.2      3.110     12.064
REMARK  8 active torsions:
REMARK  status: ('A' for Active; 'I' for Inactive)
REMARK    1  A    between atoms: O_2  and  C_3 
REMARK    2  A    between atoms: C_6  and  C_7 
REMARK    3  A    between atoms: C_7  and  C_8 
REMARK    4  A    between atoms: C_8  and  C_9 
REMARK    5  A    between atoms: C_11  and  N_12 
REMARK       I    between atoms: N_12  and  C_13 
REMARK    6  A    between atoms: C_13  and  C_14 
REMARK    7  A    between atoms: C_18  and  C_19 
REMARK    8  A    between atoms: C_22  and  O_23 
ROOT
HETATM    1  N   UNL     1      -4.484   4.580 -32.751  1.00  0.00    -0.149 N 
HETATM    2  C   UNL     1      -5.110   4.699 -33.965  1.00  0.00     0.290 C 
HETATM    3  O   UNL     1      -4.619   5.081 -35.022  1.00  0.00    -0.265 OA
HETATM    4  H   UNL     1      -5.030   4.265 -31.962  1.00  0.00     0.188 HD
ENDROOT
BRANCH   1   5
HETATM    5  C   UNL     1      -3.179   4.887 -32.512  1.00  0.00     0.747 A 
HETATM    6  N   UNL     1      -2.851   6.179 -32.183  1.00  0.00    -0.046 NA
HETATM    7  C   UNL     1      -1.544   6.138 -32.024  1.00  0.00     0.140 A 
HETATM    8  N   UNL     1      -1.120   4.859 -32.242  1.00  0.00    -0.248 N 
HETATM    9  N   UNL     1      -2.137   4.060 -32.565  1.00  0.00     0.020 NA
HETATM   10  H   UNL     1      -0.183   4.474 -32.199  1.00  0.00     0.191 HD
BRANCH   7  11
HETATM   11  C   UNL     1      -0.610   7.233 -31.649  1.00  0.00     0.085 C 
BRANCH  11  12
HETATM   12  C   UNL     1       0.284   6.834 -30.470  1.00  0.00     0.046 C 
BRANCH  12  13
HETATM   13  C   UNL     1       0.094   7.741 -29.279  1.00  0.00    -0.058 A 
HETATM   14  C   UNL     1       1.152   7.965 -28.388  1.00  0.00     0.010 A 
HETATM   15  C   UNL     1       0.993   8.807 -27.282  1.00  0.00     0.037 A 
HETATM   16  C   UNL     1      -0.227   9.439 -27.055  1.00  0.00     0.068 A 
HETATM   17  C   UNL     1      -1.289   9.205 -27.932  1.00  0.00     0.037 A 
HETATM   18  C   UNL     1      -1.134   8.362 -29.036  1.00  0.00     0.010 A 
BRANCH  16  19
HETATM   19  O   UNL     1      -0.510  10.292 -26.024  1.00  0.00    -0.356 OA
HETATM   20  C   UNL     1      -0.501   9.738 -24.714  1.00  0.00     0.210 C 
ENDBRANCH  16  19
ENDBRANCH  12  13
ENDBRANCH  11  12
ENDBRANCH   7  11
ENDBRANCH   1   5
BRANCH   2  21
HETATM   21  C   UNL     1      -6.535   4.328 -33.897  1.00  0.00     0.147 A 
HETATM   22  N   UNL     1      -7.537   5.204 -34.112  1.00  0.00    -0.169 NA
HETATM   23  N   UNL     1      -8.652   4.458 -33.975  1.00  0.00    -0.277 N 
HETATM   24  H   UNL     1      -9.550   4.908 -34.116  1.00  0.00     0.189 HD
HETATM   25  C   UNL     1      -8.420   3.135 -33.697  1.00  0.00     0.063 A 
HETATM   26  C   UNL     1      -7.046   3.033 -33.627  1.00  0.00     0.071 A 
BRANCH  25  27
HETATM   27  C   UNL     1      -9.461   2.117 -33.572  1.00  0.00    -0.008 A 
HETATM   28  C   UNL     1     -10.692   2.303 -34.211  1.00  0.00     0.016 A 
HETATM   29  C   UNL     1     -11.703   1.343 -34.108  1.00  0.00     0.037 A 
HETATM   30  C   UNL     1     -11.502   0.178 -33.369  1.00  0.00     0.068 A 
HETATM   31  C   UNL     1     -10.278  -0.019 -32.731  1.00  0.00     0.037 A 
HETATM   32  C   UNL     1      -9.263   0.945 -32.832  1.00  0.00     0.016 A 
BRANCH  30  33
HETATM   33  O   UNL     1     -12.570  -0.675 -33.352  1.00  0.00    -0.356 OA
HETATM   34  C   UNL     1     -13.860  -0.100 -33.524  1.00  0.00     0.210 C 
ENDBRANCH  30  33
ENDBRANCH  25  27
ENDBRANCH   2  21
TORSDOF 8
ENDMDL
MODEL 9
REMARK VINA RESULT:      -8.0      2.777      3.740
REMARK  8 active torsions:
REMARK  status: ('A' for Active; 'I' for Inactive)
REMARK    1  A    between atoms: O_2  and  C_3 
REMARK    2  A    between atoms: C_6  and  C_7 
REMARK    3  A    between atoms: C_7  and  C_8 
REMARK    4  A    between atoms: C_8  and  C_9 
REMARK    5  A    between atoms: C_11  and  N_12 
REMARK       I    between atoms: N_12  and  C_13 
REMARK    6  A    between atoms: C_13  and  C_14 
REMARK    7  A    between atoms: C_18  and  C_19 
REMARK    8  A    between atoms: C_22  and  O_23 
ROOT
HETATM    1  N   UNL     1      -2.969   3.755 -31.267  1.00  0.00    -0.149 N 
HETATM    2  C   UNL     1      -2.265   4.582 -32.104  1.00  0.00     0.290 C 
HETATM    3  O   UNL     1      -1.941   4.364 -33.267  1.00  0.00    -0.265 OA
HETATM    4  H   UNL     1      -3.146   4.070 -30.324  1.00  0.00     0.188 HD
ENDROOT
BRANCH   1   5
HETATM    5  C   UNL     1      -3.425   2.515 -31.597  1.00  0.00     0.747 A 
HETATM    6  N   UNL     1      -4.511   2.408 -32.429  1.00  0.00    -0.046 NA
HETATM    7  C   UNL     1      -4.690   1.108 -32.543  1.00  0.00     0.140 A 
HETATM    8  N   UNL     1      -3.731   0.472 -31.809  1.00  0.00    -0.248 N 
HETATM    9  N   UNL     1      -2.933   1.345 -31.194  1.00  0.00     0.020 NA
HETATM   10  H   UNL     1      -3.572  -0.521 -31.678  1.00  0.00     0.191 HD
BRANCH   7  11
HETATM   11  C   UNL     1      -5.713   0.367 -33.328  1.00  0.00     0.085 C 
BRANCH  11  12
HETATM   12  C   UNL     1      -6.927  -0.001 -32.469  1.00  0.00     0.046 C 
BRANCH  12  13
HETATM   13  C   UNL     1      -8.211   0.565 -33.024  1.00  0.00    -0.058 A 
HETATM   14  C   UNL     1      -9.437  -0.046 -32.730  1.00  0.00     0.010 A 
HETATM   15  C   UNL     1     -10.636   0.471 -33.232  1.00  0.00     0.037 A 
HETATM   16  C   UNL     1     -10.624   1.610 -34.035  1.00  0.00     0.068 A 
HETATM   17  C   UNL     1      -9.402   2.212 -34.343  1.00  0.00     0.037 A 
HETATM   18  C   UNL     1      -8.202   1.697 -33.844  1.00  0.00     0.010 A 
BRANCH  16  19
HETATM   19  O   UNL     1     -11.720   2.221 -34.578  1.00  0.00    -0.356 OA
HETATM   20  C   UNL     1     -12.889   1.424 -34.730  1.00  0.00     0.210 C 
ENDBRANCH  16  19
ENDBRANCH  12  13
ENDBRANCH  11  12
ENDBRANCH   7  11
ENDBRANCH   1   5
BRANCH   2  21
HETATM   21  C   UNL     1      -1.875   5.842 -31.445  1.00  0.00     0.147 A 
HETATM   22  N   UNL     1      -2.252   7.056 -31.892  1.00  0.00    -0.169 NA
HETATM   23  N   UNL     1      -1.705   7.910 -31.003  1.00  0.00    -0.277 N 
HETATM   24  H   UNL     1      -1.874   8.903 -31.126  1.00  0.00     0.189 HD
HETATM   25  C   UNL     1      -1.004   7.306 -29.991  1.00  0.00     0.063 A 
HETATM   26  C   UNL     1      -1.090   5.958 -30.269  1.00  0.00     0.071 A 
BRANCH  25  27
HETATM   27  C   UNL     1      -0.381   8.012 -28.874  1.00  0.00    -0.008 A 
HETATM   28  C   UNL     1       0.847   7.566 -28.370  1.00  0.00     0.016 A 
HETATM   29  C   UNL     1       1.463   8.226 -27.304  1.00  0.00     0.037 A 
HETATM   30  C   UNL     1       0.869   9.346 -26.722  1.00  0.00     0.068 A 
HETATM   31  C   UNL     1      -0.352   9.801 -27.219  1.00  0.00     0.037 A 
HETATM   32  C   UNL     1      -0.973   9.138 -28.288  1.00  0.00     0.016 A 
BRANCH  30  33
HETATM   33  O   UNL     1       1.579   9.894 -25.691  1.00  0.00    -0.356 OA
HETATM   34  C   UNL     1       2.654   9.126 -25.165  1.00  0.00     0.210 C 
ENDBRANCH  30  33
ENDBRANCH  25  27
ENDBRANCH   2  21
TORSDOF 8
ENDMDL
MODEL 10
REMARK VINA RESULT:      -8.0      4.667     12.001
REMARK  8 active torsions:
REMARK  status: ('A' for Active; 'I' for Inactive)
REMARK    1  A    between atoms: O_2  and  C_3 
REMARK    2  A    between atoms: C_6  and  C_7 
REMARK    3  A    between atoms: C_7  and  C_8 
REMARK    4  A    between atoms: C_8  and  C_9 
REMARK    5  A    between atoms: C_11  and  N_12 
REMARK       I    between atoms: N_12  and  C_13 
REMARK    6  A    between atoms: C_13  and  C_14 
REMARK    7  A    between atoms: C_18  and  C_19 
REMARK    8  A    between atoms: C_22  and  O_23 
ROOT
HETATM    1  N   UNL     1      -6.893   4.250 -33.661  1.00  0.00    -0.149 N 
HETATM    2  C   UNL     1      -6.972   2.926 -33.313  1.00  0.00     0.290 C 
HETATM    3  O   UNL     1      -6.112   2.249 -32.759  1.00  0.00    -0.265 OA
HETATM    4  H   UNL     1      -7.684   4.667 -34.130  1.00  0.00     0.188 HD
ENDROOT
BRANCH   1   5
HETATM    5  C   UNL     1      -5.811   5.049 -33.450  1.00  0.00     0.747 A 
HETATM    6  N   UNL     1      -4.733   4.940 -34.292  1.00  0.00    -0.046 NA
HETATM    7  C   UNL     1      -3.880   5.828 -33.823  1.00  0.00     0.140 A 
HETATM    8  N   UNL     1      -4.445   6.446 -32.746  1.00  0.00    -0.248 N 
HETATM    9  N   UNL     1      -5.658   5.956 -32.487  1.00  0.00     0.020 NA
HETATM   10  H   UNL     1      -4.071   7.178 -32.153  1.00  0.00     0.191 HD
BRANCH   7  11
HETATM   11  C   UNL     1      -2.526   6.183 -34.325  1.00  0.00     0.085 C 
BRANCH  11  12
HETATM   12  C   UNL     1      -1.452   5.240 -33.770  1.00  0.00     0.046 C 
BRANCH  12  13
HETATM   13  C   UNL     1      -0.907   5.714 -32.445  1.00  0.00    -0.058 A 
HETATM   14  C   UNL     1      -0.820   7.085 -32.167  1.00  0.00     0.010 A 
HETATM   15  C   UNL     1      -0.322   7.538 -30.941  1.00  0.00     0.037 A 
HETATM   16  C   UNL     1       0.094   6.625 -29.975  1.00  0.00     0.068 A 
HETATM   17  C   UNL     1       0.024   5.257 -30.255  1.00  0.00     0.037 A 
HETATM   18  C   UNL     1      -0.472   4.802 -31.480  1.00  0.00     0.010 A 
BRANCH  16  19
HETATM   19  O   UNL     1       0.587   6.934 -28.737  1.00  0.00    -0.356 OA
HETATM   20  C   UNL     1      -0.038   6.308 -27.624  1.00  0.00     0.210 C 
ENDBRANCH  16  19
ENDBRANCH  12  13
ENDBRANCH  11  12
ENDBRANCH   7  11
ENDBRANCH   1   5
BRANCH   2  21
HETATM   21  C   UNL     1      -8.257   2.321 -33.708  1.00  0.00     0.147 A 
HETATM   22  N   UNL     1      -8.355   1.303 -34.587  1.00  0.00    -0.169 NA
HETATM   23  N   UNL     1      -9.678   1.051 -34.641  1.00  0.00    -0.277 N 
HETATM   24  H   UNL     1      -9.998   0.294 -35.236  1.00  0.00     0.189 HD
HETATM   25  C   UNL     1     -10.443   1.846 -33.825  1.00  0.00     0.063 A 
HETATM   26  C   UNL     1      -9.536   2.691 -33.220  1.00  0.00     0.071 A 
BRANCH  25  27
HETATM   27  C   UNL     1     -11.888   1.719 -33.658  1.00  0.00    -0.008 A 
HETATM   28  C   UNL     1     -12.645   2.839 -33.294  1.00  0.00     0.016 A 
HETATM   29  C   UNL     1     -14.029   2.743 -33.129  1.00  0.00     0.037 A 
HETATM   30  C   UNL     1     -14.686   1.529 -33.329  1.00  0.00     0.068 A 
HETATM   31  C   UNL     1     -13.943   0.408 -33.696  1.00  0.00     0.037 A 
HETATM   32  C   UNL     1     -12.552   0.502 -33.859  1.00  0.00     0.016 A 
BRANCH  30  33
HETATM   33  O   UNL     1     -16.038   1.577 -33.136  1.00  0.00    -0.356 OA
HETATM   34  C   UNL     1     -16.518   2.463 -32.133  1.00  0.00     0.210 C 
ENDBRANCH  30  33
ENDBRANCH  25  27
ENDBRANCH   2  21
TORSDOF 8
ENDMDL
