MODEL 1
REMARK VINA RESULT:     -10.2      0.000      0.000
REMARK  6 active torsions:
REMARK  status: ('A' for Active; 'I' for Inactive)
REMARK    1  A    between atoms: C_2  and  N_3 
REMARK    2  A    between atoms: N_6  and  C_8 
REMARK    3  A    between atoms: C_8  and  C_9 
REMARK       I    between atoms: C_9  and  N_10 
REMARK       I    between atoms: N_10  and  C_11 
REMARK       I    between atoms: C_11  and  N_12 
REMARK    4  A    between atoms: N_12  and  C_13 
REMARK    5  A    between atoms: C_13  and  C_14 
REMARK    6  A    between atoms: C_14  and  C_15 
ROOT
HETATM    1  C   UNL     1      -3.597   5.066 -33.694  1.00  0.00     0.251 C 
HETATM    2  N   UNL     1      -4.830   4.475 -33.641  1.00  0.00    -0.278 N 
HETATM    3  C   UNL     1      -5.100   3.260 -33.061  1.00  0.00     0.322 C 
HETATM    4  N   UNL     1      -6.350   2.796 -33.365  1.00  0.00    -0.343 N 
HETATM    5  O   UNL     1      -4.315   2.689 -32.315  1.00  0.00    -0.247 OA
HETATM    6  O   UNL     1      -3.365   5.969 -34.504  1.00  0.00    -0.271 OA
HETATM    7  H   UNL     1      -5.505   4.836 -34.300  1.00  0.00     0.173 HD
HETATM    8  H   UNL     1      -6.778   3.132 -34.219  1.00  0.00     0.164 HD
ENDROOT
BRANCH   1   9
HETATM    9  C   UNL     1      -2.478   4.574 -32.762  1.00  0.00     0.337 C 
BRANCH   9  10
HETATM   10  N   UNL     1      -1.768   5.762 -32.106  1.00  0.00    -0.060 N 
HETATM   11  C   UNL     1      -2.518   6.292 -30.882  1.00  0.00     0.255 C 
HETATM   12  C   UNL     1      -1.812   7.548 -30.339  1.00  0.00     0.150 C 
HETATM   13  N   UNL     1      -0.399   7.249 -30.063  1.00  0.00    -0.378 N 
HETATM   14  C   UNL     1       0.385   6.715 -31.186  1.00  0.00     0.150 C 
HETATM   15  C   UNL     1      -0.312   5.468 -31.777  1.00  0.00     0.255 C 
HETATM   16  H   UNL     1      -1.798   6.520 -32.806  1.00  0.00     0.280 HD
BRANCH  13  17
HETATM   17  C   UNL     1       0.152   7.398 -28.804  1.00  0.00     0.030 A 
HETATM   18  C   UNL     1       1.162   8.341 -28.543  1.00  0.00     0.032 A 
HETATM   19  C   UNL     1       1.711   8.499 -27.265  1.00  0.00     0.044 A 
HETATM   20  C   UNL     1       1.258   7.706 -26.224  1.00  0.00     0.116 A 
HETATM   21  C   UNL     1       0.270   6.760 -26.439  1.00  0.00     0.044 A 
HETATM   22  F   UNL     1       1.780   7.855 -25.000  1.00  0.00    -0.206 F 
HETATM   23  C   UNL     1      -0.276   6.611 -27.719  1.00  0.00     0.032 A 
ENDBRANCH  13  17
ENDBRANCH   9  10
ENDBRANCH   1   9
BRANCH   4  24
HETATM   24  C   UNL     1      -6.735   1.443 -32.981  1.00  0.00     0.129 C 
BRANCH  24  25
HETATM   25  C   UNL     1      -6.583   0.415 -34.106  1.00  0.00     0.060 C 
BRANCH  25  26
HETATM   26  C   UNL     1      -5.557  -0.659 -33.864  1.00  0.00    -0.029 A 
HETATM   27  C   UNL     1      -5.589  -2.044 -34.244  1.00  0.00     0.001 A 
HETATM   28  C   UNL     1      -4.418  -2.637 -33.759  1.00  0.00     0.043 A 
HETATM   29  C   UNL     1      -6.504  -2.862 -34.938  1.00  0.00     0.056 A 
HETATM   30  C   UNL     1      -4.126  -3.999 -33.919  1.00  0.00     0.033 A 
HETATM   31  N   UNL     1      -3.678  -1.646 -33.161  1.00  0.00    -0.365 N 
HETATM   32  C   UNL     1      -5.062  -4.788 -34.590  1.00  0.00     0.044 A 
HETATM   33  C   UNL     1      -6.225  -4.221 -35.089  1.00  0.00     0.117 A 
HETATM   34  F   UNL     1      -7.113  -4.999 -35.723  1.00  0.00    -0.206 F 
HETATM   35  H   UNL     1      -2.762  -1.780 -32.752  1.00  0.00     0.165 HD
HETATM   36  C   UNL     1      -4.359  -0.461 -33.201  1.00  0.00     0.096 A 
ENDBRANCH  25  26
ENDBRANCH  24  25
ENDBRANCH   4  24
TORSDOF 6
ENDMDL
MODEL 2
REMARK VINA RESULT:     -10.2      1.991     10.548
REMARK  6 active torsions:
REMARK  status: ('A' for Active; 'I' for Inactive)
REMARK    1  A    between atoms: C_2  and  N_3 
REMARK    2  A    between atoms: N_6  and  C_8 
REMARK    3  A    between atoms: C_8  and  C_9 
REMARK       I    between atoms: C_9  and  N_10 
REMARK       I    between atoms: N_10  and  C_11 
REMARK       I    between atoms: C_11  and  N_12 
REMARK    4  A    between atoms: N_12  and  C_13 
REMARK    5  A    between atoms: C_13  and  C_14 
REMARK    6  A    between atoms: C_14  and  C_15 
ROOT
HETATM    1  C   UNL     1      -6.300   4.645 -33.812  1.00  0.00     0.251 C 
HETATM    2  N   UNL     1      -5.136   4.978 -34.450  1.00  0.00    -0.278 N 
HETATM    3  C   UNL     1      -3.874   4.762 -33.956  1.00  0.00     0.322 C 
HETATM    4  N   UNL     1      -2.907   5.409 -34.676  1.00  0.00    -0.343 N 
HETATM    5  O   UNL     1      -3.648   4.029 -33.002  1.00  0.00    -0.247 OA
HETATM    6  O   UNL     1      -7.372   5.160 -34.146  1.00  0.00    -0.271 OA
HETATM    7  H   UNL     1      -5.236   5.655 -35.192  1.00  0.00     0.173 HD
HETATM    8  H   UNL     1      -3.186   6.229 -35.200  1.00  0.00     0.164 HD
ENDROOT
BRANCH   1   9
HETATM    9  C   UNL     1      -6.267   3.650 -32.641  1.00  0.00     0.337 C 
BRANCH   9  10
HETATM   10  N   UNL     1      -6.882   2.311 -33.059  1.00  0.00    -0.060 N 
HETATM   11  C   UNL     1      -6.402   1.848 -34.436  1.00  0.00     0.255 C 
HETATM   12  C   UNL     1      -7.140   0.559 -34.841  1.00  0.00     0.150 C 
HETATM   13  N   UNL     1      -6.972  -0.464 -33.799  1.00  0.00    -0.378 N 
HETATM   14  C   UNL     1      -7.392  -0.087 -32.441  1.00  0.00     0.150 C 
HETATM   15  C   UNL     1      -6.691   1.224 -32.013  1.00  0.00     0.255 C 
HETATM   16  H   UNL     1      -7.893   2.495 -33.159  1.00  0.00     0.280 HD
BRANCH  13  17
HETATM   17  C   UNL     1      -6.391  -1.691 -34.060  1.00  0.00     0.030 A 
HETATM   18  C   UNL     1      -7.144  -2.783 -34.527  1.00  0.00     0.032 A 
HETATM   19  C   UNL     1      -6.554  -4.022 -34.802  1.00  0.00     0.044 A 
HETATM   20  C   UNL     1      -5.193  -4.189 -34.606  1.00  0.00     0.116 A 
HETATM   21  C   UNL     1      -4.416  -3.142 -34.140  1.00  0.00     0.044 A 
HETATM   22  F   UNL     1      -4.625  -5.373 -34.869  1.00  0.00    -0.206 F 
HETATM   23  C   UNL     1      -5.014  -1.905 -33.872  1.00  0.00     0.032 A 
ENDBRANCH  13  17
ENDBRANCH   9  10
ENDBRANCH   1   9
BRANCH   4  24
HETATM   24  C   UNL     1      -1.534   5.435 -34.186  1.00  0.00     0.129 C 
BRANCH  24  25
HETATM   25  C   UNL     1      -1.020   6.840 -33.861  1.00  0.00     0.060 C 
BRANCH  25  26
HETATM   26  C   UNL     1      -1.195   7.276 -32.431  1.00  0.00    -0.029 A 
HETATM   27  C   UNL     1      -0.603   6.731 -31.240  1.00  0.00     0.001 A 
HETATM   28  C   UNL     1      -1.104   7.458 -30.156  1.00  0.00     0.043 A 
HETATM   29  C   UNL     1       0.298   5.681 -30.971  1.00  0.00     0.056 A 
HETATM   30  C   UNL     1      -0.765   7.179 -28.824  1.00  0.00     0.033 A 
HETATM   31  N   UNL     1      -1.921   8.438 -30.665  1.00  0.00    -0.365 N 
HETATM   32  C   UNL     1       0.110   6.118 -28.587  1.00  0.00     0.044 A 
HETATM   33  C   UNL     1       0.629   5.390 -29.647  1.00  0.00     0.117 A 
HETATM   34  F   UNL     1       1.462   4.370 -29.395  1.00  0.00    -0.206 F 
HETATM   35  H   UNL     1      -2.394   9.139 -30.109  1.00  0.00     0.165 HD
HETATM   36  C   UNL     1      -1.997   8.327 -32.025  1.00  0.00     0.096 A 
ENDBRANCH  25  26
ENDBRANCH  24  25
ENDBRANCH   4  24
TORSDOF 6
ENDMDL
MODEL 3
REMARK VINA RESULT:      -9.9      1.914      2.778
REMARK  6 active torsions:
REMARK  status: ('A' for Active; 'I' for Inactive)
REMARK    1  A    between atoms: C_2  and  N_3 
REMARK    2  A    between atoms: N_6  and  C_8 
REMARK    3  A    between atoms: C_8  and  C_9 
REMARK       I    between atoms: C_9  and  N_10 
REMARK       I    between atoms: N_10  and  C_11 
REMARK       I    between atoms: C_11  and  N_12 
REMARK    4  A    between atoms: N_12  and  C_13 
REMARK    5  A    between atoms: C_13  and  C_14 
REMARK    6  A    between atoms: C_14  and  C_15 
ROOT
HETATM    1  C   UNL     1      -2.371   5.661 -34.736  1.00  0.00     0.251 C 
HETATM    2  N   UNL     1      -3.539   4.993 -34.986  1.00  0.00    -0.278 N 
HETATM    3  C   UNL     1      -4.673   5.070 -34.217  1.00  0.00     0.322 C 
HETATM    4  N   UNL     1      -5.600   4.119 -34.546  1.00  0.00    -0.343 N 
HETATM    5  O   UNL     1      -4.843   5.931 -33.364  1.00  0.00    -0.247 OA
HETATM    6  O   UNL     1      -1.312   5.296 -35.256  1.00  0.00    -0.271 OA
HETATM    7  H   UNL     1      -3.453   4.206 -35.612  1.00  0.00     0.173 HD
HETATM    8  H   UNL     1      -5.263   3.274 -34.991  1.00  0.00     0.164 HD
ENDROOT
BRANCH   1   9
HETATM    9  C   UNL     1      -2.371   6.855 -33.769  1.00  0.00     0.337 C 
BRANCH   9  10
HETATM   10  N   UNL     1      -2.134   6.380 -32.332  1.00  0.00    -0.060 N 
HETATM   11  C   UNL     1      -0.685   5.958 -32.083  1.00  0.00     0.255 C 
HETATM   12  C   UNL     1      -0.542   5.390 -30.659  1.00  0.00     0.150 C 
HETATM   13  N   UNL     1      -1.033   6.368 -29.678  1.00  0.00    -0.378 N 
HETATM   14  C   UNL     1      -2.414   6.839 -29.861  1.00  0.00     0.150 C 
HETATM   15  C   UNL     1      -2.602   7.390 -31.294  1.00  0.00     0.255 C 
HETATM   16  H   UNL     1      -2.700   5.522 -32.231  1.00  0.00     0.280 HD
BRANCH  13  17
HETATM   17  C   UNL     1      -0.227   6.870 -28.673  1.00  0.00     0.030 A 
HETATM   18  C   UNL     1      -0.286   6.376 -27.358  1.00  0.00     0.032 A 
HETATM   19  C   UNL     1       0.538   6.878 -26.344  1.00  0.00     0.044 A 
HETATM   20  C   UNL     1       1.437   7.891 -26.633  1.00  0.00     0.116 A 
HETATM   21  C   UNL     1       1.523   8.411 -27.913  1.00  0.00     0.044 A 
HETATM   22  F   UNL     1       2.228   8.372 -25.666  1.00  0.00    -0.206 F 
HETATM   23  C   UNL     1       0.697   7.901 -28.922  1.00  0.00     0.032 A 
ENDBRANCH  13  17
ENDBRANCH   9  10
ENDBRANCH   1   9
BRANCH   4  24
HETATM   24  C   UNL     1      -6.785   3.942 -33.715  1.00  0.00     0.129 C 
BRANCH  24  25
HETATM   25  C   UNL     1      -6.776   2.649 -32.895  1.00  0.00     0.060 C 
BRANCH  25  26
HETATM   26  C   UNL     1      -6.966   1.383 -33.685  1.00  0.00    -0.029 A 
HETATM   27  C   UNL     1      -6.174   0.184 -33.678  1.00  0.00     0.001 A 
HETATM   28  C   UNL     1      -6.737  -0.693 -34.610  1.00  0.00     0.043 A 
HETATM   29  C   UNL     1      -5.022  -0.240 -32.985  1.00  0.00     0.056 A 
HETATM   30  C   UNL     1      -6.202  -1.958 -34.893  1.00  0.00     0.033 A 
HETATM   31  N   UNL     1      -7.856  -0.081 -35.122  1.00  0.00    -0.365 N 
HETATM   32  C   UNL     1      -5.047  -2.341 -34.208  1.00  0.00     0.044 A 
HETATM   33  C   UNL     1      -4.477  -1.493 -33.271  1.00  0.00     0.117 A 
HETATM   34  F   UNL     1      -3.364  -1.877 -32.631  1.00  0.00    -0.206 F 
HETATM   35  H   UNL     1      -8.484  -0.501 -35.794  1.00  0.00     0.165 HD
HETATM   36  C   UNL     1      -7.992   1.170 -34.588  1.00  0.00     0.096 A 
ENDBRANCH  25  26
ENDBRANCH  24  25
ENDBRANCH   4  24
TORSDOF 6
ENDMDL
MODEL 4
REMARK VINA RESULT:      -9.7      2.973      4.291
REMARK  6 active torsions:
REMARK  status: ('A' for Active; 'I' for Inactive)
REMARK    1  A    between atoms: C_2  and  N_3 
REMARK    2  A    between atoms: N_6  and  C_8 
REMARK    3  A    between atoms: C_8  and  C_9 
REMARK       I    between atoms: C_9  and  N_10 
REMARK       I    between atoms: N_10  and  C_11 
REMARK       I    between atoms: C_11  and  N_12 
REMARK    4  A    between atoms: N_12  and  C_13 
REMARK    5  A    between atoms: C_13  and  C_14 
REMARK    6  A    between atoms: C_14  and  C_15 
ROOT
HETATM    1  C   UNL     1      -8.967   3.897 -30.241  1.00  0.00     0.251 C 
HETATM    2  N   UNL     1      -9.626   2.886 -30.885  1.00  0.00    -0.278 N 
HETATM    3  C   UNL     1      -9.041   1.740 -31.363  1.00  0.00     0.322 C 
HETATM    4  N   UNL     1      -9.873   1.021 -32.176  1.00  0.00    -0.343 N 
HETATM    5  O   UNL     1      -7.911   1.387 -31.047  1.00  0.00    -0.247 OA
HETATM    6  O   UNL     1      -9.474   5.019 -30.144  1.00  0.00    -0.271 OA
HETATM    7  H   UNL     1     -10.530   3.136 -31.257  1.00  0.00     0.173 HD
HETATM    8  H   UNL     1     -10.616   1.524 -32.644  1.00  0.00     0.164 HD
ENDROOT
BRANCH   1   9
HETATM    9  C   UNL     1      -7.564   3.645 -29.665  1.00  0.00     0.337 C 
BRANCH   9  10
HETATM   10  N   UNL     1      -6.490   3.980 -30.705  1.00  0.00    -0.060 N 
HETATM   11  C   UNL     1      -6.194   5.479 -30.782  1.00  0.00     0.255 C 
HETATM   12  C   UNL     1      -5.192   5.756 -31.917  1.00  0.00     0.150 C 
HETATM   13  N   UNL     1      -3.984   4.940 -31.731  1.00  0.00    -0.378 N 
HETATM   14  C   UNL     1      -4.188   3.488 -31.626  1.00  0.00     0.150 C 
HETATM   15  C   UNL     1      -5.215   3.174 -30.513  1.00  0.00     0.255 C 
HETATM   16  H   UNL     1      -6.904   3.726 -31.616  1.00  0.00     0.280 HD
BRANCH  13  17
HETATM   17  C   UNL     1      -2.729   5.505 -31.595  1.00  0.00     0.030 A 
HETATM   18  C   UNL     1      -1.555   4.748 -31.753  1.00  0.00     0.032 A 
HETATM   19  C   UNL     1      -0.285   5.322 -31.626  1.00  0.00     0.044 A 
HETATM   20  C   UNL     1      -0.171   6.671 -31.331  1.00  0.00     0.116 A 
HETATM   21  C   UNL     1      -1.302   7.451 -31.160  1.00  0.00     0.044 A 
HETATM   22  F   UNL     1       1.042   7.224 -31.210  1.00  0.00    -0.206 F 
HETATM   23  C   UNL     1      -2.568   6.869 -31.292  1.00  0.00     0.032 A 
ENDBRANCH  13  17
ENDBRANCH   9  10
ENDBRANCH   1   9
BRANCH   4  24
HETATM   24  C   UNL     1      -9.356  -0.128 -32.910  1.00  0.00     0.129 C 
BRANCH  24  25
HETATM   25  C   UNL     1      -8.436   0.248 -34.075  1.00  0.00     0.060 C 
BRANCH  25  26
HETATM   26  C   UNL     1      -7.017  -0.240 -33.960  1.00  0.00    -0.029 A 
HETATM   27  C   UNL     1      -6.479  -1.539 -34.256  1.00  0.00     0.001 A 
HETATM   28  C   UNL     1      -5.114  -1.504 -33.952  1.00  0.00     0.043 A 
HETATM   29  C   UNL     1      -7.017  -2.750 -34.737  1.00  0.00     0.056 A 
HETATM   30  C   UNL     1      -4.270  -2.615 -34.090  1.00  0.00     0.033 A 
HETATM   31  N   UNL     1      -4.820  -0.226 -33.544  1.00  0.00    -0.365 N 
HETATM   32  C   UNL     1      -4.836  -3.807 -34.545  1.00  0.00     0.044 A 
HETATM   33  C   UNL     1      -6.185  -3.863 -34.864  1.00  0.00     0.117 A 
HETATM   34  F   UNL     1      -6.709  -5.020 -35.292  1.00  0.00    -0.206 F 
HETATM   35  H   UNL     1      -3.895   0.100 -33.294  1.00  0.00     0.165 HD
HETATM   36  C   UNL     1      -5.956   0.535 -33.527  1.00  0.00     0.096 A 
ENDBRANCH  25  26
ENDBRANCH  24  25
ENDBRANCH   4  24
TORSDOF 6
ENDMDL
MODEL 5
REMARK VINA RESULT:      -9.7      1.844     11.057
REMARK  6 active torsions:
REMARK  status: ('A' for Active; 'I' for Inactive)
REMARK    1  A    between atoms: C_2  and  N_3 
REMARK    2  A    between atoms: N_6  and  C_8 
REMARK    3  A    between atoms: C_8  and  C_9 
REMARK       I    between atoms: C_9  and  N_10 
REMARK       I    between atoms: N_10  and  C_11 
REMARK       I    between atoms: C_11  and  N_12 
REMARK    4  A    between atoms: N_12  and  C_13 
REMARK    5  A    between atoms: C_13  and  C_14 
REMARK    6  A    between atoms: C_14  and  C_15 
ROOT
HETATM    1  C   UNL     1      -5.137   4.453 -31.055  1.00  0.00     0.251 C 
HETATM    2  N   UNL     1      -4.250   5.207 -31.774  1.00  0.00    -0.278 N 
HETATM    3  C   UNL     1      -2.928   4.896 -31.973  1.00  0.00     0.322 C 
HETATM    4  N   UNL     1      -2.216   5.934 -32.509  1.00  0.00    -0.343 N 
HETATM    5  O   UNL     1      -2.460   3.790 -31.734  1.00  0.00    -0.247 OA
HETATM    6  O   UNL     1      -6.191   4.945 -30.641  1.00  0.00    -0.271 OA
HETATM    7  H   UNL     1      -4.531   6.165 -31.927  1.00  0.00     0.173 HD
HETATM    8  H   UNL     1      -2.569   6.870 -32.356  1.00  0.00     0.164 HD
ENDROOT
BRANCH   1   9
HETATM    9  C   UNL     1      -4.801   2.990 -30.728  1.00  0.00     0.337 C 
BRANCH   9  10
HETATM   10  N   UNL     1      -5.673   2.042 -31.556  1.00  0.00    -0.060 N 
HETATM   11  C   UNL     1      -5.138   1.839 -32.976  1.00  0.00     0.255 C 
HETATM   12  C   UNL     1      -6.118   0.969 -33.784  1.00  0.00     0.150 C 
HETATM   13  N   UNL     1      -6.366  -0.296 -33.077  1.00  0.00    -0.378 N 
HETATM   14  C   UNL     1      -6.862  -0.185 -31.698  1.00  0.00     0.150 C 
HETATM   15  C   UNL     1      -5.917   0.710 -30.862  1.00  0.00     0.255 C 
HETATM   16  H   UNL     1      -6.579   2.526 -31.662  1.00  0.00     0.280 HD
BRANCH  13  17
HETATM   17  C   UNL     1      -6.089  -1.524 -33.648  1.00  0.00     0.030 A 
HETATM   18  C   UNL     1      -7.101  -2.336 -34.190  1.00  0.00     0.032 A 
HETATM   19  C   UNL     1      -6.818  -3.574 -34.778  1.00  0.00     0.044 A 
HETATM   20  C   UNL     1      -5.509  -4.024 -34.827  1.00  0.00     0.116 A 
HETATM   21  C   UNL     1      -4.483  -3.260 -34.298  1.00  0.00     0.044 A 
HETATM   22  F   UNL     1      -5.235  -5.208 -35.389  1.00  0.00    -0.206 F 
HETATM   23  C   UNL     1      -4.775  -2.021 -33.716  1.00  0.00     0.032 A 
ENDBRANCH  13  17
ENDBRANCH   9  10
ENDBRANCH   1   9
BRANCH   4  24
HETATM   24  C   UNL     1      -0.765   5.837 -32.620  1.00  0.00     0.129 C 
BRANCH  24  25
HETATM   25  C   UNL     1      -0.011   6.801 -31.699  1.00  0.00     0.060 C 
BRANCH  25  26
HETATM   26  C   UNL     1       0.113   6.360 -30.266  1.00  0.00    -0.029 A 
HETATM   27  C   UNL     1      -0.134   7.108 -29.064  1.00  0.00     0.001 A 
HETATM   28  C   UNL     1       0.157   6.269 -27.983  1.00  0.00     0.043 A 
HETATM   29  C   UNL     1      -0.559   8.422 -28.782  1.00  0.00     0.056 A 
HETATM   30  C   UNL     1       0.059   6.679 -26.646  1.00  0.00     0.033 A 
HETATM   31  N   UNL     1       0.510   5.046 -28.501  1.00  0.00    -0.365 N 
HETATM   32  C   UNL     1      -0.343   7.994 -26.400  1.00  0.00     0.044 A 
HETATM   33  C   UNL     1      -0.647   8.841 -27.454  1.00  0.00     0.117 A 
HETATM   34  F   UNL     1      -1.022  10.101 -27.194  1.00  0.00    -0.206 F 
HETATM   35  H   UNL     1       0.738   4.231 -27.946  1.00  0.00     0.165 HD
HETATM   36  C   UNL     1       0.505   5.095 -29.867  1.00  0.00     0.096 A 
ENDBRANCH  25  26
ENDBRANCH  24  25
ENDBRANCH   4  24
TORSDOF 6
ENDMDL
MODEL 6
REMARK VINA RESULT:      -9.4      6.107      9.908
REMARK  6 active torsions:
REMARK  status: ('A' for Active; 'I' for Inactive)
REMARK    1  A    between atoms: C_2  and  N_3 
REMARK    2  A    between atoms: N_6  and  C_8 
REMARK    3  A    between atoms: C_8  and  C_9 
REMARK       I    between atoms: C_9  and  N_10 
REMARK       I    between atoms: N_10  and  C_11 
REMARK       I    between atoms: C_11  and  N_12 
REMARK    4  A    between atoms: N_12  and  C_13 
REMARK    5  A    between atoms: C_13  and  C_14 
REMARK    6  A    between atoms: C_14  and  C_15 
ROOT
HETATM    1  C   UNL     1      -6.658   3.728 -30.060  1.00  0.00     0.251 C 
HETATM    2  N   UNL     1      -7.792   4.490 -29.982  1.00  0.00    -0.278 N 
HETATM    3  C   UNL     1      -9.067   4.035 -30.208  1.00  0.00     0.322 C 
HETATM    4  N   UNL     1      -9.980   5.049 -30.310  1.00  0.00    -0.343 N 
HETATM    5  O   UNL     1      -9.350   2.845 -30.263  1.00  0.00    -0.247 OA
HETATM    6  O   UNL     1      -5.549   4.258 -30.177  1.00  0.00    -0.271 OA
HETATM    7  H   UNL     1      -7.639   5.487 -30.027  1.00  0.00     0.173 HD
HETATM    8  H   UNL     1      -9.637   5.959 -30.591  1.00  0.00     0.164 HD
ENDROOT
BRANCH   1   9
HETATM    9  C   UNL     1      -6.770   2.195 -30.038  1.00  0.00     0.337 C 
BRANCH   9  10
HETATM   10  N   UNL     1      -6.567   1.624 -31.445  1.00  0.00    -0.060 N 
HETATM   11  C   UNL     1      -5.181   1.002 -31.632  1.00  0.00     0.255 C 
HETATM   12  C   UNL     1      -5.004   0.550 -33.093  1.00  0.00     0.150 C 
HETATM   13  N   UNL     1      -6.097  -0.356 -33.473  1.00  0.00    -0.378 N 
HETATM   14  C   UNL     1      -7.462   0.162 -33.303  1.00  0.00     0.150 C 
HETATM   15  C   UNL     1      -7.667   0.655 -31.851  1.00  0.00     0.255 C 
HETATM   16  H   UNL     1      -6.598   2.439 -32.078  1.00  0.00     0.280 HD
BRANCH  13  17
HETATM   17  C   UNL     1      -5.864  -1.648 -33.907  1.00  0.00     0.030 A 
HETATM   18  C   UNL     1      -4.581  -2.222 -33.872  1.00  0.00     0.032 A 
HETATM   19  C   UNL     1      -4.348  -3.534 -34.301  1.00  0.00     0.044 A 
HETATM   20  C   UNL     1      -5.402  -4.294 -34.779  1.00  0.00     0.116 A 
HETATM   21  C   UNL     1      -6.680  -3.765 -34.838  1.00  0.00     0.044 A 
HETATM   22  F   UNL     1      -5.183  -5.550 -35.190  1.00  0.00    -0.206 F 
HETATM   23  C   UNL     1      -6.905  -2.453 -34.403  1.00  0.00     0.032 A 
ENDBRANCH  13  17
ENDBRANCH   9  10
ENDBRANCH   1   9
BRANCH   4  24
HETATM   24  C   UNL     1     -11.346   4.756 -30.725  1.00  0.00     0.129 C 
BRANCH  24  25
HETATM   25  C   UNL     1     -11.554   4.802 -32.242  1.00  0.00     0.060 C 
BRANCH  25  26
HETATM   26  C   UNL     1     -11.652   3.462 -32.920  1.00  0.00    -0.029 A 
HETATM   27  C   UNL     1     -12.804   2.623 -33.103  1.00  0.00     0.001 A 
HETATM   28  C   UNL     1     -12.376   1.465 -33.761  1.00  0.00     0.043 A 
HETATM   29  C   UNL     1     -14.168   2.721 -32.761  1.00  0.00     0.056 A 
HETATM   30  C   UNL     1     -13.233   0.402 -34.078  1.00  0.00     0.033 A 
HETATM   31  N   UNL     1     -11.035   1.615 -34.019  1.00  0.00    -0.365 N 
HETATM   32  C   UNL     1     -14.574   0.518 -33.705  1.00  0.00     0.044 A 
HETATM   33  C   UNL     1     -15.024   1.661 -33.062  1.00  0.00     0.117 A 
HETATM   34  F   UNL     1     -16.314   1.747 -32.707  1.00  0.00    -0.206 F 
HETATM   35  H   UNL     1     -10.466   0.944 -34.519  1.00  0.00     0.165 HD
HETATM   36  C   UNL     1     -10.587   2.800 -33.503  1.00  0.00     0.096 A 
ENDBRANCH  25  26
ENDBRANCH  24  25
ENDBRANCH   4  24
TORSDOF 6
ENDMDL
MODEL 7
REMARK VINA RESULT:      -9.4      2.002      2.535
REMARK  6 active torsions:
REMARK  status: ('A' for Active; 'I' for Inactive)
REMARK    1  A    between atoms: C_2  and  N_3 
REMARK    2  A    between atoms: N_6  and  C_8 
REMARK    3  A    between atoms: C_8  and  C_9 
REMARK       I    between atoms: C_9  and  N_10 
REMARK       I    between atoms: N_10  and  C_11 
REMARK       I    between atoms: C_11  and  N_12 
REMARK    4  A    between atoms: N_12  and  C_13 
REMARK    5  A    between atoms: C_13  and  C_14 
REMARK    6  A    between atoms: C_14  and  C_15 
ROOT
HETATM    1  C   UNL     1      -2.729   5.728 -33.713  1.00  0.00     0.251 C 
HETATM    2  N   UNL     1      -3.685   4.795 -33.416  1.00  0.00    -0.278 N 
HETATM    3  C   UNL     1      -3.459   3.616 -32.751  1.00  0.00     0.322 C 
HETATM    4  N   UNL     1      -4.528   2.763 -32.808  1.00  0.00    -0.343 N 
HETATM    5  O   UNL     1      -2.425   3.385 -32.136  1.00  0.00    -0.247 OA
HETATM    6  O   UNL     1      -2.927   6.579 -34.586  1.00  0.00    -0.271 OA
HETATM    7  H   UNL     1      -4.534   4.868 -33.957  1.00  0.00     0.173 HD
HETATM    8  H   UNL     1      -5.169   2.871 -33.584  1.00  0.00     0.164 HD
ENDROOT
BRANCH   1   9
HETATM    9  C   UNL     1      -1.379   5.692 -32.979  1.00  0.00     0.337 C 
BRANCH   9  10
HETATM   10  N   UNL     1      -1.556   6.102 -31.513  1.00  0.00    -0.060 N 
HETATM   11  C   UNL     1      -0.324   5.787 -30.662  1.00  0.00     0.255 C 
HETATM   12  C   UNL     1      -0.609   6.119 -29.186  1.00  0.00     0.150 C 
HETATM   13  N   UNL     1      -1.052   7.515 -29.063  1.00  0.00    -0.378 N 
HETATM   14  C   UNL     1      -2.220   7.902 -29.867  1.00  0.00     0.150 C 
HETATM   15  C   UNL     1      -1.981   7.553 -31.355  1.00  0.00     0.255 C 
HETATM   16  H   UNL     1      -2.311   5.498 -31.151  1.00  0.00     0.280 HD
BRANCH  13  17
HETATM   17  C   UNL     1      -0.374   8.436 -28.286  1.00  0.00     0.030 A 
HETATM   18  C   UNL     1      -1.014   9.566 -27.747  1.00  0.00     0.032 A 
HETATM   19  C   UNL     1      -0.329  10.492 -26.951  1.00  0.00     0.044 A 
HETATM   20  C   UNL     1       1.017  10.302 -26.686  1.00  0.00     0.116 A 
HETATM   21  C   UNL     1       1.687   9.207 -27.204  1.00  0.00     0.044 A 
HETATM   22  F   UNL     1       1.675  11.185 -25.925  1.00  0.00    -0.206 F 
HETATM   23  C   UNL     1       0.994   8.284 -27.995  1.00  0.00     0.032 A 
ENDBRANCH  13  17
ENDBRANCH   9  10
ENDBRANCH   1   9
BRANCH   4  24
HETATM   24  C   UNL     1      -4.395   1.400 -32.308  1.00  0.00     0.129 C 
BRANCH  24  25
HETATM   25  C   UNL     1      -5.674   0.567 -32.441  1.00  0.00     0.060 C 
BRANCH  25  26
HETATM   26  C   UNL     1      -5.546  -0.683 -33.267  1.00  0.00    -0.029 A 
HETATM   27  C   UNL     1      -4.726  -1.841 -33.038  1.00  0.00     0.001 A 
HETATM   28  C   UNL     1      -4.933  -2.718 -34.108  1.00  0.00     0.043 A 
HETATM   29  C   UNL     1      -3.812  -2.227 -32.036  1.00  0.00     0.056 A 
HETATM   30  C   UNL     1      -4.267  -3.945 -34.233  1.00  0.00     0.033 A 
HETATM   31  N   UNL     1      -5.880  -2.148 -34.924  1.00  0.00    -0.365 N 
HETATM   32  C   UNL     1      -3.350  -4.289 -33.237  1.00  0.00     0.044 A 
HETATM   33  C   UNL     1      -3.136  -3.441 -32.161  1.00  0.00     0.117 A 
HETATM   34  F   UNL     1      -2.246  -3.788 -31.221  1.00  0.00    -0.206 F 
HETATM   35  H   UNL     1      -6.254  -2.579 -35.760  1.00  0.00     0.165 HD
HETATM   36  C   UNL     1      -6.241  -0.921 -34.440  1.00  0.00     0.096 A 
ENDBRANCH  25  26
ENDBRANCH  24  25
ENDBRANCH   4  24
TORSDOF 6
ENDMDL
MODEL 8
REMARK VINA RESULT:      -9.4      1.619      2.264
REMARK  6 active torsions:
REMARK  status: ('A' for Active; 'I' for Inactive)
REMARK    1  A    between atoms: C_2  and  N_3 
REMARK    2  A    between atoms: N_6  and  C_8 
REMARK    3  A    between atoms: C_8  and  C_9 
REMARK       I    between atoms: C_9  and  N_10 
REMARK       I    between atoms: N_10  and  C_11 
REMARK       I    between atoms: C_11  and  N_12 
REMARK    4  A    between atoms: N_12  and  C_13 
REMARK    5  A    between atoms: C_13  and  C_14 
REMARK    6  A    between atoms: C_14  and  C_15 
ROOT
HETATM    1  C   UNL     1      -5.813   5.680 -32.808  1.00  0.00     0.251 C 
HETATM    2  N   UNL     1      -6.576   4.619 -32.404  1.00  0.00    -0.278 N 
HETATM    3  C   UNL     1      -6.824   3.493 -33.149  1.00  0.00     0.322 C 
HETATM    4  N   UNL     1      -7.810   2.711 -32.613  1.00  0.00    -0.343 N 
HETATM    5  O   UNL     1      -6.189   3.209 -34.157  1.00  0.00    -0.247 OA
HETATM    6  O   UNL     1      -5.908   6.776 -32.246  1.00  0.00    -0.271 OA
HETATM    7  H   UNL     1      -7.197   4.811 -31.631  1.00  0.00     0.173 HD
HETATM    8  H   UNL     1      -8.488   3.162 -32.012  1.00  0.00     0.164 HD
ENDROOT
BRANCH   1   9
HETATM    9  C   UNL     1      -4.856   5.517 -34.000  1.00  0.00     0.337 C 
BRANCH   9  10
HETATM   10  N   UNL     1      -3.414   5.358 -33.510  1.00  0.00    -0.060 N 
HETATM   11  C   UNL     1      -2.702   6.701 -33.332  1.00  0.00     0.255 C 
HETATM   12  C   UNL     1      -1.230   6.465 -32.947  1.00  0.00     0.150 C 
HETATM   13  N   UNL     1      -1.154   5.612 -31.753  1.00  0.00    -0.378 N 
HETATM   14  C   UNL     1      -1.833   4.311 -31.837  1.00  0.00     0.150 C 
HETATM   15  C   UNL     1      -3.310   4.507 -32.253  1.00  0.00     0.255 C 
HETATM   16  H   UNL     1      -2.917   4.874 -34.275  1.00  0.00     0.280 HD
BRANCH  13  17
HETATM   17  C   UNL     1      -0.536   6.029 -30.589  1.00  0.00     0.030 A 
HETATM   18  C   UNL     1       0.222   5.150 -29.795  1.00  0.00     0.032 A 
HETATM   19  C   UNL     1       0.856   5.576 -28.623  1.00  0.00     0.044 A 
HETATM   20  C   UNL     1       0.736   6.897 -28.221  1.00  0.00     0.116 A 
HETATM   21  C   UNL     1      -0.007   7.793 -28.970  1.00  0.00     0.044 A 
HETATM   22  F   UNL     1       1.342   7.308 -27.101  1.00  0.00    -0.206 F 
HETATM   23  C   UNL     1      -0.635   7.359 -30.143  1.00  0.00     0.032 A 
ENDBRANCH  13  17
ENDBRANCH   9  10
ENDBRANCH   1   9
BRANCH   4  24
HETATM   24  C   UNL     1      -8.322   1.572 -33.367  1.00  0.00     0.129 C 
BRANCH  24  25
HETATM   25  C   UNL     1      -8.086   0.223 -32.682  1.00  0.00     0.060 C 
BRANCH  25  26
HETATM   26  C   UNL     1      -6.723  -0.379 -32.896  1.00  0.00    -0.029 A 
HETATM   27  C   UNL     1      -6.359  -1.558 -33.633  1.00  0.00     0.001 A 
HETATM   28  C   UNL     1      -4.976  -1.719 -33.505  1.00  0.00     0.043 A 
HETATM   29  C   UNL     1      -7.069  -2.517 -34.384  1.00  0.00     0.056 A 
HETATM   30  C   UNL     1      -4.274  -2.791 -34.073  1.00  0.00     0.033 A 
HETATM   31  N   UNL     1      -4.508  -0.656 -32.772  1.00  0.00    -0.365 N 
HETATM   32  C   UNL     1      -5.007  -3.738 -34.792  1.00  0.00     0.044 A 
HETATM   33  C   UNL     1      -6.378  -3.593 -34.942  1.00  0.00     0.117 A 
HETATM   34  F   UNL     1      -7.063  -4.518 -35.629  1.00  0.00    -0.206 F 
HETATM   35  H   UNL     1      -3.534  -0.493 -32.553  1.00  0.00     0.165 HD
HETATM   36  C   UNL     1      -5.548   0.143 -32.386  1.00  0.00     0.096 A 
ENDBRANCH  25  26
ENDBRANCH  24  25
ENDBRANCH   4  24
TORSDOF 6
ENDMDL
MODEL 9
REMARK VINA RESULT:      -9.3      1.492     11.128
REMARK  6 active torsions:
REMARK  status: ('A' for Active; 'I' for Inactive)
REMARK    1  A    between atoms: C_2  and  N_3 
REMARK    2  A    between atoms: N_6  and  C_8 
REMARK    3  A    between atoms: C_8  and  C_9 
REMARK       I    between atoms: C_9  and  N_10 
REMARK       I    between atoms: N_10  and  C_11 
REMARK       I    between atoms: C_11  and  N_12 
REMARK    4  A    between atoms: N_12  and  C_13 
REMARK    5  A    between atoms: C_13  and  C_14 
REMARK    6  A    between atoms: C_14  and  C_15 
ROOT
HETATM    1  C   UNL     1      -4.094   4.539 -33.547  1.00  0.00     0.251 C 
HETATM    2  N   UNL     1      -2.737   4.541 -33.372  1.00  0.00    -0.278 N 
HETATM    3  C   UNL     1      -2.093   4.804 -32.188  1.00  0.00     0.322 C 
HETATM    4  N   UNL     1      -0.746   4.985 -32.349  1.00  0.00    -0.343 N 
HETATM    5  O   UNL     1      -2.667   4.824 -31.107  1.00  0.00    -0.247 OA
HETATM    6  O   UNL     1      -4.584   4.630 -34.676  1.00  0.00    -0.271 OA
HETATM    7  H   UNL     1      -2.198   4.619 -34.222  1.00  0.00     0.173 HD
HETATM    8  H   UNL     1      -0.421   5.287 -33.259  1.00  0.00     0.164 HD
ENDROOT
BRANCH   1   9
HETATM    9  C   UNL     1      -5.018   4.462 -32.321  1.00  0.00     0.337 C 
BRANCH   9  10
HETATM   10  N   UNL     1      -5.398   3.007 -32.028  1.00  0.00    -0.060 N 
HETATM   11  C   UNL     1      -6.568   2.522 -32.887  1.00  0.00     0.255 C 
HETATM   12  C   UNL     1      -6.969   1.096 -32.466  1.00  0.00     0.150 C 
HETATM   13  N   UNL     1      -5.800   0.207 -32.530  1.00  0.00    -0.378 N 
HETATM   14  C   UNL     1      -4.626   0.617 -31.746  1.00  0.00     0.150 C 
HETATM   15  C   UNL     1      -4.213   2.059 -32.121  1.00  0.00     0.255 C 
HETATM   16  H   UNL     1      -5.743   3.006 -31.055  1.00  0.00     0.280 HD
BRANCH  13  17
HETATM   17  C   UNL     1      -5.776  -0.920 -33.330  1.00  0.00     0.030 A 
HETATM   18  C   UNL     1      -4.569  -1.529 -33.718  1.00  0.00     0.032 A 
HETATM   19  C   UNL     1      -4.545  -2.676 -34.519  1.00  0.00     0.044 A 
HETATM   20  C   UNL     1      -5.738  -3.231 -34.953  1.00  0.00     0.116 A 
HETATM   21  C   UNL     1      -6.948  -2.659 -34.601  1.00  0.00     0.044 A 
HETATM   22  F   UNL     1      -5.719  -4.329 -35.719  1.00  0.00    -0.206 F 
HETATM   23  C   UNL     1      -6.963  -1.514 -33.796  1.00  0.00     0.032 A 
ENDBRANCH  13  17
ENDBRANCH   9  10
ENDBRANCH   1   9
BRANCH   4  24
HETATM   24  C   UNL     1       0.062   5.447 -31.227  1.00  0.00     0.129 C 
BRANCH  24  25
HETATM   25  C   UNL     1       0.197   6.971 -31.149  1.00  0.00     0.060 C 
BRANCH  25  26
HETATM   26  C   UNL     1      -0.539   7.627 -30.012  1.00  0.00    -0.029 A 
HETATM   27  C   UNL     1      -0.083   7.903 -28.678  1.00  0.00     0.001 A 
HETATM   28  C   UNL     1      -1.147   8.491 -27.987  1.00  0.00     0.043 A 
HETATM   29  C   UNL     1       1.124   7.696 -27.979  1.00  0.00     0.056 A 
HETATM   30  C   UNL     1      -1.070   8.867 -26.638  1.00  0.00     0.033 A 
HETATM   31  N   UNL     1      -2.187   8.621 -28.875  1.00  0.00    -0.365 N 
HETATM   32  C   UNL     1       0.130   8.628 -25.966  1.00  0.00     0.044 A 
HETATM   33  C   UNL     1       1.203   8.056 -26.633  1.00  0.00     0.117 A 
HETATM   34  F   UNL     1       2.343   7.829 -25.966  1.00  0.00    -0.206 F 
HETATM   35  H   UNL     1      -3.078   9.050 -28.658  1.00  0.00     0.165 HD
HETATM   36  C   UNL     1      -1.840   8.090 -30.086  1.00  0.00     0.096 A 
ENDBRANCH  25  26
ENDBRANCH  24  25
ENDBRANCH   4  24
TORSDOF 6
ENDMDL
MODEL 10
REMARK VINA RESULT:      -9.2      3.452      9.881
REMARK  6 active torsions:
REMARK  status: ('A' for Active; 'I' for Inactive)
REMARK    1  A    between atoms: C_2  and  N_3 
REMARK    2  A    between atoms: N_6  and  C_8 
REMARK    3  A    between atoms: C_8  and  C_9 
REMARK       I    between atoms: C_9  and  N_10 
REMARK       I    between atoms: N_10  and  C_11 
REMARK       I    between atoms: C_11  and  N_12 
REMARK    4  A    between atoms: N_12  and  C_13 
REMARK    5  A    between atoms: C_13  and  C_14 
REMARK    6  A    between atoms: C_14  and  C_15 
ROOT
HETATM    1  C   UNL     1      -8.059   3.879 -30.819  1.00  0.00     0.251 C 
HETATM    2  N   UNL     1      -7.339   5.032 -30.976  1.00  0.00    -0.278 N 
HETATM    3  C   UNL     1      -6.083   5.255 -30.467  1.00  0.00     0.322 C 
HETATM    4  N   UNL     1      -5.703   6.566 -30.557  1.00  0.00    -0.343 N 
HETATM    5  O   UNL     1      -5.374   4.360 -30.026  1.00  0.00    -0.247 OA
HETATM    6  O   UNL     1      -9.280   3.868 -31.004  1.00  0.00    -0.271 OA
HETATM    7  H   UNL     1      -7.881   5.839 -31.248  1.00  0.00     0.173 HD
HETATM    8  H   UNL     1      -6.436   7.263 -30.604  1.00  0.00     0.164 HD
ENDROOT
BRANCH   1   9
HETATM    9  C   UNL     1      -7.346   2.593 -30.370  1.00  0.00     0.337 C 
BRANCH   9  10
HETATM   10  N   UNL     1      -6.575   1.973 -31.540  1.00  0.00    -0.060 N 
HETATM   11  C   UNL     1      -5.591   0.892 -31.087  1.00  0.00     0.255 C 
HETATM   12  C   UNL     1      -4.774   0.391 -32.292  1.00  0.00     0.150 C 
HETATM   13  N   UNL     1      -5.678  -0.064 -33.357  1.00  0.00    -0.378 N 
HETATM   14  C   UNL     1      -6.669   0.913 -33.833  1.00  0.00     0.150 C 
HETATM   15  C   UNL     1      -7.489   1.462 -32.642  1.00  0.00     0.255 C 
HETATM   16  H   UNL     1      -5.997   2.738 -31.922  1.00  0.00     0.280 HD
BRANCH  13  17
HETATM   17  C   UNL     1      -5.648  -1.357 -33.845  1.00  0.00     0.030 A 
HETATM   18  C   UNL     1      -6.816  -2.018 -34.265  1.00  0.00     0.032 A 
HETATM   19  C   UNL     1      -6.784  -3.324 -34.769  1.00  0.00     0.044 A 
HETATM   20  C   UNL     1      -5.574  -3.993 -34.855  1.00  0.00     0.116 A 
HETATM   21  C   UNL     1      -4.402  -3.381 -34.445  1.00  0.00     0.044 A 
HETATM   22  F   UNL     1      -5.539  -5.242 -35.337  1.00  0.00    -0.206 F 
HETATM   23  C   UNL     1      -4.443  -2.074 -33.946  1.00  0.00     0.032 A 
ENDBRANCH  13  17
ENDBRANCH   9  10
ENDBRANCH   1   9
BRANCH   4  24
HETATM   24  C   UNL     1      -4.477   7.011 -29.906  1.00  0.00     0.129 C 
BRANCH  24  25
HETATM   25  C   UNL     1      -3.682   8.036 -30.720  1.00  0.00     0.060 C 
BRANCH  25  26
HETATM   26  C   UNL     1      -2.587   7.467 -31.581  1.00  0.00    -0.029 A 
HETATM   27  C   UNL     1      -2.693   6.664 -32.768  1.00  0.00     0.001 A 
HETATM   28  C   UNL     1      -1.393   6.355 -33.181  1.00  0.00     0.043 A 
HETATM   29  C   UNL     1      -3.765   6.153 -33.528  1.00  0.00     0.056 A 
HETATM   30  C   UNL     1      -1.113   5.554 -34.297  1.00  0.00     0.033 A 
HETATM   31  N   UNL     1      -0.531   6.987 -32.318  1.00  0.00    -0.365 N 
HETATM   32  C   UNL     1      -2.195   5.043 -35.015  1.00  0.00     0.044 A 
HETATM   33  C   UNL     1      -3.493   5.345 -34.633  1.00  0.00     0.117 A 
HETATM   34  F   UNL     1      -4.518   4.837 -35.332  1.00  0.00    -0.206 F 
HETATM   35  H   UNL     1       0.478   6.969 -32.397  1.00  0.00     0.165 HD
HETATM   36  C   UNL     1      -1.235   7.641 -31.345  1.00  0.00     0.096 A 
ENDBRANCH  25  26
ENDBRANCH  24  25
ENDBRANCH   4  24
TORSDOF 6
ENDMDL
