MODEL 1
REMARK VINA RESULT:      -8.3      0.000      0.000
REMARK  5 active torsions:
REMARK  status: ('A' for Active; 'I' for Inactive)
REMARK    1  A    between atoms: C_2  and  C_3 
REMARK    2  A    between atoms: C_7  and  C_8 
REMARK       I    between atoms: C_8  and  N_9 
REMARK    3  A    between atoms: N_9  and  C_10 
REMARK    4  A    between atoms: C_13  and  C_14 
REMARK       I    between atoms: C_14  and  N_15 
REMARK    5  A    between atoms: N_15  and  C_16 
ROOT
HETATM    1  C   UNL     1      -3.215   5.000 -31.333  1.00  0.00     0.035 A 
HETATM    2  C   UNL     1      -3.338   3.619 -31.492  1.00  0.00     0.030 A 
HETATM    3  C   UNL     1      -4.350   3.078 -32.297  1.00  0.00     0.019 A 
HETATM    4  C   UNL     1      -5.264   3.917 -32.945  1.00  0.00     0.032 A 
HETATM    5  C   UNL     1      -5.124   5.302 -32.810  1.00  0.00     0.019 A 
HETATM    6  C   UNL     1      -4.109   5.838 -32.010  1.00  0.00     0.030 A 
ENDROOT
BRANCH   1   7
HETATM    7  N   UNL     1      -2.245   5.622 -30.520  1.00  0.00    -0.322 N 
HETATM    8  C   UNL     1      -0.870   5.497 -30.593  1.00  0.00     0.274 C 
HETATM    9  O   UNL     1      -0.260   4.844 -31.432  1.00  0.00    -0.266 OA
HETATM   10  H   UNL     1      -2.604   6.214 -29.786  1.00  0.00     0.169 HD
BRANCH   8  11
HETATM   11  C   UNL     1      -0.151   6.215 -29.567  1.00  0.00     0.120 A 
HETATM   12  N   UNL     1       0.049   5.663 -28.328  1.00  0.00    -0.273 N 
HETATM   13  N   UNL     1       0.717   6.454 -27.474  1.00  0.00    -0.179 NA
HETATM   14  H   UNL     1      -0.259   4.746 -28.015  1.00  0.00     0.189 HD
HETATM   15  C   UNL     1       0.960   7.562 -28.181  1.00  0.00     0.056 A 
HETATM   16  C   UNL     1       0.445   7.461 -29.497  1.00  0.00     0.065 A 
BRANCH  15  17
HETATM   17  C   UNL     1       1.686   8.708 -27.565  1.00  0.00     0.056 C 
HETATM   18  C   UNL     1       2.041   8.450 -26.108  1.00  0.00     0.011 C 
ENDBRANCH  15  17
ENDBRANCH   8  11
ENDBRANCH   1   7
BRANCH   4  19
HETATM   19  C   UNL     1      -6.381   3.397 -33.786  1.00  0.00     0.252 C 
HETATM   20  N   UNL     1      -6.440   2.028 -33.959  1.00  0.00    -0.352 N 
HETATM   21  H   UNL     1      -5.871   1.446 -33.365  1.00  0.00     0.163 HD
HETATM   22  O   UNL     1      -7.208   4.174 -34.251  1.00  0.00    -0.268 OA
BRANCH  20  23
HETATM   23  C   UNL     1      -7.572   1.392 -34.626  1.00  0.00     0.084 C 
HETATM   24  C   UNL     1      -7.089   0.303 -35.592  1.00  0.00     0.025 C 
HETATM   25  C   UNL     1      -6.557  -0.938 -34.875  1.00  0.00     0.002 C 
HETATM   26  C   UNL     1      -7.564  -1.483 -33.867  1.00  0.00     0.000 C 
HETATM   27  C   UNL     1      -8.015  -0.411 -32.880  1.00  0.00     0.002 C 
HETATM   28  C   UNL     1      -8.562   0.823 -33.599  1.00  0.00     0.025 C 
ENDBRANCH  20  23
ENDBRANCH   4  19
TORSDOF 5
ENDMDL
MODEL 2
REMARK VINA RESULT:      -8.0      2.634      9.814
REMARK  5 active torsions:
REMARK  status: ('A' for Active; 'I' for Inactive)
REMARK    1  A    between atoms: C_2  and  C_3 
REMARK    2  A    between atoms: C_7  and  C_8 
REMARK       I    between atoms: C_8  and  N_9 
REMARK    3  A    between atoms: N_9  and  C_10 
REMARK    4  A    between atoms: C_13  and  C_14 
REMARK       I    between atoms: C_14  and  N_15 
REMARK    5  A    between atoms: N_15  and  C_16 
ROOT
HETATM    1  C   UNL     1      -4.168   2.781 -32.149  1.00  0.00     0.035 A 
HETATM    2  C   UNL     1      -4.904   3.540 -31.238  1.00  0.00     0.030 A 
HETATM    3  C   UNL     1      -4.428   4.779 -30.788  1.00  0.00     0.019 A 
HETATM    4  C   UNL     1      -3.197   5.270 -31.236  1.00  0.00     0.032 A 
HETATM    5  C   UNL     1      -2.472   4.524 -32.173  1.00  0.00     0.019 A 
HETATM    6  C   UNL     1      -2.953   3.291 -32.623  1.00  0.00     0.030 A 
ENDROOT
BRANCH   1   7
HETATM    7  N   UNL     1      -4.562   1.515 -32.629  1.00  0.00    -0.322 N 
HETATM    8  C   UNL     1      -4.161   0.273 -32.174  1.00  0.00     0.274 C 
HETATM    9  O   UNL     1      -3.413   0.072 -31.224  1.00  0.00    -0.266 OA
HETATM   10  H   UNL     1      -5.200   1.523 -33.411  1.00  0.00     0.169 HD
BRANCH   8  11
HETATM   11  C   UNL     1      -4.696  -0.839 -32.926  1.00  0.00     0.120 A 
HETATM   12  N   UNL     1      -3.906  -1.906 -33.266  1.00  0.00    -0.273 N 
HETATM   13  N   UNL     1      -4.535  -2.852 -33.979  1.00  0.00    -0.179 NA
HETATM   14  H   UNL     1      -2.923  -2.031 -33.037  1.00  0.00     0.189 HD
HETATM   15  C   UNL     1      -5.780  -2.384 -34.110  1.00  0.00     0.056 A 
HETATM   16  C   UNL     1      -5.935  -1.134 -33.464  1.00  0.00     0.065 A 
BRANCH  15  17
HETATM   17  C   UNL     1      -6.804  -3.159 -34.868  1.00  0.00     0.056 C 
HETATM   18  C   UNL     1      -6.319  -4.556 -35.227  1.00  0.00     0.011 C 
ENDBRANCH  15  17
ENDBRANCH   8  11
ENDBRANCH   1   7
BRANCH   4  19
HETATM   19  C   UNL     1      -2.625   6.565 -30.767  1.00  0.00     0.252 C 
HETATM   20  N   UNL     1      -1.855   6.522 -29.621  1.00  0.00    -0.352 N 
HETATM   21  H   UNL     1      -1.555   5.621 -29.280  1.00  0.00     0.163 HD
HETATM   22  O   UNL     1      -2.817   7.588 -31.414  1.00  0.00    -0.268 OA
BRANCH  20  23
HETATM   23  C   UNL     1      -1.114   7.690 -29.155  1.00  0.00     0.084 C 
HETATM   24  C   UNL     1      -1.617   8.137 -27.777  1.00  0.00     0.025 C 
HETATM   25  C   UNL     1      -1.209   7.182 -26.654  1.00  0.00     0.002 C 
HETATM   26  C   UNL     1       0.294   6.923 -26.651  1.00  0.00     0.000 C 
HETATM   27  C   UNL     1       0.790   6.441 -28.011  1.00  0.00     0.002 C 
HETATM   28  C   UNL     1       0.395   7.405 -29.130  1.00  0.00     0.025 C 
ENDBRANCH  20  23
ENDBRANCH   4  19
TORSDOF 5
ENDMDL
MODEL 3
REMARK VINA RESULT:      -7.6      2.639      9.880
REMARK  5 active torsions:
REMARK  status: ('A' for Active; 'I' for Inactive)
REMARK    1  A    between atoms: C_2  and  C_3 
REMARK    2  A    between atoms: C_7  and  C_8 
REMARK       I    between atoms: C_8  and  N_9 
REMARK    3  A    between atoms: N_9  and  C_10 
REMARK    4  A    between atoms: C_13  and  C_14 
REMARK       I    between atoms: C_14  and  N_15 
REMARK    5  A    between atoms: N_15  and  C_16 
ROOT
HETATM    1  C   UNL     1      -4.475   1.751 -32.316  1.00  0.00     0.035 A 
HETATM    2  C   UNL     1      -3.296   2.451 -32.579  1.00  0.00     0.030 A 
HETATM    3  C   UNL     1      -3.079   3.721 -32.027  1.00  0.00     0.019 A 
HETATM    4  C   UNL     1      -4.050   4.314 -31.212  1.00  0.00     0.032 A 
HETATM    5  C   UNL     1      -5.219   3.602 -30.923  1.00  0.00     0.019 A 
HETATM    6  C   UNL     1      -5.429   2.333 -31.472  1.00  0.00     0.030 A 
ENDROOT
BRANCH   1   7
HETATM    7  N   UNL     1      -4.783   0.485 -32.854  1.00  0.00    -0.322 N 
HETATM    8  C   UNL     1      -5.699   0.183 -33.844  1.00  0.00     0.274 C 
HETATM    9  O   UNL     1      -6.374   1.000 -34.460  1.00  0.00    -0.266 OA
HETATM   10  H   UNL     1      -4.284  -0.294 -32.451  1.00  0.00     0.169 HD
BRANCH   8  11
HETATM   11  C   UNL     1      -5.830  -1.228 -34.125  1.00  0.00     0.120 A 
HETATM   12  N   UNL     1      -7.050  -1.779 -34.415  1.00  0.00    -0.273 N 
HETATM   13  N   UNL     1      -7.019  -3.103 -34.635  1.00  0.00    -0.179 NA
HETATM   14  H   UNL     1      -7.940  -1.290 -34.469  1.00  0.00     0.189 HD
HETATM   15  C   UNL     1      -5.731  -3.426 -34.482  1.00  0.00     0.056 A 
HETATM   16  C   UNL     1      -4.945  -2.290 -34.170  1.00  0.00     0.065 A 
BRANCH  15  17
HETATM   17  C   UNL     1      -5.282  -4.839 -34.637  1.00  0.00     0.056 C 
HETATM   18  C   UNL     1      -3.999  -5.123 -33.870  1.00  0.00     0.011 C 
ENDBRANCH  15  17
ENDBRANCH   8  11
ENDBRANCH   1   7
BRANCH   4  19
HETATM   19  C   UNL     1      -3.888   5.676 -30.624  1.00  0.00     0.252 C 
HETATM   20  N   UNL     1      -2.663   5.963 -30.056  1.00  0.00    -0.352 N 
HETATM   21  H   UNL     1      -1.892   5.339 -30.239  1.00  0.00     0.163 HD
HETATM   22  O   UNL     1      -4.807   6.485 -30.695  1.00  0.00    -0.268 OA
BRANCH  20  23
HETATM   23  C   UNL     1      -2.332   7.308 -29.593  1.00  0.00     0.084 C 
HETATM   24  C   UNL     1      -1.958   7.293 -28.106  1.00  0.00     0.025 C 
HETATM   25  C   UNL     1      -0.596   6.651 -27.839  1.00  0.00     0.002 C 
HETATM   26  C   UNL     1       0.501   7.280 -28.692  1.00  0.00     0.000 C 
HETATM   27  C   UNL     1       0.148   7.260 -30.176  1.00  0.00     0.002 C 
HETATM   28  C   UNL     1      -1.207   7.917 -30.443  1.00  0.00     0.025 C 
ENDBRANCH  20  23
ENDBRANCH   4  19
TORSDOF 5
ENDMDL
MODEL 4
REMARK VINA RESULT:      -7.3      3.317     10.651
REMARK  5 active torsions:
REMARK  status: ('A' for Active; 'I' for Inactive)
REMARK    1  A    between atoms: C_2  and  C_3 
REMARK    2  A    between atoms: C_7  and  C_8 
REMARK       I    between atoms: C_8  and  N_9 
REMARK    3  A    between atoms: N_9  and  C_10 
REMARK    4  A    between atoms: C_13  and  C_14 
REMARK       I    between atoms: C_14  and  N_15 
REMARK    5  A    between atoms: N_15  and  C_16 
ROOT
HETATM    1  C   UNL     1      -7.495   2.609 -33.469  1.00  0.00     0.035 A 
HETATM    2  C   UNL     1      -6.751   3.658 -34.013  1.00  0.00     0.030 A 
HETATM    3  C   UNL     1      -5.458   3.934 -33.551  1.00  0.00     0.019 A 
HETATM    4  C   UNL     1      -4.894   3.169 -32.524  1.00  0.00     0.032 A 
HETATM    5  C   UNL     1      -5.626   2.098 -31.998  1.00  0.00     0.019 A 
HETATM    6  C   UNL     1      -6.914   1.823 -32.466  1.00  0.00     0.030 A 
ENDROOT
BRANCH   1   7
HETATM    7  N   UNL     1      -8.811   2.284 -33.858  1.00  0.00    -0.322 N 
HETATM    8  C   UNL     1      -9.972   2.982 -33.588  1.00  0.00     0.274 C 
HETATM    9  O   UNL     1     -10.035   4.051 -32.991  1.00  0.00    -0.266 OA
HETATM   10  H   UNL     1      -8.913   1.426 -34.379  1.00  0.00     0.169 HD
BRANCH   8  11
HETATM   11  C   UNL     1     -11.176   2.346 -34.071  1.00  0.00     0.120 A 
HETATM   12  N   UNL     1     -11.411   2.208 -35.413  1.00  0.00    -0.273 N 
HETATM   13  N   UNL     1     -12.578   1.615 -35.710  1.00  0.00    -0.179 NA
HETATM   14  H   UNL     1     -10.804   2.509 -36.171  1.00  0.00     0.189 HD
HETATM   15  C   UNL     1     -13.123   1.359 -34.517  1.00  0.00     0.056 A 
HETATM   16  C   UNL     1     -12.285   1.790 -33.460  1.00  0.00     0.065 A 
BRANCH  15  17
HETATM   17  C   UNL     1     -14.458   0.703 -34.420  1.00  0.00     0.056 C 
HETATM   18  C   UNL     1     -15.389   1.428 -33.459  1.00  0.00     0.011 C 
ENDBRANCH  15  17
ENDBRANCH   8  11
ENDBRANCH   1   7
BRANCH   4  19
HETATM   19  C   UNL     1      -3.536   3.437 -31.969  1.00  0.00     0.252 C 
HETATM   20  N   UNL     1      -3.121   4.754 -31.958  1.00  0.00    -0.352 N 
HETATM   21  H   UNL     1      -3.807   5.473 -32.128  1.00  0.00     0.163 HD
HETATM   22  O   UNL     1      -2.866   2.514 -31.518  1.00  0.00    -0.268 OA
BRANCH  20  23
HETATM   23  C   UNL     1      -1.883   5.160 -31.297  1.00  0.00     0.084 C 
HETATM   24  C   UNL     1      -0.787   5.448 -32.330  1.00  0.00     0.025 C 
HETATM   25  C   UNL     1      -1.028   6.740 -33.111  1.00  0.00     0.002 C 
HETATM   26  C   UNL     1      -1.256   7.928 -32.181  1.00  0.00     0.000 C 
HETATM   27  C   UNL     1      -2.373   7.657 -31.179  1.00  0.00     0.002 C 
HETATM   28  C   UNL     1      -2.123   6.373 -30.387  1.00  0.00     0.025 C 
ENDBRANCH  20  23
ENDBRANCH   4  19
TORSDOF 5
ENDMDL
MODEL 5
REMARK VINA RESULT:      -7.2      3.299     10.522
REMARK  5 active torsions:
REMARK  status: ('A' for Active; 'I' for Inactive)
REMARK    1  A    between atoms: C_2  and  C_3 
REMARK    2  A    between atoms: C_7  and  C_8 
REMARK       I    between atoms: C_8  and  N_9 
REMARK    3  A    between atoms: N_9  and  C_10 
REMARK    4  A    between atoms: C_13  and  C_14 
REMARK       I    between atoms: C_14  and  N_15 
REMARK    5  A    between atoms: N_15  and  C_16 
ROOT
HETATM    1  C   UNL     1      -7.324   2.343 -32.587  1.00  0.00     0.035 A 
HETATM    2  C   UNL     1      -6.461   2.753 -33.604  1.00  0.00     0.030 A 
HETATM    3  C   UNL     1      -5.157   3.176 -33.310  1.00  0.00     0.019 A 
HETATM    4  C   UNL     1      -4.704   3.206 -31.986  1.00  0.00     0.032 A 
HETATM    5  C   UNL     1      -5.558   2.767 -30.969  1.00  0.00     0.019 A 
HETATM    6  C   UNL     1      -6.856   2.341 -31.267  1.00  0.00     0.030 A 
ENDROOT
BRANCH   1   7
HETATM    7  N   UNL     1      -8.657   1.931 -32.795  1.00  0.00    -0.322 N 
HETATM    8  C   UNL     1      -9.109   0.681 -33.171  1.00  0.00     0.274 C 
HETATM    9  O   UNL     1      -8.405  -0.308 -33.342  1.00  0.00    -0.266 OA
HETATM   10  H   UNL     1      -9.359   2.645 -32.671  1.00  0.00     0.169 HD
BRANCH   8  11
HETATM   11  C   UNL     1     -10.538   0.598 -33.368  1.00  0.00     0.120 A 
HETATM   12  N   UNL     1     -11.250  -0.487 -32.928  1.00  0.00    -0.273 N 
HETATM   13  N   UNL     1     -12.563  -0.432 -33.199  1.00  0.00    -0.179 NA
HETATM   14  H   UNL     1     -10.880  -1.298 -32.439  1.00  0.00     0.189 HD
HETATM   15  C   UNL     1     -12.712   0.731 -33.840  1.00  0.00     0.056 A 
HETATM   16  C   UNL     1     -11.479   1.416 -33.966  1.00  0.00     0.065 A 
BRANCH  15  17
HETATM   17  C   UNL     1     -14.054   1.159 -34.328  1.00  0.00     0.056 C 
HETATM   18  C   UNL     1     -14.990   1.534 -33.188  1.00  0.00     0.011 C 
ENDBRANCH  15  17
ENDBRANCH   8  11
ENDBRANCH   1   7
BRANCH   4  19
HETATM   19  C   UNL     1      -3.340   3.678 -31.610  1.00  0.00     0.252 C 
HETATM   20  N   UNL     1      -3.087   5.027 -31.764  1.00  0.00    -0.352 N 
HETATM   21  H   UNL     1      -3.869   5.645 -31.921  1.00  0.00     0.163 HD
HETATM   22  O   UNL     1      -2.523   2.885 -31.155  1.00  0.00    -0.268 OA
BRANCH  20  23
HETATM   23  C   UNL     1      -1.849   5.632 -31.282  1.00  0.00     0.084 C 
HETATM   24  C   UNL     1      -1.080   6.286 -32.437  1.00  0.00     0.025 C 
HETATM   25  C   UNL     1      -1.742   7.567 -32.945  1.00  0.00     0.002 C 
HETATM   26  C   UNL     1      -2.007   8.553 -31.812  1.00  0.00     0.000 C 
HETATM   27  C   UNL     1      -2.806   7.915 -30.680  1.00  0.00     0.002 C 
HETATM   28  C   UNL     1      -2.134   6.643 -30.163  1.00  0.00     0.025 C 
ENDBRANCH  20  23
ENDBRANCH   4  19
TORSDOF 5
ENDMDL
MODEL 6
REMARK VINA RESULT:      -7.2      1.854      9.922
REMARK  5 active torsions:
REMARK  status: ('A' for Active; 'I' for Inactive)
REMARK    1  A    between atoms: C_2  and  C_3 
REMARK    2  A    between atoms: C_7  and  C_8 
REMARK       I    between atoms: C_8  and  N_9 
REMARK    3  A    between atoms: N_9  and  C_10 
REMARK    4  A    between atoms: C_13  and  C_14 
REMARK       I    between atoms: C_14  and  N_15 
REMARK    5  A    between atoms: N_15  and  C_16 
ROOT
HETATM    1  C   UNL     1      -3.982   3.652 -31.910  1.00  0.00     0.035 A 
HETATM    2  C   UNL     1      -2.629   3.869 -32.172  1.00  0.00     0.030 A 
HETATM    3  C   UNL     1      -1.986   5.027 -31.711  1.00  0.00     0.019 A 
HETATM    4  C   UNL     1      -2.697   5.991 -30.989  1.00  0.00     0.032 A 
HETATM    5  C   UNL     1      -4.047   5.761 -30.699  1.00  0.00     0.019 A 
HETATM    6  C   UNL     1      -4.683   4.602 -31.156  1.00  0.00     0.030 A 
ENDROOT
BRANCH   1   7
HETATM    7  N   UNL     1      -4.708   2.531 -32.361  1.00  0.00    -0.322 N 
HETATM    8  C   UNL     1      -5.656   2.482 -33.366  1.00  0.00     0.274 C 
HETATM    9  O   UNL     1      -5.989   3.425 -34.074  1.00  0.00    -0.266 OA
HETATM   10  H   UNL     1      -4.523   1.666 -31.875  1.00  0.00     0.169 HD
BRANCH   8  11
HETATM   11  C   UNL     1      -6.271   1.187 -33.542  1.00  0.00     0.120 A 
HETATM   12  N   UNL     1      -7.598   0.992 -33.259  1.00  0.00    -0.273 N 
HETATM   13  N   UNL     1      -8.024  -0.265 -33.453  1.00  0.00    -0.179 NA
HETATM   14  H   UNL     1      -8.256   1.691 -32.923  1.00  0.00     0.189 HD
HETATM   15  C   UNL     1      -6.935  -0.914 -33.877  1.00  0.00     0.056 A 
HETATM   16  C   UNL     1      -5.816  -0.051 -33.957  1.00  0.00     0.065 A 
BRANCH  15  17
HETATM   17  C   UNL     1      -6.998  -2.369 -34.195  1.00  0.00     0.056 C 
HETATM   18  C   UNL     1      -5.775  -2.844 -34.966  1.00  0.00     0.011 C 
ENDBRANCH  15  17
ENDBRANCH   8  11
ENDBRANCH   1   7
BRANCH   4  19
HETATM   19  C   UNL     1      -2.076   7.256 -30.502  1.00  0.00     0.252 C 
HETATM   20  N   UNL     1      -1.421   7.197 -29.287  1.00  0.00    -0.352 N 
HETATM   21  H   UNL     1      -1.222   6.289 -28.895  1.00  0.00     0.163 HD
HETATM   22  O   UNL     1      -2.129   8.269 -31.191  1.00  0.00    -0.268 OA
BRANCH  20  23
HETATM   23  C   UNL     1      -0.641   8.324 -28.783  1.00  0.00     0.084 C 
HETATM   24  C   UNL     1      -1.217   8.830 -27.455  1.00  0.00     0.025 C 
HETATM   25  C   UNL     1      -0.960   7.875 -26.289  1.00  0.00     0.002 C 
HETATM   26  C   UNL     1       0.518   7.518 -26.166  1.00  0.00     0.000 C 
HETATM   27  C   UNL     1       1.082   6.977 -27.476  1.00  0.00     0.002 C 
HETATM   28  C   UNL     1       0.839   7.941 -28.637  1.00  0.00     0.025 C 
ENDBRANCH  20  23
ENDBRANCH   4  19
TORSDOF 5
ENDMDL
MODEL 7
REMARK VINA RESULT:      -6.9     19.242     20.459
REMARK  5 active torsions:
REMARK  status: ('A' for Active; 'I' for Inactive)
REMARK    1  A    between atoms: C_2  and  C_3 
REMARK    2  A    between atoms: C_7  and  C_8 
REMARK       I    between atoms: C_8  and  N_9 
REMARK    3  A    between atoms: N_9  and  C_10 
REMARK    4  A    between atoms: C_13  and  C_14 
REMARK       I    between atoms: C_14  and  N_15 
REMARK    5  A    between atoms: N_15  and  C_16 
ROOT
HETATM    1  C   UNL     1      -6.594 -15.277 -33.551  1.00  0.00     0.035 A 
HETATM    2  C   UNL     1      -6.998 -13.978 -33.862  1.00  0.00     0.030 A 
HETATM    3  C   UNL     1      -7.072 -13.551 -35.196  1.00  0.00     0.019 A 
HETATM    4  C   UNL     1      -6.730 -14.420 -36.237  1.00  0.00     0.032 A 
HETATM    5  C   UNL     1      -6.354 -15.732 -35.928  1.00  0.00     0.019 A 
HETATM    6  C   UNL     1      -6.286 -16.156 -34.597  1.00  0.00     0.030 A 
ENDROOT
BRANCH   1   7
HETATM    7  N   UNL     1      -6.466 -15.775 -32.238  1.00  0.00    -0.322 N 
HETATM    8  C   UNL     1      -5.392 -15.635 -31.379  1.00  0.00     0.274 C 
HETATM    9  O   UNL     1      -4.372 -14.998 -31.615  1.00  0.00    -0.266 OA
HETATM   10  H   UNL     1      -7.248 -16.313 -31.896  1.00  0.00     0.169 HD
BRANCH   8  11
HETATM   11  C   UNL     1      -5.543 -16.325 -30.118  1.00  0.00     0.120 A 
HETATM   12  N   UNL     1      -6.785 -16.595 -29.607  1.00  0.00    -0.273 N 
HETATM   13  N   UNL     1      -6.767 -17.224 -28.421  1.00  0.00    -0.179 NA
HETATM   14  H   UNL     1      -7.680 -16.364 -30.030  1.00  0.00     0.189 HD
HETATM   15  C   UNL     1      -5.467 -17.367 -28.150  1.00  0.00     0.056 A 
HETATM   16  C   UNL     1      -4.660 -16.829 -29.182  1.00  0.00     0.065 A 
BRANCH  15  17
HETATM   17  C   UNL     1      -5.025 -18.022 -26.886  1.00  0.00     0.056 C 
HETATM   18  C   UNL     1      -3.557 -18.419 -26.925  1.00  0.00     0.011 C 
ENDBRANCH  15  17
ENDBRANCH   8  11
ENDBRANCH   1   7
BRANCH   4  19
HETATM   19  C   UNL     1      -6.758 -14.013 -37.672  1.00  0.00     0.252 C 
HETATM   20  N   UNL     1      -7.989 -13.662 -38.192  1.00  0.00    -0.352 N 
HETATM   21  H   UNL     1      -8.751 -13.504 -37.550  1.00  0.00     0.163 HD
HETATM   22  O   UNL     1      -5.715 -13.966 -38.315  1.00  0.00    -0.268 OA
BRANCH  20  23
HETATM   23  C   UNL     1      -8.119 -13.095 -39.531  1.00  0.00     0.084 C 
HETATM   24  C   UNL     1      -8.188 -14.207 -40.585  1.00  0.00     0.025 C 
HETATM   25  C   UNL     1      -9.512 -14.970 -40.562  1.00  0.00     0.002 C 
HETATM   26  C   UNL     1     -10.708 -14.028 -40.655  1.00  0.00     0.000 C 
HETATM   27  C   UNL     1     -10.661 -12.945 -39.582  1.00  0.00     0.002 C 
HETATM   28  C   UNL     1      -9.342 -12.172 -39.617  1.00  0.00     0.025 C 
ENDBRANCH  20  23
ENDBRANCH   4  19
TORSDOF 5
ENDMDL
MODEL 8
REMARK VINA RESULT:      -6.8     18.524     20.284
REMARK  5 active torsions:
REMARK  status: ('A' for Active; 'I' for Inactive)
REMARK    1  A    between atoms: C_2  and  C_3 
REMARK    2  A    between atoms: C_7  and  C_8 
REMARK       I    between atoms: C_8  and  N_9 
REMARK    3  A    between atoms: N_9  and  C_10 
REMARK    4  A    between atoms: C_13  and  C_14 
REMARK       I    between atoms: C_14  and  N_15 
REMARK    5  A    between atoms: N_15  and  C_16 
ROOT
HETATM    1  C   UNL     1      -5.079 -15.041 -33.508  1.00  0.00     0.035 A 
HETATM    2  C   UNL     1      -4.477 -15.786 -34.523  1.00  0.00     0.030 A 
HETATM    3  C   UNL     1      -4.148 -15.192 -35.749  1.00  0.00     0.019 A 
HETATM    4  C   UNL     1      -4.431 -13.841 -35.980  1.00  0.00     0.032 A 
HETATM    5  C   UNL     1      -5.008 -13.085 -34.953  1.00  0.00     0.019 A 
HETATM    6  C   UNL     1      -5.329 -13.681 -33.729  1.00  0.00     0.030 A 
ENDROOT
BRANCH   1   7
HETATM    7  N   UNL     1      -5.467 -15.569 -32.259  1.00  0.00    -0.322 N 
HETATM    8  C   UNL     1      -4.730 -15.612 -31.091  1.00  0.00     0.274 C 
HETATM    9  O   UNL     1      -3.608 -15.142 -30.941  1.00  0.00    -0.266 OA
HETATM   10  H   UNL     1      -6.387 -15.982 -32.226  1.00  0.00     0.169 HD
BRANCH   8  11
HETATM   11  C   UNL     1      -5.388 -16.286 -29.995  1.00  0.00     0.120 A 
HETATM   12  N   UNL     1      -4.783 -16.399 -28.771  1.00  0.00    -0.273 N 
HETATM   13  N   UNL     1      -5.506 -17.065 -27.858  1.00  0.00    -0.179 NA
HETATM   14  H   UNL     1      -3.868 -16.040 -28.510  1.00  0.00     0.189 HD
HETATM   15  C   UNL     1      -6.623 -17.399 -28.511  1.00  0.00     0.056 A 
HETATM   16  C   UNL     1      -6.602 -16.930 -29.847  1.00  0.00     0.065 A 
BRANCH  15  17
HETATM   17  C   UNL     1      -7.696 -18.177 -27.828  1.00  0.00     0.056 C 
HETATM   18  C   UNL     1      -9.088 -17.675 -28.184  1.00  0.00     0.011 C 
ENDBRANCH  15  17
ENDBRANCH   8  11
ENDBRANCH   1   7
BRANCH   4  19
HETATM   19  C   UNL     1      -4.135 -13.163 -37.275  1.00  0.00     0.252 C 
HETATM   20  N   UNL     1      -4.629 -13.765 -38.416  1.00  0.00    -0.352 N 
HETATM   21  H   UNL     1      -5.317 -14.496 -38.311  1.00  0.00     0.163 HD
HETATM   22  O   UNL     1      -3.514 -12.106 -37.284  1.00  0.00    -0.268 OA
BRANCH  20  23
HETATM   23  C   UNL     1      -4.542 -13.116 -39.721  1.00  0.00     0.084 C 
HETATM   24  C   UNL     1      -4.706 -14.143 -40.848  1.00  0.00     0.025 C 
HETATM   25  C   UNL     1      -6.137 -14.661 -40.980  1.00  0.00     0.002 C 
HETATM   26  C   UNL     1      -7.142 -13.520 -41.103  1.00  0.00     0.000 C 
HETATM   27  C   UNL     1      -7.007 -12.519 -39.961  1.00  0.00     0.002 C 
HETATM   28  C   UNL     1      -5.578 -11.989 -39.840  1.00  0.00     0.025 C 
ENDBRANCH  20  23
ENDBRANCH   4  19
TORSDOF 5
ENDMDL
MODEL 9
REMARK VINA RESULT:      -6.6     18.879     19.805
REMARK  5 active torsions:
REMARK  status: ('A' for Active; 'I' for Inactive)
REMARK    1  A    between atoms: C_2  and  C_3 
REMARK    2  A    between atoms: C_7  and  C_8 
REMARK       I    between atoms: C_8  and  N_9 
REMARK    3  A    between atoms: N_9  and  C_10 
REMARK    4  A    between atoms: C_13  and  C_14 
REMARK       I    between atoms: C_14  and  N_15 
REMARK    5  A    between atoms: N_15  and  C_16 
ROOT
HETATM    1  C   UNL     1      -5.470 -14.612 -33.957  1.00  0.00     0.035 A 
HETATM    2  C   UNL     1      -6.469 -13.639 -33.897  1.00  0.00     0.030 A 
HETATM    3  C   UNL     1      -7.203 -13.293 -35.040  1.00  0.00     0.019 A 
HETATM    4  C   UNL     1      -6.935 -13.912 -36.267  1.00  0.00     0.032 A 
HETATM    5  C   UNL     1      -5.955 -14.909 -36.322  1.00  0.00     0.019 A 
HETATM    6  C   UNL     1      -5.229 -15.254 -35.178  1.00  0.00     0.030 A 
ENDROOT
BRANCH   1   7
HETATM    7  N   UNL     1      -4.669 -14.996 -32.862  1.00  0.00    -0.322 N 
HETATM    8  C   UNL     1      -5.037 -15.753 -31.766  1.00  0.00     0.274 C 
HETATM    9  O   UNL     1      -6.138 -16.264 -31.593  1.00  0.00    -0.266 OA
HETATM   10  H   UNL     1      -3.719 -14.657 -32.876  1.00  0.00     0.169 HD
BRANCH   8  11
HETATM   11  C   UNL     1      -3.997 -15.914 -30.776  1.00  0.00     0.120 A 
HETATM   12  N   UNL     1      -2.815 -15.229 -30.878  1.00  0.00    -0.273 N 
HETATM   13  N   UNL     1      -1.938 -15.494 -29.897  1.00  0.00    -0.179 NA
HETATM   14  H   UNL     1      -2.556 -14.569 -31.607  1.00  0.00     0.189 HD
HETATM   15  C   UNL     1      -2.573 -16.385 -29.129  1.00  0.00     0.056 A 
HETATM   16  C   UNL     1      -3.864 -16.676 -29.631  1.00  0.00     0.065 A 
BRANCH  15  17
HETATM   17  C   UNL     1      -1.910 -16.948 -27.918  1.00  0.00     0.056 C 
HETATM   18  C   UNL     1      -0.508 -16.391 -27.717  1.00  0.00     0.011 C 
ENDBRANCH  15  17
ENDBRANCH   8  11
ENDBRANCH   1   7
BRANCH   4  19
HETATM   19  C   UNL     1      -7.660 -13.562 -37.523  1.00  0.00     0.252 C 
HETATM   20  N   UNL     1      -6.884 -13.166 -38.595  1.00  0.00    -0.352 N 
HETATM   21  H   UNL     1      -5.889 -13.323 -38.549  1.00  0.00     0.163 HD
HETATM   22  O   UNL     1      -8.880 -13.670 -37.575  1.00  0.00    -0.268 OA
BRANCH  20  23
HETATM   23  C   UNL     1      -7.463 -12.953 -39.919  1.00  0.00     0.084 C 
HETATM   24  C   UNL     1      -6.526 -12.106 -40.789  1.00  0.00     0.025 C 
HETATM   25  C   UNL     1      -5.278 -12.866 -41.238  1.00  0.00     0.002 C 
HETATM   26  C   UNL     1      -5.633 -14.189 -41.910  1.00  0.00     0.000 C 
HETATM   27  C   UNL     1      -6.533 -15.049 -41.029  1.00  0.00     0.002 C 
HETATM   28  C   UNL     1      -7.788 -14.293 -40.594  1.00  0.00     0.025 C 
ENDBRANCH  20  23
ENDBRANCH   4  19
TORSDOF 5
ENDMDL
MODEL 10
REMARK VINA RESULT:      -6.6      3.287      9.634
REMARK  5 active torsions:
REMARK  status: ('A' for Active; 'I' for Inactive)
REMARK    1  A    between atoms: C_2  and  C_3 
REMARK    2  A    between atoms: C_7  and  C_8 
REMARK       I    between atoms: C_8  and  N_9 
REMARK    3  A    between atoms: N_9  and  C_10 
REMARK    4  A    between atoms: C_13  and  C_14 
REMARK       I    between atoms: C_14  and  N_15 
REMARK    5  A    between atoms: N_15  and  C_16 
ROOT
HETATM    1  C   UNL     1      -4.175   2.861 -32.345  1.00  0.00     0.035 A 
HETATM    2  C   UNL     1      -2.920   3.329 -32.739  1.00  0.00     0.030 A 
HETATM    3  C   UNL     1      -2.382   4.496 -32.178  1.00  0.00     0.019 A 
HETATM    4  C   UNL     1      -3.103   5.219 -31.221  1.00  0.00     0.032 A 
HETATM    5  C   UNL     1      -4.348   4.735 -30.803  1.00  0.00     0.019 A 
HETATM    6  C   UNL     1      -4.878   3.567 -31.362  1.00  0.00     0.030 A 
ENDROOT
BRANCH   1   7
HETATM    7  N   UNL     1      -4.797   1.714 -32.880  1.00  0.00    -0.322 N 
HETATM    8  C   UNL     1      -4.410   0.395 -32.739  1.00  0.00     0.274 C 
HETATM    9  O   UNL     1      -3.463   0.001 -32.069  1.00  0.00    -0.266 OA
HETATM   10  H   UNL     1      -5.613   1.885 -33.449  1.00  0.00     0.169 HD
BRANCH   8  11
HETATM   11  C   UNL     1      -5.225  -0.547 -33.472  1.00  0.00     0.120 A 
HETATM   12  N   UNL     1      -6.331  -0.132 -34.166  1.00  0.00    -0.273 N 
HETATM   13  N   UNL     1      -6.998  -1.120 -34.781  1.00  0.00    -0.179 NA
HETATM   14  H   UNL     1      -6.676   0.821 -34.246  1.00  0.00     0.189 HD
HETATM   15  C   UNL     1      -6.302  -2.219 -34.476  1.00  0.00     0.056 A 
HETATM   16  C   UNL     1      -5.181  -1.915 -33.666  1.00  0.00     0.065 A 
BRANCH  15  17
HETATM   17  C   UNL     1      -6.741  -3.555 -34.972  1.00  0.00     0.056 C 
HETATM   18  C   UNL     1      -5.655  -4.611 -34.821  1.00  0.00     0.011 C 
ENDBRANCH  15  17
ENDBRANCH   8  11
ENDBRANCH   1   7
BRANCH   4  19
HETATM   19  C   UNL     1      -2.597   6.484 -30.614  1.00  0.00     0.252 C 
HETATM   20  N   UNL     1      -3.543   7.437 -30.292  1.00  0.00    -0.352 N 
HETATM   21  H   UNL     1      -4.515   7.165 -30.289  1.00  0.00     0.163 HD
HETATM   22  O   UNL     1      -1.399   6.619 -30.392  1.00  0.00    -0.268 OA
BRANCH  20  23
HETATM   23  C   UNL     1      -3.189   8.644 -29.550  1.00  0.00     0.084 C 
HETATM   24  C   UNL     1      -3.239   9.875 -30.464  1.00  0.00     0.025 C 
HETATM   25  C   UNL     1      -4.663  10.284 -30.839  1.00  0.00     0.002 C 
HETATM   26  C   UNL     1      -5.544  10.459 -29.606  1.00  0.00     0.000 C 
HETATM   27  C   UNL     1      -5.527   9.220 -28.716  1.00  0.00     0.002 C 
HETATM   28  C   UNL     1      -4.102   8.822 -28.329  1.00  0.00     0.025 C 
ENDBRANCH  20  23
ENDBRANCH   4  19
TORSDOF 5
ENDMDL
