MODEL 1
REMARK VINA RESULT:      -8.8      0.000      0.000
REMARK  6 active torsions:
REMARK  status: ('A' for Active; 'I' for Inactive)
REMARK    1  A    between atoms: O_2  and  C_3 
REMARK    2  A    between atoms: C_3  and  C_4 
REMARK    3  A    between atoms: C_4  and  N_5 
REMARK       I    between atoms: N_5  and  C_6 
REMARK    4  A    between atoms: C_6  and  C_7 
REMARK    5  A    between atoms: C_12  and  C_13 
REMARK    6  A    between atoms: C_22  and  C_23 
ROOT
HETATM    1  C   UNL     1     -11.009   1.179 -33.894  1.00  0.00     0.148 C 
HETATM    2  N   UNL     1     -10.125   2.018 -34.486  1.00  0.00    -0.165 NA
HETATM    3  N   UNL     1      -8.958   1.689 -33.908  1.00  0.00    -0.240 N 
HETATM    4  C   UNL     1      -9.024   0.591 -33.101  1.00  0.00     0.123 C 
HETATM    5  N   UNL     1      -7.907   0.026 -32.601  1.00  0.00    -0.366 N 
HETATM    6  C   UNL     1      -6.571   0.354 -33.098  1.00  0.00     0.118 C 
HETATM    7  C   UNL     1      -6.615   1.265 -34.348  1.00  0.00     0.066 C 
HETATM    8  C   UNL     1      -7.708   2.337 -34.252  1.00  0.00     0.221 C 
HETATM    9  C   UNL     1     -10.354   0.290 -32.993  1.00  0.00     0.088 C 
HETATM   10  H   UNL     1      -7.962  -0.784 -31.983  1.00  0.00     0.161 HD
ENDROOT
BRANCH   1  11
HETATM   11  C   UNL     1     -12.441   1.178 -34.229  1.00  0.00     0.272 C 
HETATM   12  N   UNL     1     -13.261   0.987 -33.138  1.00  0.00    -0.354 N 
HETATM   13  H   UNL     1     -12.791   1.048 -32.237  1.00  0.00     0.162 HD
HETATM   14  O   UNL     1     -12.860   1.384 -35.364  1.00  0.00    -0.266 OA
BRANCH  12  15
HETATM   15  C   UNL     1     -14.675   1.283 -33.206  1.00  0.00     0.149 C 
BRANCH  15  16
HETATM   16  C   UNL     1     -15.064   2.422 -32.268  1.00  0.00     0.186 C 
BRANCH  16  17
HETATM   17  O   UNL     1     -16.310   2.100 -31.640  1.00  0.00    -0.394 OA
HETATM   18  C   UNL     1     -17.403   2.738 -32.286  1.00  0.00     0.201 C 
ENDBRANCH  16  17
ENDBRANCH  15  16
ENDBRANCH  12  15
ENDBRANCH   1  11
BRANCH   8  19
HETATM   19  C   UNL     1      -7.386   3.417 -33.245  1.00  0.00     0.409 C 
HETATM   20  F   UNL     1      -8.159   3.343 -32.141  1.00  0.00    -0.169 F 
HETATM   21  F   UNL     1      -6.097   3.421 -32.849  1.00  0.00    -0.169 F 
HETATM   22  F   UNL     1      -7.620   4.637 -33.799  1.00  0.00    -0.169 F 
ENDBRANCH   8  19
BRANCH   6  23
HETATM   23  C   UNL     1      -5.836  -0.944 -33.408  1.00  0.00    -0.034 A 
HETATM   24  C   UNL     1      -6.437  -1.933 -34.202  1.00  0.00     0.034 A 
HETATM   25  C   UNL     1      -5.763  -3.128 -34.485  1.00  0.00     0.056 A 
HETATM   26 CL   UNL     1      -6.575  -4.290 -35.472  1.00  0.00    -0.083 Cl
HETATM   27  C   UNL     1      -4.479  -3.348 -33.975  1.00  0.00     0.055 A 
HETATM   28 CL   UNL     1      -3.592  -4.798 -34.281  1.00  0.00    -0.083 Cl
HETATM   29  C   UNL     1      -3.871  -2.369 -33.187  1.00  0.00     0.026 A 
HETATM   30  C   UNL     1      -4.543  -1.178 -32.907  1.00  0.00     0.011 A 
ENDBRANCH   6  23
TORSDOF 6
ENDMDL
MODEL 2
REMARK VINA RESULT:      -8.6      4.209      6.904
REMARK  6 active torsions:
REMARK  status: ('A' for Active; 'I' for Inactive)
REMARK    1  A    between atoms: O_2  and  C_3 
REMARK    2  A    between atoms: C_3  and  C_4 
REMARK    3  A    between atoms: C_4  and  N_5 
REMARK       I    between atoms: N_5  and  C_6 
REMARK    4  A    between atoms: C_6  and  C_7 
REMARK    5  A    between atoms: C_12  and  C_13 
REMARK    6  A    between atoms: C_22  and  C_23 
ROOT
HETATM    1  C   UNL     1      -6.140   4.367 -33.090  1.00  0.00     0.148 C 
HETATM    2  N   UNL     1      -7.036   3.812 -32.237  1.00  0.00    -0.165 NA
HETATM    3  N   UNL     1      -7.356   2.656 -32.841  1.00  0.00    -0.240 N 
HETATM    4  C   UNL     1      -6.603   2.374 -33.943  1.00  0.00     0.123 C 
HETATM    5  N   UNL     1      -6.674   1.170 -34.547  1.00  0.00    -0.366 N 
HETATM    6  C   UNL     1      -7.318   0.016 -33.921  1.00  0.00     0.118 C 
HETATM    7  C   UNL     1      -7.735   0.295 -32.458  1.00  0.00     0.066 C 
HETATM    8  C   UNL     1      -8.294   1.712 -32.268  1.00  0.00     0.221 C 
HETATM    9  C   UNL     1      -5.870   3.503 -34.190  1.00  0.00     0.088 C 
HETATM   10  H   UNL     1      -6.123   0.970 -35.381  1.00  0.00     0.161 HD
ENDROOT
BRANCH   1  11
HETATM   11  C   UNL     1      -5.502   5.666 -32.827  1.00  0.00     0.272 C 
HETATM   12  N   UNL     1      -4.125   5.620 -32.865  1.00  0.00    -0.354 N 
HETATM   13  H   UNL     1      -3.739   4.754 -33.235  1.00  0.00     0.162 HD
HETATM   14  O   UNL     1      -6.141   6.698 -32.648  1.00  0.00    -0.266 OA
BRANCH  12  15
HETATM   15  C   UNL     1      -3.340   6.830 -32.963  1.00  0.00     0.149 C 
BRANCH  15  16
HETATM   16  C   UNL     1      -2.310   6.751 -34.086  1.00  0.00     0.186 C 
BRANCH  16  17
HETATM   17  O   UNL     1      -1.173   7.545 -33.728  1.00  0.00    -0.394 OA
HETATM   18  C   UNL     1      -0.669   7.191 -32.447  1.00  0.00     0.201 C 
ENDBRANCH  16  17
ENDBRANCH  15  16
ENDBRANCH  12  15
ENDBRANCH   1  11
BRANCH   8  19
HETATM   19  C   UNL     1      -9.660   1.892 -32.888  1.00  0.00     0.409 C 
HETATM   20  F   UNL     1     -10.450   2.720 -32.172  1.00  0.00    -0.169 F 
HETATM   21  F   UNL     1      -9.623   2.351 -34.156  1.00  0.00    -0.169 F 
HETATM   22  F   UNL     1     -10.300   0.693 -32.934  1.00  0.00    -0.169 F 
ENDBRANCH   8  19
BRANCH   6  23
HETATM   23  C   UNL     1      -6.364  -1.169 -33.988  1.00  0.00    -0.034 A 
HETATM   24  C   UNL     1      -6.712  -2.328 -34.698  1.00  0.00     0.034 A 
HETATM   25  C   UNL     1      -5.836  -3.419 -34.758  1.00  0.00     0.056 A 
HETATM   26 CL   UNL     1      -6.344  -4.804 -35.657  1.00  0.00    -0.083 Cl
HETATM   27  C   UNL     1      -4.601  -3.364 -34.105  1.00  0.00     0.055 A 
HETATM   28 CL   UNL     1      -3.474  -4.673 -34.133  1.00  0.00    -0.083 Cl
HETATM   29  C   UNL     1      -4.243  -2.215 -33.397  1.00  0.00     0.026 A 
HETATM   30  C   UNL     1      -5.116  -1.127 -33.340  1.00  0.00     0.011 A 
ENDBRANCH   6  23
TORSDOF 6
ENDMDL
MODEL 3
REMARK VINA RESULT:      -8.0      5.113      7.725
REMARK  6 active torsions:
REMARK  status: ('A' for Active; 'I' for Inactive)
REMARK    1  A    between atoms: O_2  and  C_3 
REMARK    2  A    between atoms: C_3  and  C_4 
REMARK    3  A    between atoms: C_4  and  N_5 
REMARK       I    between atoms: N_5  and  C_6 
REMARK    4  A    between atoms: C_6  and  C_7 
REMARK    5  A    between atoms: C_12  and  C_13 
REMARK    6  A    between atoms: C_22  and  C_23 
ROOT
HETATM    1  C   UNL     1      -4.483   4.074 -31.428  1.00  0.00     0.148 C 
HETATM    2  N   UNL     1      -5.371   3.506 -30.576  1.00  0.00    -0.165 NA
HETATM    3  N   UNL     1      -5.919   2.528 -31.316  1.00  0.00    -0.240 N 
HETATM    4  C   UNL     1      -5.323   2.344 -32.530  1.00  0.00     0.123 C 
HETATM    5  N   UNL     1      -5.634   1.287 -33.306  1.00  0.00    -0.366 N 
HETATM    6  C   UNL     1      -6.388   0.138 -32.802  1.00  0.00     0.118 C 
HETATM    7  C   UNL     1      -6.619   0.210 -31.275  1.00  0.00     0.066 C 
HETATM    8  C   UNL     1      -6.934   1.634 -30.796  1.00  0.00     0.221 C 
HETATM    9  C   UNL     1      -4.452   3.389 -32.676  1.00  0.00     0.088 C 
HETATM   10  H   UNL     1      -5.200   1.163 -34.220  1.00  0.00     0.161 HD
ENDROOT
BRANCH   1  11
HETATM   11  C   UNL     1      -3.631   5.208 -31.036  1.00  0.00     0.272 C 
HETATM   12  N   UNL     1      -2.283   4.917 -31.061  1.00  0.00    -0.354 N 
HETATM   13  H   UNL     1      -2.048   4.033 -31.505  1.00  0.00     0.162 HD
HETATM   14  O   UNL     1      -4.080   6.318 -30.770  1.00  0.00    -0.266 OA
BRANCH  12  15
HETATM   15  C   UNL     1      -1.292   5.970 -31.035  1.00  0.00     0.149 C 
BRANCH  15  16
HETATM   16  C   UNL     1      -0.234   5.729 -29.962  1.00  0.00     0.186 C 
BRANCH  16  17
HETATM   17  O   UNL     1      -0.664   6.345 -28.742  1.00  0.00    -0.394 OA
HETATM   18  C   UNL     1       0.376   6.374 -27.774  1.00  0.00     0.201 C 
ENDBRANCH  16  17
ENDBRANCH  15  16
ENDBRANCH  12  15
ENDBRANCH   1  11
BRANCH   8  19
HETATM   19  C   UNL     1      -8.308   2.105 -31.215  1.00  0.00     0.409 C 
HETATM   20  F   UNL     1      -9.125   1.085 -31.554  1.00  0.00    -0.169 F 
HETATM   21  F   UNL     1      -8.936   2.844 -30.278  1.00  0.00    -0.169 F 
HETATM   22  F   UNL     1      -8.200   2.895 -32.317  1.00  0.00    -0.169 F 
ENDBRANCH   8  19
BRANCH   6  23
HETATM   23  C   UNL     1      -5.637  -1.135 -33.170  1.00  0.00    -0.034 A 
HETATM   24  C   UNL     1      -6.186  -2.050 -34.081  1.00  0.00     0.034 A 
HETATM   25  C   UNL     1      -5.497  -3.223 -34.418  1.00  0.00     0.056 A 
HETATM   26 CL   UNL     1      -6.245  -4.291 -35.551  1.00  0.00    -0.083 Cl
HETATM   27  C   UNL     1      -4.252  -3.494 -33.843  1.00  0.00     0.055 A 
HETATM   28 CL   UNL     1      -3.350  -4.921 -34.209  1.00  0.00    -0.083 Cl
HETATM   29  C   UNL     1      -3.696  -2.590 -32.937  1.00  0.00     0.026 A 
HETATM   30  C   UNL     1      -4.381  -1.420 -32.604  1.00  0.00     0.011 A 
ENDBRANCH   6  23
TORSDOF 6
ENDMDL
MODEL 4
REMARK VINA RESULT:      -8.0      3.938      5.995
REMARK  6 active torsions:
REMARK  status: ('A' for Active; 'I' for Inactive)
REMARK    1  A    between atoms: O_2  and  C_3 
REMARK    2  A    between atoms: C_3  and  C_4 
REMARK    3  A    between atoms: C_4  and  N_5 
REMARK       I    between atoms: N_5  and  C_6 
REMARK    4  A    between atoms: C_6  and  C_7 
REMARK    5  A    between atoms: C_12  and  C_13 
REMARK    6  A    between atoms: C_22  and  C_23 
ROOT
HETATM    1  C   UNL     1      -6.411   4.255 -32.680  1.00  0.00     0.148 C 
HETATM    2  N   UNL     1      -7.438   3.621 -32.064  1.00  0.00    -0.165 NA
HETATM    3  N   UNL     1      -7.623   2.529 -32.824  1.00  0.00    -0.240 N 
HETATM    4  C   UNL     1      -6.677   2.355 -33.792  1.00  0.00     0.123 C 
HETATM    5  N   UNL     1      -6.616   1.216 -34.511  1.00  0.00    -0.366 N 
HETATM    6  C   UNL     1      -7.345   0.007 -34.127  1.00  0.00     0.118 C 
HETATM    7  C   UNL     1      -8.026   0.143 -32.745  1.00  0.00     0.066 C 
HETATM    8  C   UNL     1      -8.634   1.534 -32.526  1.00  0.00     0.221 C 
HETATM    9  C   UNL     1      -5.931   3.502 -33.790  1.00  0.00     0.088 C 
HETATM   10  H   UNL     1      -5.919   1.098 -35.245  1.00  0.00     0.161 HD
ENDROOT
BRANCH   1  11
HETATM   11  C   UNL     1      -5.854   5.522 -32.181  1.00  0.00     0.272 C 
HETATM   12  N   UNL     1      -5.327   5.428 -30.911  1.00  0.00    -0.354 N 
HETATM   13  H   UNL     1      -5.233   4.477 -30.559  1.00  0.00     0.162 HD
HETATM   14  O   UNL     1      -5.815   6.545 -32.858  1.00  0.00    -0.266 OA
BRANCH  12  15
HETATM   15  C   UNL     1      -4.452   6.454 -30.388  1.00  0.00     0.149 C 
BRANCH  15  16
HETATM   16  C   UNL     1      -4.973   7.031 -29.075  1.00  0.00     0.186 C 
BRANCH  16  17
HETATM   17  O   UNL     1      -5.714   6.016 -28.387  1.00  0.00    -0.394 OA
HETATM   18  C   UNL     1      -5.200   5.788 -27.081  1.00  0.00     0.201 C 
ENDBRANCH  16  17
ENDBRANCH  15  16
ENDBRANCH  12  15
ENDBRANCH   1  11
BRANCH   8  19
HETATM   19  C   UNL     1      -9.867   1.776 -33.366  1.00  0.00     0.409 C 
HETATM   20  F   UNL     1      -9.590   2.418 -34.521  1.00  0.00    -0.169 F 
HETATM   21  F   UNL     1     -10.544   0.650 -33.671  1.00  0.00    -0.169 F 
HETATM   22  F   UNL     1     -10.733   2.570 -32.681  1.00  0.00    -0.169 F 
ENDBRANCH   8  19
BRANCH   6  23
HETATM   23  C   UNL     1      -6.374  -1.167 -34.132  1.00  0.00    -0.034 A 
HETATM   24  C   UNL     1      -6.723  -2.380 -34.745  1.00  0.00     0.034 A 
HETATM   25  C   UNL     1      -5.832  -3.461 -34.747  1.00  0.00     0.056 A 
HETATM   26 CL   UNL     1      -6.341  -4.916 -35.528  1.00  0.00    -0.083 Cl
HETATM   27  C   UNL     1      -4.581  -3.341 -34.133  1.00  0.00     0.055 A 
HETATM   28 CL   UNL     1      -3.435  -4.633 -34.095  1.00  0.00    -0.083 Cl
HETATM   29  C   UNL     1      -4.223  -2.138 -33.522  1.00  0.00     0.026 A 
HETATM   30  C   UNL     1      -5.111  -1.060 -33.523  1.00  0.00     0.011 A 
ENDBRANCH   6  23
TORSDOF 6
ENDMDL
MODEL 5
REMARK VINA RESULT:      -7.9      5.497      8.718
REMARK  6 active torsions:
REMARK  status: ('A' for Active; 'I' for Inactive)
REMARK    1  A    between atoms: O_2  and  C_3 
REMARK    2  A    between atoms: C_3  and  C_4 
REMARK    3  A    between atoms: C_4  and  N_5 
REMARK       I    between atoms: N_5  and  C_6 
REMARK    4  A    between atoms: C_6  and  C_7 
REMARK    5  A    between atoms: C_12  and  C_13 
REMARK    6  A    between atoms: C_22  and  C_23 
ROOT
HETATM    1  C   UNL     1      -4.021   3.432 -31.892  1.00  0.00     0.148 C 
HETATM    2  N   UNL     1      -3.845   2.263 -32.556  1.00  0.00    -0.165 NA
HETATM    3  N   UNL     1      -5.006   1.619 -32.353  1.00  0.00    -0.240 N 
HETATM    4  C   UNL     1      -5.961   2.370 -31.732  1.00  0.00     0.123 C 
HETATM    5  N   UNL     1      -7.232   1.933 -31.625  1.00  0.00    -0.366 N 
HETATM    6  C   UNL     1      -7.736   0.794 -32.393  1.00  0.00     0.118 C 
HETATM    7  C   UNL     1      -6.713   0.287 -33.436  1.00  0.00     0.066 C 
HETATM    8  C   UNL     1      -5.274   0.306 -32.903  1.00  0.00     0.221 C 
HETATM    9  C   UNL     1      -5.329   3.517 -31.334  1.00  0.00     0.088 C 
HETATM   10  H   UNL     1      -7.938   2.490 -31.145  1.00  0.00     0.161 HD
ENDROOT
BRANCH   1  11
HETATM   11  C   UNL     1      -2.986   4.476 -31.847  1.00  0.00     0.272 C 
HETATM   12  N   UNL     1      -2.110   4.428 -32.911  1.00  0.00    -0.354 N 
HETATM   13  H   UNL     1      -2.391   3.804 -33.665  1.00  0.00     0.162 HD
HETATM   14  O   UNL     1      -2.946   5.337 -30.974  1.00  0.00    -0.266 OA
BRANCH  12  15
HETATM   15  C   UNL     1      -1.247   5.548 -33.217  1.00  0.00     0.149 C 
BRANCH  15  16
HETATM   16  C   UNL     1      -1.910   6.529 -34.181  1.00  0.00     0.186 C 
BRANCH  16  17
HETATM   17  O   UNL     1      -1.514   7.860 -33.829  1.00  0.00    -0.394 OA
HETATM   18  C   UNL     1      -1.745   8.129 -32.453  1.00  0.00     0.201 C 
ENDBRANCH  16  17
ENDBRANCH  15  16
ENDBRANCH  12  15
ENDBRANCH   1  11
BRANCH   8  19
HETATM   19  C   UNL     1      -5.020  -0.758 -31.860  1.00  0.00     0.409 C 
HETATM   20  F   UNL     1      -4.007  -0.436 -31.027  1.00  0.00    -0.169 F 
HETATM   21  F   UNL     1      -6.100  -1.046 -31.105  1.00  0.00    -0.169 F 
HETATM   22  F   UNL     1      -4.661  -1.918 -32.473  1.00  0.00    -0.169 F 
ENDBRANCH   8  19
BRANCH   6  23
HETATM   23  C   UNL     1      -9.035   1.204 -33.073  1.00  0.00    -0.034 A 
HETATM   24  C   UNL     1      -9.130   2.428 -33.752  1.00  0.00     0.034 A 
HETATM   25  C   UNL     1     -10.326   2.807 -34.376  1.00  0.00     0.056 A 
HETATM   26 CL   UNL     1     -10.354   4.330 -35.193  1.00  0.00    -0.083 Cl
HETATM   27  C   UNL     1     -11.442   1.966 -34.326  1.00  0.00     0.055 A 
HETATM   28 CL   UNL     1     -12.947   2.371 -35.069  1.00  0.00    -0.083 Cl
HETATM   29  C   UNL     1     -11.358   0.745 -33.655  1.00  0.00     0.026 A 
HETATM   30  C   UNL     1     -10.165   0.366 -33.035  1.00  0.00     0.011 A 
ENDBRANCH   6  23
TORSDOF 6
ENDMDL
MODEL 6
REMARK VINA RESULT:      -7.9      4.217      7.932
REMARK  6 active torsions:
REMARK  status: ('A' for Active; 'I' for Inactive)
REMARK    1  A    between atoms: O_2  and  C_3 
REMARK    2  A    between atoms: C_3  and  C_4 
REMARK    3  A    between atoms: C_4  and  N_5 
REMARK       I    between atoms: N_5  and  C_6 
REMARK    4  A    between atoms: C_6  and  C_7 
REMARK    5  A    between atoms: C_12  and  C_13 
REMARK    6  A    between atoms: C_22  and  C_23 
ROOT
HETATM    1  C   UNL     1      -6.307   0.170 -33.940  1.00  0.00     0.148 C 
HETATM    2  N   UNL     1      -6.225   1.145 -33.002  1.00  0.00    -0.165 NA
HETATM    3  N   UNL     1      -7.231   1.972 -33.331  1.00  0.00    -0.240 N 
HETATM    4  C   UNL     1      -8.039   1.500 -34.324  1.00  0.00     0.123 C 
HETATM    5  N   UNL     1      -9.194   2.121 -34.637  1.00  0.00    -0.366 N 
HETATM    6  C   UNL     1      -9.794   3.141 -33.776  1.00  0.00     0.118 C 
HETATM    7  C   UNL     1      -9.054   3.282 -32.425  1.00  0.00     0.066 C 
HETATM    8  C   UNL     1      -7.532   3.172 -32.577  1.00  0.00     0.221 C 
HETATM    9  C   UNL     1      -7.418   0.380 -34.807  1.00  0.00     0.088 C 
HETATM   10  H   UNL     1      -9.786   1.776 -35.391  1.00  0.00     0.161 HD
ENDROOT
BRANCH   1  11
HETATM   11  C   UNL     1      -5.387  -0.976 -33.968  1.00  0.00     0.272 C 
HETATM   12  N   UNL     1      -5.905  -2.082 -34.609  1.00  0.00    -0.354 N 
HETATM   13  H   UNL     1      -6.767  -1.910 -35.122  1.00  0.00     0.162 HD
HETATM   14  O   UNL     1      -4.248  -0.928 -33.514  1.00  0.00    -0.266 OA
BRANCH  12  15
HETATM   15  C   UNL     1      -5.050  -3.171 -35.027  1.00  0.00     0.149 C 
BRANCH  15  16
HETATM   16  C   UNL     1      -5.772  -4.514 -34.972  1.00  0.00     0.186 C 
BRANCH  16  17
HETATM   17  O   UNL     1      -4.941  -5.458 -34.288  1.00  0.00    -0.394 OA
HETATM   18  C   UNL     1      -3.754  -4.851 -33.795  1.00  0.00     0.201 C 
ENDBRANCH  16  17
ENDBRANCH  15  16
ENDBRANCH  12  15
ENDBRANCH   1  11
BRANCH   8  19
HETATM   19  C   UNL     1      -6.919   4.378 -33.251  1.00  0.00     0.409 C 
HETATM   20  F   UNL     1      -5.922   4.926 -32.525  1.00  0.00    -0.169 F 
HETATM   21  F   UNL     1      -6.441   4.123 -34.486  1.00  0.00    -0.169 F 
HETATM   22  F   UNL     1      -7.865   5.344 -33.398  1.00  0.00    -0.169 F 
ENDBRANCH   8  19
BRANCH   6  23
HETATM   23  C   UNL     1     -11.258   2.787 -33.550  1.00  0.00    -0.034 A 
HETATM   24  C   UNL     1     -11.697   1.459 -33.669  1.00  0.00     0.034 A 
HETATM   25  C   UNL     1     -13.044   1.132 -33.464  1.00  0.00     0.056 A 
HETATM   26 CL   UNL     1     -13.498  -0.527 -33.626  1.00  0.00    -0.083 Cl
HETATM   27  C   UNL     1     -13.968   2.131 -33.140  1.00  0.00     0.055 A 
HETATM   28 CL   UNL     1     -15.643   1.801 -32.878  1.00  0.00    -0.083 Cl
HETATM   29  C   UNL     1     -13.541   3.455 -33.018  1.00  0.00     0.026 A 
HETATM   30  C   UNL     1     -12.198   3.779 -33.220  1.00  0.00     0.011 A 
ENDBRANCH   6  23
TORSDOF 6
ENDMDL
MODEL 7
REMARK VINA RESULT:      -7.9      7.826     10.195
REMARK  6 active torsions:
REMARK  status: ('A' for Active; 'I' for Inactive)
REMARK    1  A    between atoms: O_2  and  C_3 
REMARK    2  A    between atoms: C_3  and  C_4 
REMARK    3  A    between atoms: C_4  and  N_5 
REMARK       I    between atoms: N_5  and  C_6 
REMARK    4  A    between atoms: C_6  and  C_7 
REMARK    5  A    between atoms: C_12  and  C_13 
REMARK    6  A    between atoms: C_22  and  C_23 
ROOT
HETATM    1  C   UNL     1      -3.705   2.979 -31.934  1.00  0.00     0.148 C 
HETATM    2  N   UNL     1      -2.574   3.201 -32.646  1.00  0.00    -0.165 NA
HETATM    3  N   UNL     1      -2.249   4.463 -32.318  1.00  0.00    -0.240 N 
HETATM    4  C   UNL     1      -3.018   4.997 -31.325  1.00  0.00     0.123 C 
HETATM    5  N   UNL     1      -2.700   6.178 -30.757  1.00  0.00    -0.366 N 
HETATM    6  C   UNL     1      -1.396   6.814 -30.947  1.00  0.00     0.118 C 
HETATM    7  C   UNL     1      -0.403   5.905 -31.709  1.00  0.00     0.066 C 
HETATM    8  C   UNL     1      -1.075   5.127 -32.847  1.00  0.00     0.221 C 
HETATM    9  C   UNL     1      -4.031   4.101 -31.118  1.00  0.00     0.088 C 
HETATM   10  H   UNL     1      -3.287   6.582 -30.028  1.00  0.00     0.161 HD
ENDROOT
BRANCH   1  11
HETATM   11  C   UNL     1      -4.426   1.698 -31.979  1.00  0.00     0.272 C 
HETATM   12  N   UNL     1      -3.641   0.639 -32.382  1.00  0.00    -0.354 N 
HETATM   13  H   UNL     1      -2.644   0.842 -32.426  1.00  0.00     0.162 HD
HETATM   14  O   UNL     1      -5.598   1.581 -31.635  1.00  0.00    -0.266 OA
BRANCH  12  15
HETATM   15  C   UNL     1      -4.066  -0.727 -32.173  1.00  0.00     0.149 C 
BRANCH  15  16
HETATM   16  C   UNL     1      -4.379  -1.433 -33.489  1.00  0.00     0.186 C 
BRANCH  16  17
HETATM   17  O   UNL     1      -5.726  -1.128 -33.868  1.00  0.00    -0.394 OA
HETATM   18  C   UNL     1      -6.297  -2.165 -34.654  1.00  0.00     0.201 C 
ENDBRANCH  16  17
ENDBRANCH  15  16
ENDBRANCH  12  15
ENDBRANCH   1  11
BRANCH   8  19
HETATM   19  C   UNL     1      -1.457   6.007 -34.015  1.00  0.00     0.409 C 
HETATM   20  F   UNL     1      -1.188   5.432 -35.207  1.00  0.00    -0.169 F 
HETATM   21  F   UNL     1      -2.755   6.373 -34.016  1.00  0.00    -0.169 F 
HETATM   22  F   UNL     1      -0.735   7.159 -33.971  1.00  0.00    -0.169 F 
ENDBRANCH   8  19
BRANCH   6  23
HETATM   23  C   UNL     1      -0.836   7.191 -29.582  1.00  0.00    -0.034 A 
HETATM   24  C   UNL     1      -1.648   7.140 -28.438  1.00  0.00     0.034 A 
HETATM   25  C   UNL     1      -1.135   7.489 -27.182  1.00  0.00     0.056 A 
HETATM   26 CL   UNL     1      -2.203   7.394 -25.827  1.00  0.00    -0.083 Cl
HETATM   27  C   UNL     1       0.197   7.896 -27.057  1.00  0.00     0.055 A 
HETATM   28 CL   UNL     1       0.895   8.345 -25.541  1.00  0.00    -0.083 Cl
HETATM   29  C   UNL     1       1.014   7.949 -28.187  1.00  0.00     0.026 A 
HETATM   30  C   UNL     1       0.502   7.598 -29.438  1.00  0.00     0.011 A 
ENDBRANCH   6  23
TORSDOF 6
ENDMDL
MODEL 8
REMARK VINA RESULT:      -7.7      5.562      8.823
REMARK  6 active torsions:
REMARK  status: ('A' for Active; 'I' for Inactive)
REMARK    1  A    between atoms: O_2  and  C_3 
REMARK    2  A    between atoms: C_3  and  C_4 
REMARK    3  A    between atoms: C_4  and  N_5 
REMARK       I    between atoms: N_5  and  C_6 
REMARK    4  A    between atoms: C_6  and  C_7 
REMARK    5  A    between atoms: C_12  and  C_13 
REMARK    6  A    between atoms: C_22  and  C_23 
ROOT
HETATM    1  C   UNL     1      -4.433   2.249 -32.375  1.00  0.00     0.148 C 
HETATM    2  N   UNL     1      -4.637   1.480 -33.472  1.00  0.00    -0.165 NA
HETATM    3  N   UNL     1      -5.840   0.929 -33.239  1.00  0.00    -0.240 N 
HETATM    4  C   UNL     1      -6.476   1.422 -32.137  1.00  0.00     0.123 C 
HETATM    5  N   UNL     1      -7.762   1.110 -31.876  1.00  0.00    -0.366 N 
HETATM    6  C   UNL     1      -8.632   0.478 -32.868  1.00  0.00     0.118 C 
HETATM    7  C   UNL     1      -7.966   0.382 -34.261  1.00  0.00     0.066 C 
HETATM    8  C   UNL     1      -6.477   0.023 -34.174  1.00  0.00     0.221 C 
HETATM    9  C   UNL     1      -5.556   2.210 -31.500  1.00  0.00     0.088 C 
HETATM   10  H   UNL     1      -8.228   1.466 -31.042  1.00  0.00     0.161 HD
ENDROOT
BRANCH   1  11
HETATM   11  C   UNL     1      -3.219   3.060 -32.197  1.00  0.00     0.272 C 
HETATM   12  N   UNL     1      -2.954   3.895 -33.261  1.00  0.00    -0.354 N 
HETATM   13  H   UNL     1      -3.709   3.972 -33.939  1.00  0.00     0.162 HD
HETATM   14  O   UNL     1      -2.544   3.032 -31.172  1.00  0.00    -0.266 OA
BRANCH  12  15
HETATM   15  C   UNL     1      -2.016   4.989 -33.136  1.00  0.00     0.149 C 
BRANCH  15  16
HETATM   16  C   UNL     1      -1.455   5.415 -34.490  1.00  0.00     0.186 C 
BRANCH  16  17
HETATM   17  O   UNL     1      -1.047   6.785 -34.411  1.00  0.00    -0.394 OA
HETATM   18  C   UNL     1      -1.658   7.451 -33.314  1.00  0.00     0.201 C 
ENDBRANCH  16  17
ENDBRANCH  15  16
ENDBRANCH  12  15
ENDBRANCH   1  11
BRANCH   8  19
HETATM   19  C   UNL     1      -6.240  -1.409 -33.755  1.00  0.00     0.409 C 
HETATM   20  F   UNL     1      -5.814  -1.513 -32.478  1.00  0.00    -0.169 F 
HETATM   21  F   UNL     1      -7.324  -2.200 -33.894  1.00  0.00    -0.169 F 
HETATM   22  F   UNL     1      -5.267  -1.955 -34.532  1.00  0.00    -0.169 F 
ENDBRANCH   8  19
BRANCH   6  23
HETATM   23  C   UNL     1      -9.930   1.271 -32.950  1.00  0.00    -0.034 A 
HETATM   24  C   UNL     1     -10.008   2.570 -32.425  1.00  0.00     0.034 A 
HETATM   25  C   UNL     1     -11.202   3.299 -32.497  1.00  0.00     0.056 A 
HETATM   26 CL   UNL     1     -11.209   4.892 -31.828  1.00  0.00    -0.083 Cl
HETATM   27  C   UNL     1     -12.334   2.735 -33.095  1.00  0.00     0.055 A 
HETATM   28 CL   UNL     1     -13.839   3.574 -33.215  1.00  0.00    -0.083 Cl
HETATM   29  C   UNL     1     -12.267   1.444 -33.623  1.00  0.00     0.026 A 
HETATM   30  C   UNL     1     -11.075   0.720 -33.552  1.00  0.00     0.011 A 
ENDBRANCH   6  23
TORSDOF 6
ENDMDL
MODEL 9
REMARK VINA RESULT:      -7.6     15.055     17.566
REMARK  6 active torsions:
REMARK  status: ('A' for Active; 'I' for Inactive)
REMARK    1  A    between atoms: O_2  and  C_3 
REMARK    2  A    between atoms: C_3  and  C_4 
REMARK    3  A    between atoms: C_4  and  N_5 
REMARK       I    between atoms: N_5  and  C_6 
REMARK    4  A    between atoms: C_6  and  C_7 
REMARK    5  A    between atoms: C_12  and  C_13 
REMARK    6  A    between atoms: C_22  and  C_23 
ROOT
HETATM    1  C   UNL     1      -2.693 -13.735 -37.314  1.00  0.00     0.148 C 
HETATM    2  N   UNL     1      -3.290 -14.431 -36.316  1.00  0.00    -0.165 NA
HETATM    3  N   UNL     1      -4.543 -13.945 -36.311  1.00  0.00    -0.240 N 
HETATM    4  C   UNL     1      -4.816 -13.097 -37.344  1.00  0.00     0.123 C 
HETATM    5  N   UNL     1      -6.074 -12.675 -37.585  1.00  0.00    -0.366 N 
HETATM    6  C   UNL     1      -7.243 -13.298 -36.964  1.00  0.00     0.118 C 
HETATM    7  C   UNL     1      -6.877 -14.570 -36.164  1.00  0.00     0.066 C 
HETATM    8  C   UNL     1      -5.559 -14.420 -35.394  1.00  0.00     0.221 C 
HETATM    9  C   UNL     1      -3.617 -12.863 -37.959  1.00  0.00     0.088 C 
HETATM   10  H   UNL     1      -6.271 -12.026 -38.347  1.00  0.00     0.161 HD
ENDROOT
BRANCH   1  11
HETATM   11  C   UNL     1      -1.287 -13.945 -37.689  1.00  0.00     0.272 C 
HETATM   12  N   UNL     1      -0.770 -15.141 -37.237  1.00  0.00    -0.354 N 
HETATM   13  H   UNL     1      -1.461 -15.788 -36.864  1.00  0.00     0.162 HD
HETATM   14  O   UNL     1      -0.658 -13.154 -38.385  1.00  0.00    -0.266 OA
BRANCH  12  15
HETATM   15  C   UNL     1       0.463 -15.672 -37.775  1.00  0.00     0.149 C 
BRANCH  15  16
HETATM   16  C   UNL     1       0.208 -16.772 -38.801  1.00  0.00     0.186 C 
BRANCH  16  17
HETATM   17  O   UNL     1       0.388 -16.230 -40.115  1.00  0.00    -0.394 OA
HETATM   18  C   UNL     1      -0.853 -16.050 -40.783  1.00  0.00     0.201 C 
ENDBRANCH  16  17
ENDBRANCH  15  16
ENDBRANCH  12  15
ENDBRANCH   1  11
BRANCH   8  19
HETATM   19  C   UNL     1      -5.672 -13.484 -34.212  1.00  0.00     0.409 C 
HETATM   20  F   UNL     1      -4.825 -12.436 -34.298  1.00  0.00    -0.169 F 
HETATM   21  F   UNL     1      -6.916 -12.996 -34.025  1.00  0.00    -0.169 F 
HETATM   22  F   UNL     1      -5.347 -14.151 -33.073  1.00  0.00    -0.169 F 
ENDBRANCH   8  19
BRANCH   6  23
HETATM   23  C   UNL     1      -8.256 -13.623 -38.053  1.00  0.00    -0.034 A 
HETATM   24  C   UNL     1      -8.921 -12.596 -38.740  1.00  0.00     0.034 A 
HETATM   25  C   UNL     1      -9.855 -12.895 -39.741  1.00  0.00     0.056 A 
HETATM   26 CL   UNL     1     -10.624 -11.569 -40.538  1.00  0.00    -0.083 Cl
HETATM   27  C   UNL     1     -10.137 -14.226 -40.063  1.00  0.00     0.055 A 
HETATM   28 CL   UNL     1     -11.279 -14.667 -41.281  1.00  0.00    -0.083 Cl
HETATM   29  C   UNL     1      -9.480 -15.256 -39.386  1.00  0.00     0.026 A 
HETATM   30  C   UNL     1      -8.547 -14.957 -38.392  1.00  0.00     0.011 A 
ENDBRANCH   6  23
TORSDOF 6
ENDMDL
MODEL 10
REMARK VINA RESULT:      -7.6      1.585      1.934
REMARK  6 active torsions:
REMARK  status: ('A' for Active; 'I' for Inactive)
REMARK    1  A    between atoms: O_2  and  C_3 
REMARK    2  A    between atoms: C_3  and  C_4 
REMARK    3  A    between atoms: C_4  and  N_5 
REMARK       I    between atoms: N_5  and  C_6 
REMARK    4  A    between atoms: C_6  and  C_7 
REMARK    5  A    between atoms: C_12  and  C_13 
REMARK    6  A    between atoms: C_22  and  C_23 
ROOT
HETATM    1  C   UNL     1      -9.660   2.357 -33.245  1.00  0.00     0.148 C 
HETATM    2  N   UNL     1      -8.560   3.119 -33.452  1.00  0.00    -0.165 NA
HETATM    3  N   UNL     1      -7.598   2.454 -32.790  1.00  0.00    -0.240 N 
HETATM    4  C   UNL     1      -7.990   1.239 -32.309  1.00  0.00     0.123 C 
HETATM    5  N   UNL     1      -7.096   0.375 -31.788  1.00  0.00    -0.366 N 
HETATM    6  C   UNL     1      -5.652   0.541 -31.959  1.00  0.00     0.118 C 
HETATM    7  C   UNL     1      -5.303   1.695 -32.928  1.00  0.00     0.066 C 
HETATM    8  C   UNL     1      -6.224   2.910 -32.748  1.00  0.00     0.221 C 
HETATM    9  C   UNL     1      -9.344   1.183 -32.502  1.00  0.00     0.088 C 
HETATM   10  H   UNL     1      -7.396  -0.525 -31.413  1.00  0.00     0.161 HD
ENDROOT
BRANCH   1  11
HETATM   11  C   UNL     1     -10.976   2.704 -33.803  1.00  0.00     0.272 C 
HETATM   12  N   UNL     1     -11.749   1.606 -34.114  1.00  0.00    -0.354 N 
HETATM   13  H   UNL     1     -11.390   0.720 -33.763  1.00  0.00     0.162 HD
HETATM   14  O   UNL     1     -11.364   3.862 -33.924  1.00  0.00    -0.266 OA
BRANCH  12  15
HETATM   15  C   UNL     1     -13.169   1.736 -34.353  1.00  0.00     0.149 C 
BRANCH  15  16
HETATM   16  C   UNL     1     -13.978   1.593 -33.067  1.00  0.00     0.186 C 
BRANCH  16  17
HETATM   17  O   UNL     1     -15.367   1.497 -33.402  1.00  0.00    -0.394 OA
HETATM   18  C   UNL     1     -16.182   2.190 -32.466  1.00  0.00     0.201 C 
ENDBRANCH  16  17
ENDBRANCH  15  16
ENDBRANCH  12  15
ENDBRANCH   1  11
BRANCH   8  19
HETATM   19  C   UNL     1      -5.962   3.661 -31.463  1.00  0.00     0.409 C 
HETATM   20  F   UNL     1      -6.090   4.997 -31.607  1.00  0.00    -0.169 F 
HETATM   21  F   UNL     1      -6.755   3.277 -30.441  1.00  0.00    -0.169 F 
HETATM   22  F   UNL     1      -4.683   3.437 -31.059  1.00  0.00    -0.169 F 
ENDBRANCH   8  19
BRANCH   6  23
HETATM   23  C   UNL     1      -5.068  -0.773 -32.459  1.00  0.00    -0.034 A 
HETATM   24  C   UNL     1      -5.633  -1.433 -33.561  1.00  0.00     0.034 A 
HETATM   25  C   UNL     1      -5.098  -2.643 -34.020  1.00  0.00     0.056 A 
HETATM   26 CL   UNL     1      -5.854  -3.386 -35.385  1.00  0.00    -0.083 Cl
HETATM   27  C   UNL     1      -3.990  -3.208 -33.380  1.00  0.00     0.055 A 
HETATM   28 CL   UNL     1      -3.281  -4.698 -33.890  1.00  0.00    -0.083 Cl
HETATM   29  C   UNL     1      -3.418  -2.559 -32.285  1.00  0.00     0.026 A 
HETATM   30  C   UNL     1      -3.951  -1.352 -31.829  1.00  0.00     0.011 A 
ENDBRANCH   6  23
TORSDOF 6
ENDMDL
