MODEL 1
REMARK VINA RESULT:      -9.5      0.000      0.000
REMARK  9 active torsions:
REMARK  status: ('A' for Active; 'I' for Inactive)
REMARK    1  A    between atoms: O_2  and  C_3 
REMARK    2  A    between atoms: C_6  and  N_7 
REMARK    3  A    between atoms: N_10  and  C_11 
REMARK    4  A    between atoms: C_11  and  C_12 
REMARK    5  A    between atoms: C_14  and  O_15 
REMARK    6  A    between atoms: C_17  and  O_18 
REMARK    7  A    between atoms: C_22  and  C_23 
REMARK    8  A    between atoms: C_23  and  C_24 
REMARK       I    between atoms: C_24  and  N_25 
REMARK    9  A    between atoms: N_25  and  C_26 
ROOT
HETATM    1  N   UNL     1      -9.841   1.659 -33.164  1.00  0.00    -0.232 N 
HETATM    2  C   UNL     1      -9.095   0.940 -32.257  1.00  0.00     0.333 C 
HETATM    3  O   UNL     1      -9.482   0.183 -31.377  1.00  0.00    -0.246 OA
HETATM    4  N   UNL     1      -7.744   1.292 -32.380  1.00  0.00    -0.315 N 
HETATM    5  C   UNL     1      -7.560   2.300 -33.407  1.00  0.00     0.191 C 
HETATM    6  C   UNL     1      -9.015   2.562 -33.789  1.00  0.00     0.256 C 
HETATM    7  O   UNL     1      -9.296   3.463 -34.577  1.00  0.00    -0.270 OA
ENDROOT
BRANCH   4   8
HETATM    8  C   UNL     1      -6.988   1.311 -31.138  1.00  0.00     0.167 C 
BRANCH   8   9
HETATM    9  C   UNL     1      -5.639   1.972 -31.170  1.00  0.00    -0.037 A 
HETATM   10  C   UNL     1      -5.496   3.311 -30.770  1.00  0.00     0.048 A 
HETATM   11  C   UNL     1      -4.290   3.994 -30.975  1.00  0.00     0.102 A 
HETATM   12  C   UNL     1      -3.210   3.320 -31.570  1.00  0.00     0.101 A 
HETATM   13  C   UNL     1      -3.328   1.969 -31.908  1.00  0.00     0.040 A 
HETATM   14  C   UNL     1      -4.538   1.302 -31.718  1.00  0.00     0.012 A 
BRANCH  11  15
HETATM   15  O   UNL     1      -4.081   5.313 -30.660  1.00  0.00    -0.353 OA
HETATM   16  C   UNL     1      -4.894   6.276 -31.316  1.00  0.00     0.210 C 
ENDBRANCH  11  15
BRANCH  12  17
HETATM   17  O   UNL     1      -2.052   4.031 -31.775  1.00  0.00    -0.353 OA
HETATM   18  C   UNL     1      -1.918   4.567 -33.089  1.00  0.00     0.210 C 
ENDBRANCH  12  17
ENDBRANCH   8   9
ENDBRANCH   4   8
BRANCH   5  19
HETATM   19  C   UNL     1      -6.840   1.771 -34.647  1.00  0.00     0.138 C 
BRANCH  19  20
HETATM   20  C   UNL     1      -6.999   0.270 -34.855  1.00  0.00     0.224 C 
HETATM   21  N   UNL     1      -5.978  -0.504 -34.339  1.00  0.00    -0.327 N 
HETATM   22  H   UNL     1      -5.239  -0.044 -33.811  1.00  0.00     0.169 HD
HETATM   23  O   UNL     1      -7.968  -0.150 -35.485  1.00  0.00    -0.273 OA
BRANCH  21  24
HETATM   24  C   UNL     1      -5.838  -1.907 -34.428  1.00  0.00     0.034 A 
HETATM   25  C   UNL     1      -6.884  -2.782 -34.724  1.00  0.00     0.029 A 
HETATM   26  C   UNL     1      -6.653  -4.160 -34.806  1.00  0.00     0.002 A 
HETATM   27  C   UNL     1      -5.378  -4.675 -34.578  1.00  0.00     0.000 A 
HETATM   28  C   UNL     1      -4.328  -3.811 -34.281  1.00  0.00     0.002 A 
HETATM   29  C   UNL     1      -4.555  -2.433 -34.220  1.00  0.00     0.029 A 
ENDBRANCH  21  24
ENDBRANCH  19  20
ENDBRANCH   5  19
BRANCH   1  30
HETATM   30  C   UNL     1     -11.269   1.607 -33.288  1.00  0.00     0.047 A 
HETATM   31  C   UNL     1     -11.930   0.452 -33.742  1.00  0.00     0.033 A 
HETATM   32  C   UNL     1     -13.331   0.367 -33.805  1.00  0.00     0.039 A 
HETATM   33  C   UNL     1     -14.116   1.445 -33.424  1.00  0.00     0.068 A 
HETATM   34  C   UNL     1     -13.485   2.619 -33.024  1.00  0.00     0.039 A 
HETATM   35  C   UNL     1     -12.085   2.698 -32.956  1.00  0.00     0.033 A 
BRANCH  33  36
HETATM   36  O   UNL     1     -15.481   1.480 -33.415  1.00  0.00    -0.356 OA
HETATM   37  C   UNL     1     -16.086   2.251 -32.382  1.00  0.00     0.210 C 
ENDBRANCH  33  36
ENDBRANCH   1  30
TORSDOF 9
ENDMDL
MODEL 2
REMARK VINA RESULT:      -9.4      2.110      7.945
REMARK  9 active torsions:
REMARK  status: ('A' for Active; 'I' for Inactive)
REMARK    1  A    between atoms: O_2  and  C_3 
REMARK    2  A    between atoms: C_6  and  N_7 
REMARK    3  A    between atoms: N_10  and  C_11 
REMARK    4  A    between atoms: C_11  and  C_12 
REMARK    5  A    between atoms: C_14  and  O_15 
REMARK    6  A    between atoms: C_17  and  O_18 
REMARK    7  A    between atoms: C_22  and  C_23 
REMARK    8  A    between atoms: C_23  and  C_24 
REMARK       I    between atoms: C_24  and  N_25 
REMARK    9  A    between atoms: N_25  and  C_26 
ROOT
HETATM    1  N   UNL     1      -5.486   3.808 -32.263  1.00  0.00    -0.232 N 
HETATM    2  C   UNL     1      -6.230   3.015 -31.417  1.00  0.00     0.333 C 
HETATM    3  O   UNL     1      -5.982   2.679 -30.268  1.00  0.00    -0.246 OA
HETATM    4  N   UNL     1      -7.329   2.492 -32.114  1.00  0.00    -0.315 N 
HETATM    5  C   UNL     1      -7.331   2.939 -33.495  1.00  0.00     0.191 C 
HETATM    6  C   UNL     1      -6.014   3.711 -33.528  1.00  0.00     0.256 C 
HETATM    7  O   UNL     1      -5.587   4.163 -34.589  1.00  0.00    -0.270 OA
ENDROOT
BRANCH   4   8
HETATM    8  C   UNL     1      -7.720   1.142 -31.741  1.00  0.00     0.167 C 
BRANCH   8   9
HETATM    9  C   UNL     1      -7.104   0.014 -32.518  1.00  0.00    -0.037 A 
HETATM   10  C   UNL     1      -5.742  -0.292 -32.364  1.00  0.00     0.048 A 
HETATM   11  C   UNL     1      -5.113  -1.208 -33.217  1.00  0.00     0.102 A 
HETATM   12  C   UNL     1      -5.865  -1.840 -34.222  1.00  0.00     0.101 A 
HETATM   13  C   UNL     1      -7.235  -1.588 -34.334  1.00  0.00     0.040 A 
HETATM   14  C   UNL     1      -7.848  -0.660 -33.494  1.00  0.00     0.012 A 
BRANCH  11  15
HETATM   15  O   UNL     1      -3.780  -1.527 -33.169  1.00  0.00    -0.353 OA
HETATM   16  C   UNL     1      -3.352  -2.385 -32.121  1.00  0.00     0.210 C 
ENDBRANCH  11  15
BRANCH  12  17
HETATM   17  O   UNL     1      -5.208  -2.715 -35.053  1.00  0.00    -0.353 OA
HETATM   18  C   UNL     1      -5.660  -4.063 -34.961  1.00  0.00     0.210 C 
ENDBRANCH  12  17
ENDBRANCH   8   9
ENDBRANCH   4   8
BRANCH   5  19
HETATM   19  C   UNL     1      -8.456   3.924 -33.807  1.00  0.00     0.138 C 
BRANCH  19  20
HETATM   20  C   UNL     1      -9.845   3.394 -33.474  1.00  0.00     0.224 C 
HETATM   21  N   UNL     1     -10.255   2.312 -34.228  1.00  0.00    -0.327 N 
HETATM   22  H   UNL     1      -9.599   1.907 -34.894  1.00  0.00     0.169 HD
HETATM   23  O   UNL     1     -10.516   3.964 -32.616  1.00  0.00    -0.273 OA
BRANCH  21  24
HETATM   24  C   UNL     1     -11.503   1.652 -34.172  1.00  0.00     0.034 A 
HETATM   25  C   UNL     1     -12.688   2.170 -34.697  1.00  0.00     0.029 A 
HETATM   26  C   UNL     1     -13.879   1.441 -34.610  1.00  0.00     0.002 A 
HETATM   27  C   UNL     1     -13.899   0.196 -33.983  1.00  0.00     0.000 A 
HETATM   28  C   UNL     1     -12.723  -0.329 -33.456  1.00  0.00     0.002 A 
HETATM   29  C   UNL     1     -11.529   0.390 -33.561  1.00  0.00     0.029 A 
ENDBRANCH  21  24
ENDBRANCH  19  20
ENDBRANCH   5  19
BRANCH   1  30
HETATM   30  C   UNL     1      -4.258   4.463 -31.916  1.00  0.00     0.047 A 
HETATM   31  C   UNL     1      -4.242   5.704 -31.256  1.00  0.00     0.033 A 
HETATM   32  C   UNL     1      -3.047   6.323 -30.854  1.00  0.00     0.039 A 
HETATM   33  C   UNL     1      -1.824   5.719 -31.111  1.00  0.00     0.068 A 
HETATM   34  C   UNL     1      -1.810   4.518 -31.812  1.00  0.00     0.039 A 
HETATM   35  C   UNL     1      -3.007   3.900 -32.208  1.00  0.00     0.033 A 
BRANCH  33  36
HETATM   36  O   UNL     1      -0.600   6.203 -30.751  1.00  0.00    -0.356 OA
HETATM   37  C   UNL     1       0.506   5.324 -30.935  1.00  0.00     0.210 C 
ENDBRANCH  33  36
ENDBRANCH   1  30
TORSDOF 9
ENDMDL
MODEL 3
REMARK VINA RESULT:      -9.3      2.037      7.913
REMARK  9 active torsions:
REMARK  status: ('A' for Active; 'I' for Inactive)
REMARK    1  A    between atoms: O_2  and  C_3 
REMARK    2  A    between atoms: C_6  and  N_7 
REMARK    3  A    between atoms: N_10  and  C_11 
REMARK    4  A    between atoms: C_11  and  C_12 
REMARK    5  A    between atoms: C_14  and  O_15 
REMARK    6  A    between atoms: C_17  and  O_18 
REMARK    7  A    between atoms: C_22  and  C_23 
REMARK    8  A    between atoms: C_23  and  C_24 
REMARK       I    between atoms: C_24  and  N_25 
REMARK    9  A    between atoms: N_25  and  C_26 
ROOT
HETATM    1  N   UNL     1      -5.059   3.478 -33.066  1.00  0.00    -0.232 N 
HETATM    2  C   UNL     1      -6.292   4.023 -33.353  1.00  0.00     0.333 C 
HETATM    3  O   UNL     1      -6.605   5.202 -33.446  1.00  0.00    -0.246 OA
HETATM    4  N   UNL     1      -7.251   3.001 -33.411  1.00  0.00    -0.315 N 
HETATM    5  C   UNL     1      -6.651   1.708 -33.142  1.00  0.00     0.191 C 
HETATM    6  C   UNL     1      -5.223   2.138 -32.813  1.00  0.00     0.256 C 
HETATM    7  O   UNL     1      -4.405   1.313 -32.411  1.00  0.00    -0.270 OA
ENDROOT
BRANCH   4   8
HETATM    8  C   UNL     1      -8.571   3.356 -32.915  1.00  0.00     0.167 C 
BRANCH   8   9
HETATM    9  C   UNL     1      -9.749   2.712 -33.590  1.00  0.00    -0.037 A 
HETATM   10  C   UNL     1     -10.497   3.424 -34.542  1.00  0.00     0.048 A 
HETATM   11  C   UNL     1     -11.703   2.910 -35.034  1.00  0.00     0.102 A 
HETATM   12  C   UNL     1     -12.153   1.658 -34.580  1.00  0.00     0.101 A 
HETATM   13  C   UNL     1     -11.378   0.917 -33.684  1.00  0.00     0.040 A 
HETATM   14  C   UNL     1     -10.188   1.446 -33.185  1.00  0.00     0.012 A 
BRANCH  11  15
HETATM   15  O   UNL     1     -12.519   3.559 -35.925  1.00  0.00    -0.353 OA
HETATM   16  C   UNL     1     -12.703   4.956 -35.741  1.00  0.00     0.210 C 
ENDBRANCH  11  15
BRANCH  12  17
HETATM   17  O   UNL     1     -13.352   1.198 -35.069  1.00  0.00    -0.353 OA
HETATM   18  C   UNL     1     -14.351   0.991 -34.074  1.00  0.00     0.210 C 
ENDBRANCH  12  17
ENDBRANCH   8   9
ENDBRANCH   4   8
BRANCH   5  19
HETATM   19  C   UNL     1      -6.594   0.804 -34.372  1.00  0.00     0.138 C 
BRANCH  19  20
HETATM   20  C   UNL     1      -6.473  -0.678 -34.040  1.00  0.00     0.224 C 
HETATM   21  N   UNL     1      -5.217  -1.220 -34.231  1.00  0.00    -0.327 N 
HETATM   22  H   UNL     1      -4.458  -0.601 -34.511  1.00  0.00     0.169 HD
HETATM   23  O   UNL     1      -7.471  -1.296 -33.677  1.00  0.00    -0.273 OA
BRANCH  21  24
HETATM   24  C   UNL     1      -4.829  -2.567 -34.053  1.00  0.00     0.034 A 
HETATM   25  C   UNL     1      -5.351  -3.636 -34.783  1.00  0.00     0.029 A 
HETATM   26  C   UNL     1      -4.899  -4.939 -34.551  1.00  0.00     0.002 A 
HETATM   27  C   UNL     1      -3.932  -5.186 -33.578  1.00  0.00     0.000 A 
HETATM   28  C   UNL     1      -3.405  -4.128 -32.845  1.00  0.00     0.002 A 
HETATM   29  C   UNL     1      -3.842  -2.823 -33.091  1.00  0.00     0.029 A 
ENDBRANCH  21  24
ENDBRANCH  19  20
ENDBRANCH   5  19
BRANCH   1  30
HETATM   30  C   UNL     1      -3.851   4.225 -32.871  1.00  0.00     0.047 A 
HETATM   31  C   UNL     1      -3.154   4.799 -33.949  1.00  0.00     0.033 A 
HETATM   32  C   UNL     1      -2.006   5.587 -33.765  1.00  0.00     0.039 A 
HETATM   33  C   UNL     1      -1.511   5.816 -32.488  1.00  0.00     0.068 A 
HETATM   34  C   UNL     1      -2.150   5.214 -31.409  1.00  0.00     0.039 A 
HETATM   35  C   UNL     1      -3.301   4.432 -31.597  1.00  0.00     0.033 A 
BRANCH  33  36
HETATM   36  O   UNL     1      -0.424   6.580 -32.175  1.00  0.00    -0.356 OA
HETATM   37  C   UNL     1       0.308   6.193 -31.017  1.00  0.00     0.210 C 
ENDBRANCH  33  36
ENDBRANCH   1  30
TORSDOF 9
ENDMDL
MODEL 4
REMARK VINA RESULT:      -9.0      1.776      2.810
REMARK  9 active torsions:
REMARK  status: ('A' for Active; 'I' for Inactive)
REMARK    1  A    between atoms: O_2  and  C_3 
REMARK    2  A    between atoms: C_6  and  N_7 
REMARK    3  A    between atoms: N_10  and  C_11 
REMARK    4  A    between atoms: C_11  and  C_12 
REMARK    5  A    between atoms: C_14  and  O_15 
REMARK    6  A    between atoms: C_17  and  O_18 
REMARK    7  A    between atoms: C_22  and  C_23 
REMARK    8  A    between atoms: C_23  and  C_24 
REMARK       I    between atoms: C_24  and  N_25 
REMARK    9  A    between atoms: N_25  and  C_26 
ROOT
HETATM    1  N   UNL     1      -8.867   2.508 -34.026  1.00  0.00    -0.232 N 
HETATM    2  C   UNL     1      -8.323   3.722 -33.666  1.00  0.00     0.333 C 
HETATM    3  O   UNL     1      -8.884   4.799 -33.522  1.00  0.00    -0.246 OA
HETATM    4  N   UNL     1      -6.928   3.605 -33.599  1.00  0.00    -0.315 N 
HETATM    5  C   UNL     1      -6.500   2.260 -33.935  1.00  0.00     0.191 C 
HETATM    6  C   UNL     1      -7.843   1.639 -34.314  1.00  0.00     0.256 C 
HETATM    7  O   UNL     1      -7.890   0.502 -34.779  1.00  0.00    -0.270 OA
ENDROOT
BRANCH   4   8
HETATM    8  C   UNL     1      -6.182   4.780 -34.023  1.00  0.00     0.167 C 
BRANCH   8   9
HETATM    9  C   UNL     1      -5.001   5.178 -33.183  1.00  0.00    -0.037 A 
HETATM   10  C   UNL     1      -3.788   5.537 -33.793  1.00  0.00     0.048 A 
HETATM   11  C   UNL     1      -2.630   5.723 -33.026  1.00  0.00     0.102 A 
HETATM   12  C   UNL     1      -2.697   5.567 -31.631  1.00  0.00     0.101 A 
HETATM   13  C   UNL     1      -3.918   5.277 -31.016  1.00  0.00     0.040 A 
HETATM   14  C   UNL     1      -5.061   5.074 -31.789  1.00  0.00     0.012 A 
BRANCH  11  15
HETATM   15  O   UNL     1      -1.396   6.024 -33.543  1.00  0.00    -0.353 OA
HETATM   16  C   UNL     1      -1.084   5.507 -34.828  1.00  0.00     0.210 C 
ENDBRANCH  11  15
BRANCH  12  17
HETATM   17  O   UNL     1      -1.535   5.736 -30.916  1.00  0.00    -0.353 OA
HETATM   18  C   UNL     1      -1.503   6.916 -30.118  1.00  0.00     0.210 C 
ENDBRANCH  12  17
ENDBRANCH   8   9
ENDBRANCH   4   8
BRANCH   5  19
HETATM   19  C   UNL     1      -5.950   1.487 -32.738  1.00  0.00     0.138 C 
BRANCH  19  20
HETATM   20  C   UNL     1      -6.180  -0.017 -32.820  1.00  0.00     0.224 C 
HETATM   21  N   UNL     1      -5.450  -0.669 -33.794  1.00  0.00    -0.327 N 
HETATM   22  H   UNL     1      -4.776  -0.132 -34.337  1.00  0.00     0.169 HD
HETATM   23  O   UNL     1      -7.004  -0.540 -32.072  1.00  0.00    -0.273 OA
BRANCH  21  24
HETATM   24  C   UNL     1      -5.500  -2.041 -34.127  1.00  0.00     0.034 A 
HETATM   25  C   UNL     1      -6.620  -2.678 -34.664  1.00  0.00     0.029 A 
HETATM   26  C   UNL     1      -6.577  -4.040 -34.978  1.00  0.00     0.002 A 
HETATM   27  C   UNL     1      -5.419  -4.781 -34.745  1.00  0.00     0.000 A 
HETATM   28  C   UNL     1      -4.297  -4.156 -34.209  1.00  0.00     0.002 A 
HETATM   29  C   UNL     1      -4.334  -2.790 -33.915  1.00  0.00     0.029 A 
ENDBRANCH  21  24
ENDBRANCH  19  20
ENDBRANCH   5  19
BRANCH   1  30
HETATM   30  C   UNL     1     -10.262   2.261 -34.251  1.00  0.00     0.047 A 
HETATM   31  C   UNL     1     -11.001   2.998 -35.193  1.00  0.00     0.033 A 
HETATM   32  C   UNL     1     -12.351   2.722 -35.468  1.00  0.00     0.039 A 
HETATM   33  C   UNL     1     -13.008   1.701 -34.796  1.00  0.00     0.068 A 
HETATM   34  C   UNL     1     -12.314   0.993 -33.820  1.00  0.00     0.039 A 
HETATM   35  C   UNL     1     -10.964   1.268 -33.552  1.00  0.00     0.033 A 
BRANCH  33  36
HETATM   36  O   UNL     1     -14.304   1.318 -34.989  1.00  0.00    -0.356 OA
HETATM   37  C   UNL     1     -14.907   0.574 -33.936  1.00  0.00     0.210 C 
ENDBRANCH  33  36
ENDBRANCH   1  30
TORSDOF 9
ENDMDL
MODEL 5
REMARK VINA RESULT:      -8.9      2.029      3.156
REMARK  9 active torsions:
REMARK  status: ('A' for Active; 'I' for Inactive)
REMARK    1  A    between atoms: O_2  and  C_3 
REMARK    2  A    between atoms: C_6  and  N_7 
REMARK    3  A    between atoms: N_10  and  C_11 
REMARK    4  A    between atoms: C_11  and  C_12 
REMARK    5  A    between atoms: C_14  and  O_15 
REMARK    6  A    between atoms: C_17  and  O_18 
REMARK    7  A    between atoms: C_22  and  C_23 
REMARK    8  A    between atoms: C_23  and  C_24 
REMARK       I    between atoms: C_24  and  N_25 
REMARK    9  A    between atoms: N_25  and  C_26 
ROOT
HETATM    1  N   UNL     1      -8.195   3.207 -33.504  1.00  0.00    -0.232 N 
HETATM    2  C   UNL     1      -7.275   4.232 -33.522  1.00  0.00     0.333 C 
HETATM    3  O   UNL     1      -7.473   5.439 -33.544  1.00  0.00    -0.246 OA
HETATM    4  N   UNL     1      -5.984   3.698 -33.647  1.00  0.00    -0.315 N 
HETATM    5  C   UNL     1      -6.025   2.250 -33.727  1.00  0.00     0.191 C 
HETATM    6  C   UNL     1      -7.535   2.025 -33.740  1.00  0.00     0.256 C 
HETATM    7  O   UNL     1      -7.992   0.897 -33.917  1.00  0.00    -0.270 OA
ENDROOT
BRANCH   4   8
HETATM    8  C   UNL     1      -5.056   4.487 -34.440  1.00  0.00     0.167 C 
BRANCH   8   9
HETATM    9  C   UNL     1      -3.890   5.099 -33.717  1.00  0.00    -0.037 A 
HETATM   10  C   UNL     1      -4.028   6.337 -33.069  1.00  0.00     0.048 A 
HETATM   11  C   UNL     1      -2.908   7.007 -32.559  1.00  0.00     0.102 A 
HETATM   12  C   UNL     1      -1.639   6.418 -32.683  1.00  0.00     0.101 A 
HETATM   13  C   UNL     1      -1.507   5.155 -33.267  1.00  0.00     0.040 A 
HETATM   14  C   UNL     1      -2.624   4.505 -33.789  1.00  0.00     0.012 A 
BRANCH  11  15
HETATM   15  O   UNL     1      -2.947   8.239 -31.957  1.00  0.00    -0.353 OA
HETATM   16  C   UNL     1      -4.055   8.518 -31.113  1.00  0.00     0.210 C 
ENDBRANCH  11  15
BRANCH  12  17
HETATM   17  O   UNL     1      -0.563   7.116 -32.190  1.00  0.00    -0.353 OA
HETATM   18  C   UNL     1       0.056   6.517 -31.055  1.00  0.00     0.210 C 
ENDBRANCH  12  17
ENDBRANCH   8   9
ENDBRANCH   4   8
BRANCH   5  19
HETATM   19  C   UNL     1      -5.462   1.562 -32.484  1.00  0.00     0.138 C 
BRANCH  19  20
HETATM   20  C   UNL     1      -5.577   0.043 -32.518  1.00  0.00     0.224 C 
HETATM   21  N   UNL     1      -5.267  -0.541 -33.730  1.00  0.00    -0.327 N 
HETATM   22  H   UNL     1      -4.929   0.055 -34.484  1.00  0.00     0.169 HD
HETATM   23  O   UNL     1      -5.967  -0.552 -31.515  1.00  0.00    -0.273 OA
BRANCH  21  24
HETATM   24  C   UNL     1      -5.334  -1.913 -34.063  1.00  0.00     0.034 A 
HETATM   25  C   UNL     1      -4.280  -2.812 -33.894  1.00  0.00     0.029 A 
HETATM   26  C   UNL     1      -4.438  -4.159 -34.237  1.00  0.00     0.002 A 
HETATM   27  C   UNL     1      -5.645  -4.615 -34.765  1.00  0.00     0.000 A 
HETATM   28  C   UNL     1      -6.701  -3.727 -34.938  1.00  0.00     0.002 A 
HETATM   29  C   UNL     1      -6.550  -2.385 -34.576  1.00  0.00     0.029 A 
ENDBRANCH  21  24
ENDBRANCH  19  20
ENDBRANCH   5  19
BRANCH   1  30
HETATM   30  C   UNL     1      -9.618   3.374 -33.447  1.00  0.00     0.047 A 
HETATM   31  C   UNL     1     -10.415   3.328 -34.604  1.00  0.00     0.033 A 
HETATM   32  C   UNL     1     -11.816   3.426 -34.553  1.00  0.00     0.039 A 
HETATM   33  C   UNL     1     -12.463   3.585 -33.336  1.00  0.00     0.068 A 
HETATM   34  C   UNL     1     -11.693   3.689 -32.182  1.00  0.00     0.039 A 
HETATM   35  C   UNL     1     -10.294   3.585 -32.237  1.00  0.00     0.033 A 
BRANCH  33  36
HETATM   36  O   UNL     1     -13.813   3.667 -33.151  1.00  0.00    -0.356 OA
HETATM   37  C   UNL     1     -14.424   2.576 -32.469  1.00  0.00     0.210 C 
ENDBRANCH  33  36
ENDBRANCH   1  30
TORSDOF 9
ENDMDL
MODEL 6
REMARK VINA RESULT:      -8.9      2.073      6.408
REMARK  9 active torsions:
REMARK  status: ('A' for Active; 'I' for Inactive)
REMARK    1  A    between atoms: O_2  and  C_3 
REMARK    2  A    between atoms: C_6  and  N_7 
REMARK    3  A    between atoms: N_10  and  C_11 
REMARK    4  A    between atoms: C_11  and  C_12 
REMARK    5  A    between atoms: C_14  and  O_15 
REMARK    6  A    between atoms: C_17  and  O_18 
REMARK    7  A    between atoms: C_22  and  C_23 
REMARK    8  A    between atoms: C_23  and  C_24 
REMARK       I    between atoms: C_24  and  N_25 
REMARK    9  A    between atoms: N_25  and  C_26 
ROOT
HETATM    1  N   UNL     1      -6.582   0.739 -32.904  1.00  0.00    -0.232 N 
HETATM    2  C   UNL     1      -6.823   1.893 -33.617  1.00  0.00     0.333 C 
HETATM    3  O   UNL     1      -6.699   2.090 -34.817  1.00  0.00    -0.246 OA
HETATM    4  N   UNL     1      -7.131   2.933 -32.729  1.00  0.00    -0.315 N 
HETATM    5  C   UNL     1      -7.089   2.474 -31.353  1.00  0.00     0.191 C 
HETATM    6  C   UNL     1      -6.606   1.041 -31.564  1.00  0.00     0.256 C 
HETATM    7  O   UNL     1      -6.330   0.332 -30.597  1.00  0.00    -0.270 OA
ENDROOT
BRANCH   4   8
HETATM    8  C   UNL     1      -6.647   4.249 -33.117  1.00  0.00     0.167 C 
BRANCH   8   9
HETATM    9  C   UNL     1      -5.187   4.367 -33.454  1.00  0.00    -0.037 A 
HETATM   10  C   UNL     1      -4.211   4.038 -32.500  1.00  0.00     0.048 A 
HETATM   11  C   UNL     1      -2.859   4.324 -32.732  1.00  0.00     0.102 A 
HETATM   12  C   UNL     1      -2.482   4.928 -33.944  1.00  0.00     0.101 A 
HETATM   13  C   UNL     1      -3.443   5.194 -34.923  1.00  0.00     0.040 A 
HETATM   14  C   UNL     1      -4.789   4.924 -34.675  1.00  0.00     0.012 A 
BRANCH  11  15
HETATM   15  O   UNL     1      -1.849   4.083 -31.836  1.00  0.00    -0.353 OA
HETATM   16  C   UNL     1      -1.599   5.077 -30.853  1.00  0.00     0.210 C 
ENDBRANCH  11  15
BRANCH  12  17
HETATM   17  O   UNL     1      -1.150   5.214 -34.124  1.00  0.00    -0.353 OA
HETATM   18  C   UNL     1      -0.839   6.604 -34.096  1.00  0.00     0.210 C 
ENDBRANCH  12  17
ENDBRANCH   8   9
ENDBRANCH   4   8
BRANCH   5  19
HETATM   19  C   UNL     1      -8.469   2.410 -30.699  1.00  0.00     0.138 C 
BRANCH  19  20
HETATM   20  C   UNL     1      -9.611   2.774 -31.638  1.00  0.00     0.224 C 
HETATM   21  N   UNL     1     -10.042   1.751 -32.460  1.00  0.00    -0.327 N 
HETATM   22  H   UNL     1      -9.627   0.828 -32.346  1.00  0.00     0.169 HD
HETATM   23  O   UNL     1     -10.041   3.926 -31.643  1.00  0.00    -0.273 OA
BRANCH  21  24
HETATM   24  C   UNL     1     -11.043   1.815 -33.456  1.00  0.00     0.034 A 
HETATM   25  C   UNL     1     -11.093   2.789 -34.454  1.00  0.00     0.029 A 
HETATM   26  C   UNL     1     -12.113   2.770 -35.411  1.00  0.00     0.002 A 
HETATM   27  C   UNL     1     -13.100   1.786 -35.369  1.00  0.00     0.000 A 
HETATM   28  C   UNL     1     -13.059   0.811 -34.378  1.00  0.00     0.002 A 
HETATM   29  C   UNL     1     -12.028   0.819 -33.434  1.00  0.00     0.029 A 
ENDBRANCH  21  24
ENDBRANCH  19  20
ENDBRANCH   5  19
BRANCH   1  30
HETATM   30  C   UNL     1      -6.179  -0.515 -33.472  1.00  0.00     0.047 A 
HETATM   31  C   UNL     1      -4.836  -0.927 -33.477  1.00  0.00     0.033 A 
HETATM   32  C   UNL     1      -4.438  -2.181 -33.971  1.00  0.00     0.039 A 
HETATM   33  C   UNL     1      -5.379  -3.060 -34.489  1.00  0.00     0.068 A 
HETATM   34  C   UNL     1      -6.708  -2.654 -34.546  1.00  0.00     0.039 A 
HETATM   35  C   UNL     1      -7.102  -1.402 -34.045  1.00  0.00     0.033 A 
BRANCH  33  36
HETATM   36  O   UNL     1      -5.126  -4.311 -34.974  1.00  0.00    -0.356 OA
HETATM   37  C   UNL     1      -4.404  -5.188 -34.116  1.00  0.00     0.210 C 
ENDBRANCH  33  36
ENDBRANCH   1  30
TORSDOF 9
ENDMDL
MODEL 7
REMARK VINA RESULT:      -8.9      2.128      7.703
REMARK  9 active torsions:
REMARK  status: ('A' for Active; 'I' for Inactive)
REMARK    1  A    between atoms: O_2  and  C_3 
REMARK    2  A    between atoms: C_6  and  N_7 
REMARK    3  A    between atoms: N_10  and  C_11 
REMARK    4  A    between atoms: C_11  and  C_12 
REMARK    5  A    between atoms: C_14  and  O_15 
REMARK    6  A    between atoms: C_17  and  O_18 
REMARK    7  A    between atoms: C_22  and  C_23 
REMARK    8  A    between atoms: C_23  and  C_24 
REMARK       I    between atoms: C_24  and  N_25 
REMARK    9  A    between atoms: N_25  and  C_26 
ROOT
HETATM    1  N   UNL     1      -5.210   4.375 -31.548  1.00  0.00    -0.232 N 
HETATM    2  C   UNL     1      -6.574   4.388 -31.738  1.00  0.00     0.333 C 
HETATM    3  O   UNL     1      -7.341   5.340 -31.713  1.00  0.00    -0.246 OA
HETATM    4  N   UNL     1      -7.042   3.070 -31.847  1.00  0.00    -0.315 N 
HETATM    5  C   UNL     1      -5.955   2.119 -31.718  1.00  0.00     0.191 C 
HETATM    6  C   UNL     1      -4.801   3.070 -31.409  1.00  0.00     0.256 C 
HETATM    7  O   UNL     1      -3.694   2.625 -31.114  1.00  0.00    -0.270 OA
ENDROOT
BRANCH   4   8
HETATM    8  C   UNL     1      -8.354   2.824 -31.270  1.00  0.00     0.167 C 
BRANCH   8   9
HETATM    9  C   UNL     1      -9.422   2.313 -32.195  1.00  0.00    -0.037 A 
HETATM   10  C   UNL     1     -10.530   3.117 -32.512  1.00  0.00     0.048 A 
HETATM   11  C   UNL     1     -11.620   2.587 -33.213  1.00  0.00     0.102 A 
HETATM   12  C   UNL     1     -11.590   1.242 -33.620  1.00  0.00     0.101 A 
HETATM   13  C   UNL     1     -10.460   0.460 -33.365  1.00  0.00     0.040 A 
HETATM   14  C   UNL     1      -9.387   0.989 -32.649  1.00  0.00     0.012 A 
BRANCH  11  15
HETATM   15  O   UNL     1     -12.761   3.286 -33.520  1.00  0.00    -0.353 OA
HETATM   16  C   UNL     1     -12.635   4.375 -34.422  1.00  0.00     0.210 C 
ENDBRANCH  11  15
BRANCH  12  17
HETATM   17  O   UNL     1     -12.688   0.754 -34.286  1.00  0.00    -0.353 OA
HETATM   18  C   UNL     1     -13.421  -0.232 -33.564  1.00  0.00     0.210 C 
ENDBRANCH  12  17
ENDBRANCH   8   9
ENDBRANCH   4   8
BRANCH   5  19
HETATM   19  C   UNL     1      -5.628   1.398 -33.024  1.00  0.00     0.138 C 
BRANCH  19  20
HETATM   20  C   UNL     1      -5.780  -0.116 -32.945  1.00  0.00     0.224 C 
HETATM   21  N   UNL     1      -5.283  -0.812 -34.029  1.00  0.00    -0.327 N 
HETATM   22  H   UNL     1      -4.802  -0.292 -34.762  1.00  0.00     0.169 HD
HETATM   23  O   UNL     1      -6.353  -0.612 -31.977  1.00  0.00    -0.273 OA
BRANCH  21  24
HETATM   24  C   UNL     1      -5.331  -2.208 -34.247  1.00  0.00     0.034 A 
HETATM   25  C   UNL     1      -4.270  -3.077 -33.994  1.00  0.00     0.029 A 
HETATM   26  C   UNL     1      -4.409  -4.450 -34.226  1.00  0.00     0.002 A 
HETATM   27  C   UNL     1      -5.605  -4.962 -34.726  1.00  0.00     0.000 A 
HETATM   28  C   UNL     1      -6.669  -4.104 -34.982  1.00  0.00     0.002 A 
HETATM   29  C   UNL     1      -6.537  -2.735 -34.731  1.00  0.00     0.029 A 
ENDBRANCH  21  24
ENDBRANCH  19  20
ENDBRANCH   5  19
BRANCH   1  30
HETATM   30  C   UNL     1      -4.393   5.534 -31.337  1.00  0.00     0.047 A 
HETATM   31  C   UNL     1      -3.645   6.112 -32.377  1.00  0.00     0.033 A 
HETATM   32  C   UNL     1      -2.894   7.286 -32.197  1.00  0.00     0.039 A 
HETATM   33  C   UNL     1      -2.860   7.913 -30.960  1.00  0.00     0.068 A 
HETATM   34  C   UNL     1      -3.547   7.330 -29.900  1.00  0.00     0.039 A 
HETATM   35  C   UNL     1      -4.301   6.161 -30.085  1.00  0.00     0.033 A 
BRANCH  33  36
HETATM   36  O   UNL     1      -2.192   9.066 -30.663  1.00  0.00    -0.356 OA
HETATM   37  C   UNL     1      -1.985   9.339 -29.281  1.00  0.00     0.210 C 
ENDBRANCH  33  36
ENDBRANCH   1  30
TORSDOF 9
ENDMDL
MODEL 8
REMARK VINA RESULT:      -8.7      1.763      7.927
REMARK  9 active torsions:
REMARK  status: ('A' for Active; 'I' for Inactive)
REMARK    1  A    between atoms: O_2  and  C_3 
REMARK    2  A    between atoms: C_6  and  N_7 
REMARK    3  A    between atoms: N_10  and  C_11 
REMARK    4  A    between atoms: C_11  and  C_12 
REMARK    5  A    between atoms: C_14  and  O_15 
REMARK    6  A    between atoms: C_17  and  O_18 
REMARK    7  A    between atoms: C_22  and  C_23 
REMARK    8  A    between atoms: C_23  and  C_24 
REMARK       I    between atoms: C_24  and  N_25 
REMARK    9  A    between atoms: N_25  and  C_26 
ROOT
HETATM    1  N   UNL     1      -6.688   3.481 -32.063  1.00  0.00    -0.232 N 
HETATM    2  C   UNL     1      -7.491   3.833 -33.127  1.00  0.00     0.333 C 
HETATM    3  O   UNL     1      -7.202   4.486 -34.120  1.00  0.00    -0.246 OA
HETATM    4  N   UNL     1      -8.810   3.435 -32.868  1.00  0.00    -0.315 N 
HETATM    5  C   UNL     1      -8.915   2.793 -31.571  1.00  0.00     0.191 C 
HETATM    6  C   UNL     1      -7.485   2.973 -31.066  1.00  0.00     0.256 C 
HETATM    7  O   UNL     1      -7.188   2.650 -29.917  1.00  0.00    -0.270 OA
ENDROOT
BRANCH   4   8
HETATM    8  C   UNL     1      -9.842   4.327 -33.372  1.00  0.00     0.167 C 
BRANCH   8   9
HETATM    9  C   UNL     1     -11.151   3.703 -33.765  1.00  0.00    -0.037 A 
HETATM   10  C   UNL     1     -12.240   3.723 -32.878  1.00  0.00     0.048 A 
HETATM   11  C   UNL     1     -13.398   2.983 -33.150  1.00  0.00     0.102 A 
HETATM   12  C   UNL     1     -13.471   2.231 -34.334  1.00  0.00     0.101 A 
HETATM   13  C   UNL     1     -12.416   2.262 -35.250  1.00  0.00     0.040 A 
HETATM   14  C   UNL     1     -11.259   2.986 -34.962  1.00  0.00     0.012 A 
BRANCH  11  15
HETATM   15  O   UNL     1     -14.485   2.907 -32.317  1.00  0.00    -0.353 OA
HETATM   16  C   UNL     1     -15.160   4.119 -32.014  1.00  0.00     0.210 C 
ENDBRANCH  11  15
BRANCH  12  17
HETATM   17  O   UNL     1     -14.614   1.500 -34.554  1.00  0.00    -0.353 OA
HETATM   18  C   UNL     1     -14.543   0.151 -34.102  1.00  0.00     0.210 C 
ENDBRANCH  12  17
ENDBRANCH   8   9
ENDBRANCH   4   8
BRANCH   5  19
HETATM   19  C   UNL     1      -9.192   1.294 -31.662  1.00  0.00     0.138 C 
BRANCH  19  20
HETATM   20  C   UNL     1      -8.396   0.587 -32.752  1.00  0.00     0.224 C 
HETATM   21  N   UNL     1      -7.380  -0.232 -32.299  1.00  0.00    -0.327 N 
HETATM   22  H   UNL     1      -7.271  -0.360 -31.294  1.00  0.00     0.169 HD
HETATM   23  O   UNL     1      -8.663   0.811 -33.931  1.00  0.00    -0.273 OA
BRANCH  21  24
HETATM   24  C   UNL     1      -6.458  -0.964 -33.079  1.00  0.00     0.034 A 
HETATM   25  C   UNL     1      -5.073  -0.810 -33.004  1.00  0.00     0.029 A 
HETATM   26  C   UNL     1      -4.230  -1.589 -33.805  1.00  0.00     0.002 A 
HETATM   27  C   UNL     1      -4.765  -2.517 -34.697  1.00  0.00     0.000 A 
HETATM   28  C   UNL     1      -6.145  -2.678 -34.779  1.00  0.00     0.002 A 
HETATM   29  C   UNL     1      -6.986  -1.914 -33.964  1.00  0.00     0.029 A 
ENDBRANCH  21  24
ENDBRANCH  19  20
ENDBRANCH   5  19
BRANCH   1  30
HETATM   30  C   UNL     1      -5.291   3.780 -31.948  1.00  0.00     0.047 A 
HETATM   31  C   UNL     1      -4.836   4.980 -31.375  1.00  0.00     0.033 A 
HETATM   32  C   UNL     1      -3.470   5.255 -31.197  1.00  0.00     0.039 A 
HETATM   33  C   UNL     1      -2.512   4.336 -31.600  1.00  0.00     0.068 A 
HETATM   34  C   UNL     1      -2.934   3.165 -32.221  1.00  0.00     0.039 A 
HETATM   35  C   UNL     1      -4.301   2.891 -32.392  1.00  0.00     0.033 A 
BRANCH  33  36
HETATM   36  O   UNL     1      -1.161   4.472 -31.461  1.00  0.00    -0.356 OA
HETATM   37  C   UNL     1      -0.596   5.689 -31.937  1.00  0.00     0.210 C 
ENDBRANCH  33  36
ENDBRANCH   1  30
TORSDOF 9
ENDMDL
MODEL 9
REMARK VINA RESULT:      -8.6      2.505      7.783
REMARK  9 active torsions:
REMARK  status: ('A' for Active; 'I' for Inactive)
REMARK    1  A    between atoms: O_2  and  C_3 
REMARK    2  A    between atoms: C_6  and  N_7 
REMARK    3  A    between atoms: N_10  and  C_11 
REMARK    4  A    between atoms: C_11  and  C_12 
REMARK    5  A    between atoms: C_14  and  O_15 
REMARK    6  A    between atoms: C_17  and  O_18 
REMARK    7  A    between atoms: C_22  and  C_23 
REMARK    8  A    between atoms: C_23  and  C_24 
REMARK       I    between atoms: C_24  and  N_25 
REMARK    9  A    between atoms: N_25  and  C_26 
ROOT
HETATM    1  N   UNL     1      -6.490   1.043 -32.361  1.00  0.00    -0.232 N 
HETATM    2  C   UNL     1      -7.643   1.249 -31.636  1.00  0.00     0.333 C 
HETATM    3  O   UNL     1      -8.615   0.515 -31.519  1.00  0.00    -0.246 OA
HETATM    4  N   UNL     1      -7.635   2.546 -31.105  1.00  0.00    -0.315 N 
HETATM    5  C   UNL     1      -6.431   3.259 -31.491  1.00  0.00     0.191 C 
HETATM    6  C   UNL     1      -5.791   2.225 -32.413  1.00  0.00     0.256 C 
HETATM    7  O   UNL     1      -4.776   2.505 -33.049  1.00  0.00    -0.270 OA
ENDROOT
BRANCH   4   8
HETATM    8  C   UNL     1      -8.931   3.202 -31.039  1.00  0.00     0.167 C 
BRANCH   8   9
HETATM    9  C   UNL     1      -9.323   4.059 -32.209  1.00  0.00    -0.037 A 
HETATM   10  C   UNL     1      -9.997   3.496 -33.305  1.00  0.00     0.048 A 
HETATM   11  C   UNL     1     -10.196   4.235 -34.478  1.00  0.00     0.102 A 
HETATM   12  C   UNL     1      -9.732   5.560 -34.544  1.00  0.00     0.101 A 
HETATM   13  C   UNL     1      -9.122   6.144 -33.431  1.00  0.00     0.040 A 
HETATM   14  C   UNL     1      -8.910   5.395 -32.274  1.00  0.00     0.012 A 
BRANCH  11  15
HETATM   15  O   UNL     1     -10.798   3.748 -35.611  1.00  0.00    -0.353 OA
HETATM   16  C   UNL     1     -12.142   3.304 -35.495  1.00  0.00     0.210 C 
ENDBRANCH  11  15
BRANCH  12  17
HETATM   17  O   UNL     1      -9.927   6.245 -35.720  1.00  0.00    -0.353 OA
HETATM   18  C   UNL     1     -10.848   7.327 -35.623  1.00  0.00     0.210 C 
ENDBRANCH  12  17
ENDBRANCH   8   9
ENDBRANCH   4   8
BRANCH   5  19
HETATM   19  C   UNL     1      -5.474   3.499 -30.324  1.00  0.00     0.138 C 
BRANCH  19  20
HETATM   20  C   UNL     1      -4.533   4.678 -30.535  1.00  0.00     0.224 C 
HETATM   21  N   UNL     1      -3.324   4.364 -31.125  1.00  0.00    -0.327 N 
HETATM   22  H   UNL     1      -3.168   3.405 -31.432  1.00  0.00     0.169 HD
HETATM   23  O   UNL     1      -4.870   5.794 -30.144  1.00  0.00    -0.273 OA
BRANCH  21  24
HETATM   24  C   UNL     1      -2.248   5.239 -31.394  1.00  0.00     0.034 A 
HETATM   25  C   UNL     1      -1.059   5.265 -30.665  1.00  0.00     0.029 A 
HETATM   26  C   UNL     1      -0.037   6.157 -31.009  1.00  0.00     0.002 A 
HETATM   27  C   UNL     1      -0.202   7.040 -32.075  1.00  0.00     0.000 A 
HETATM   28  C   UNL     1      -1.384   7.022 -32.808  1.00  0.00     0.002 A 
HETATM   29  C   UNL     1      -2.397   6.117 -32.477  1.00  0.00     0.029 A 
ENDBRANCH  21  24
ENDBRANCH  19  20
ENDBRANCH   5  19
BRANCH   1  30
HETATM   30  C   UNL     1      -6.178  -0.147 -33.098  1.00  0.00     0.047 A 
HETATM   31  C   UNL     1      -4.995  -0.870 -32.868  1.00  0.00     0.033 A 
HETATM   32  C   UNL     1      -4.709  -2.072 -33.536  1.00  0.00     0.039 A 
HETATM   33  C   UNL     1      -5.600  -2.583 -34.470  1.00  0.00     0.068 A 
HETATM   34  C   UNL     1      -6.751  -1.858 -34.757  1.00  0.00     0.039 A 
HETATM   35  C   UNL     1      -7.036  -0.660 -34.082  1.00  0.00     0.033 A 
BRANCH  33  36
HETATM   36  O   UNL     1      -5.452  -3.748 -35.166  1.00  0.00    -0.356 OA
HETATM   37  C   UNL     1      -6.617  -4.556 -35.302  1.00  0.00     0.210 C 
ENDBRANCH  33  36
ENDBRANCH   1  30
TORSDOF 9
ENDMDL
MODEL 10
REMARK VINA RESULT:      -8.6      2.093      6.289
REMARK  9 active torsions:
REMARK  status: ('A' for Active; 'I' for Inactive)
REMARK    1  A    between atoms: O_2  and  C_3 
REMARK    2  A    between atoms: C_6  and  N_7 
REMARK    3  A    between atoms: N_10  and  C_11 
REMARK    4  A    between atoms: C_11  and  C_12 
REMARK    5  A    between atoms: C_14  and  O_15 
REMARK    6  A    between atoms: C_17  and  O_18 
REMARK    7  A    between atoms: C_22  and  C_23 
REMARK    8  A    between atoms: C_23  and  C_24 
REMARK       I    between atoms: C_24  and  N_25 
REMARK    9  A    between atoms: N_25  and  C_26 
ROOT
HETATM    1  N   UNL     1      -6.485   0.832 -32.757  1.00  0.00    -0.232 N 
HETATM    2  C   UNL     1      -6.580   2.037 -33.418  1.00  0.00     0.333 C 
HETATM    3  O   UNL     1      -6.364   2.282 -34.596  1.00  0.00    -0.246 OA
HETATM    4  N   UNL     1      -6.853   3.055 -32.493  1.00  0.00    -0.315 N 
HETATM    5  C   UNL     1      -6.938   2.526 -31.145  1.00  0.00     0.191 C 
HETATM    6  C   UNL     1      -6.568   1.068 -31.406  1.00  0.00     0.256 C 
HETATM    7  O   UNL     1      -6.415   0.290 -30.466  1.00  0.00    -0.270 OA
ENDROOT
BRANCH   4   8
HETATM    8  C   UNL     1      -6.234   4.340 -32.779  1.00  0.00     0.167 C 
BRANCH   8   9
HETATM    9  C   UNL     1      -4.857   4.572 -32.225  1.00  0.00    -0.037 A 
HETATM   10  C   UNL     1      -4.667   5.444 -31.141  1.00  0.00     0.048 A 
HETATM   11  C   UNL     1      -3.378   5.817 -30.740  1.00  0.00     0.102 A 
HETATM   12  C   UNL     1      -2.266   5.293 -31.422  1.00  0.00     0.101 A 
HETATM   13  C   UNL     1      -2.451   4.373 -32.458  1.00  0.00     0.040 A 
HETATM   14  C   UNL     1      -3.738   4.023 -32.863  1.00  0.00     0.012 A 
BRANCH  11  15
HETATM   15  O   UNL     1      -3.104   6.700 -29.726  1.00  0.00    -0.353 OA
HETATM   16  C   UNL     1      -3.479   8.056 -29.924  1.00  0.00     0.210 C 
ENDBRANCH  11  15
BRANCH  12  17
HETATM   17  O   UNL     1      -1.019   5.701 -31.014  1.00  0.00    -0.353 OA
HETATM   18  C   UNL     1      -0.399   6.648 -31.879  1.00  0.00     0.210 C 
ENDBRANCH  12  17
ENDBRANCH   8   9
ENDBRANCH   4   8
BRANCH   5  19
HETATM   19  C   UNL     1      -8.356   2.553 -30.577  1.00  0.00     0.138 C 
BRANCH  19  20
HETATM   20  C   UNL     1      -9.413   2.984 -31.585  1.00  0.00     0.224 C 
HETATM   21  N   UNL     1      -9.881   1.978 -32.409  1.00  0.00    -0.327 N 
HETATM   22  H   UNL     1      -9.548   1.028 -32.254  1.00  0.00     0.169 HD
HETATM   23  O   UNL     1      -9.748   4.165 -31.637  1.00  0.00    -0.273 OA
BRANCH  21  24
HETATM   24  C   UNL     1     -10.817   2.098 -33.461  1.00  0.00     0.034 A 
HETATM   25  C   UNL     1     -10.764   3.080 -34.450  1.00  0.00     0.029 A 
HETATM   26  C   UNL     1     -11.726   3.116 -35.464  1.00  0.00     0.002 A 
HETATM   27  C   UNL     1     -12.759   2.181 -35.489  1.00  0.00     0.000 A 
HETATM   28  C   UNL     1     -12.823   1.198 -34.506  1.00  0.00     0.002 A 
HETATM   29  C   UNL     1     -11.848   1.149 -33.505  1.00  0.00     0.029 A 
ENDBRANCH  21  24
ENDBRANCH  19  20
ENDBRANCH   5  19
BRANCH   1  30
HETATM   30  C   UNL     1      -6.157  -0.423 -33.368  1.00  0.00     0.047 A 
HETATM   31  C   UNL     1      -4.847  -0.932 -33.355  1.00  0.00     0.033 A 
HETATM   32  C   UNL     1      -4.526  -2.190 -33.894  1.00  0.00     0.039 A 
HETATM   33  C   UNL     1      -5.512  -2.975 -34.475  1.00  0.00     0.068 A 
HETATM   34  C   UNL     1      -6.806  -2.469 -34.550  1.00  0.00     0.039 A 
HETATM   35  C   UNL     1      -7.123  -1.215 -34.006  1.00  0.00     0.033 A 
BRANCH  33  36
HETATM   36  O   UNL     1      -5.336  -4.219 -35.009  1.00  0.00    -0.356 OA
HETATM   37  C   UNL     1      -4.588  -5.142 -34.224  1.00  0.00     0.210 C 
ENDBRANCH  33  36
ENDBRANCH   1  30
TORSDOF 9
ENDMDL
