MODEL 1
REMARK VINA RESULT:      -7.7      0.000      0.000
REMARK  8 active torsions:
REMARK  status: ('A' for Active; 'I' for Inactive)
REMARK    1  A    between atoms: C_2  and  C_3 
REMARK    2  A    between atoms: C_3  and  C_4 
REMARK    3  A    between atoms: C_4  and  O_5 
REMARK    4  A    between atoms: O_5  and  C_6 
REMARK    5  A    between atoms: C_9  and  C_10 
REMARK    6  A    between atoms: C_10  and  N_11 
REMARK    7  A    between atoms: N_11  and  C_12 
REMARK    8  A    between atoms: C_19  and  C_20 
REMARK       I    between atoms: C_20  and  N_21 
ROOT
HETATM    1  C   UNL     1      -6.269   0.803 -32.793  1.00  0.00     0.009 A 
HETATM    2  C   UNL     1      -5.260  -0.094 -32.397  1.00  0.00     0.039 A 
HETATM    3  C   UNL     1      -4.995  -1.254 -33.155  1.00  0.00     0.030 A 
HETATM    4  C   UNL     1      -5.723  -1.471 -34.316  1.00  0.00     0.063 A 
HETATM    5  N   UNL     1      -5.248  -2.646 -34.830  1.00  0.00    -0.277 N 
HETATM    6  H   UNL     1      -5.548  -3.108 -35.680  1.00  0.00     0.189 HD
HETATM    7  N   UNL     1      -4.276  -3.218 -34.100  1.00  0.00    -0.168 NA
HETATM    8  C   UNL     1      -4.107  -2.367 -33.062  1.00  0.00     0.156 A 
HETATM    9  C   UNL     1      -6.702  -0.589 -34.773  1.00  0.00     0.034 A 
HETATM   10  C   UNL     1      -6.945   0.552 -33.994  1.00  0.00     0.026 A 
ENDROOT
BRANCH   1  11
HETATM   11  N   UNL     1      -6.449   1.975 -32.043  1.00  0.00    -0.289 NA
HETATM   12  H   UNL     1      -7.322   1.962 -31.521  1.00  0.00     0.128 HD
BRANCH  11  13
HETATM   13  C   UNL     1      -6.223   3.261 -32.690  1.00  0.00     0.131 C 
BRANCH  13  14
HETATM   14  C   UNL     1      -4.757   3.621 -32.635  1.00  0.00    -0.045 A 
HETATM   15  C   UNL     1      -4.170   4.360 -33.674  1.00  0.00     0.011 A 
HETATM   16  C   UNL     1      -2.833   4.764 -33.597  1.00  0.00     0.037 A 
HETATM   17  C   UNL     1      -2.072   4.440 -32.475  1.00  0.00     0.068 A 
HETATM   18  C   UNL     1      -2.631   3.658 -31.465  1.00  0.00     0.037 A 
HETATM   19  C   UNL     1      -3.967   3.254 -31.539  1.00  0.00     0.011 A 
BRANCH  17  20
HETATM   20  O   UNL     1      -0.772   4.818 -32.275  1.00  0.00    -0.351 OA
BRANCH  20  21
HETATM   21  C   UNL     1      -0.462   5.259 -30.949  1.00  0.00     0.176 C 
BRANCH  21  22
HETATM   22  C   UNL     1      -0.063   6.732 -31.029  1.00  0.00     0.030 C 
BRANCH  22  23
HETATM   23  C   UNL     1      -1.226   7.700 -30.756  1.00  0.00    -0.021 C 
HETATM   24  C   UNL     1      -2.317   7.064 -29.893  1.00  0.00     0.009 C 
HETATM   25  C   UNL     1      -1.825   8.184 -32.078  1.00  0.00     0.009 C 
ENDBRANCH  22  23
ENDBRANCH  21  22
ENDBRANCH  20  21
ENDBRANCH  17  20
ENDBRANCH  13  14
ENDBRANCH  11  13
ENDBRANCH   1  11
BRANCH   8  26
HETATM   26  C   UNL     1      -3.115  -2.633 -32.012  1.00  0.00     0.270 C 
HETATM   27  N   UNL     1      -2.408  -1.529 -31.620  1.00  0.00    -0.365 N 
HETATM   28  H   UNL     1      -2.609  -0.642 -32.066  1.00  0.00     0.159 HD
HETATM   29  H   UNL     1      -1.701  -1.612 -30.906  1.00  0.00     0.159 HD
HETATM   30  O   UNL     1      -2.909  -3.733 -31.510  1.00  0.00    -0.266 OA
ENDBRANCH   8  26
TORSDOF 8
ENDMDL
MODEL 2
REMARK VINA RESULT:      -7.5      1.589      2.008
REMARK  8 active torsions:
REMARK  status: ('A' for Active; 'I' for Inactive)
REMARK    1  A    between atoms: C_2  and  C_3 
REMARK    2  A    between atoms: C_3  and  C_4 
REMARK    3  A    between atoms: C_4  and  O_5 
REMARK    4  A    between atoms: O_5  and  C_6 
REMARK    5  A    between atoms: C_9  and  C_10 
REMARK    6  A    between atoms: C_10  and  N_11 
REMARK    7  A    between atoms: N_11  and  C_12 
REMARK    8  A    between atoms: C_19  and  C_20 
REMARK       I    between atoms: C_20  and  N_21 
ROOT
HETATM    1  C   UNL     1      -5.549   0.362 -33.186  1.00  0.00     0.009 A 
HETATM    2  C   UNL     1      -4.813  -0.833 -33.076  1.00  0.00     0.039 A 
HETATM    3  C   UNL     1      -5.167  -1.965 -33.840  1.00  0.00     0.030 A 
HETATM    4  C   UNL     1      -6.228  -1.864 -34.728  1.00  0.00     0.063 A 
HETATM    5  N   UNL     1      -6.326  -3.092 -35.320  1.00  0.00    -0.277 N 
HETATM    6  H   UNL     1      -6.991  -3.379 -36.029  1.00  0.00     0.189 HD
HETATM    7  N   UNL     1      -5.423  -3.989 -34.891  1.00  0.00    -0.168 NA
HETATM    8  C   UNL     1      -4.697  -3.305 -33.977  1.00  0.00     0.156 A 
HETATM    9  C   UNL     1      -6.959  -0.689 -34.905  1.00  0.00     0.034 A 
HETATM   10  C   UNL     1      -6.586   0.417 -34.126  1.00  0.00     0.026 A 
ENDROOT
BRANCH   1  11
HETATM   11  N   UNL     1      -5.116   1.479 -32.455  1.00  0.00    -0.289 NA
HETATM   12  H   UNL     1      -5.641   2.317 -32.697  1.00  0.00     0.128 HD
BRANCH  11  13
HETATM   13  C   UNL     1      -3.687   1.741 -32.360  1.00  0.00     0.131 C 
BRANCH  13  14
HETATM   14  C   UNL     1      -3.437   3.225 -32.227  1.00  0.00    -0.045 A 
HETATM   15  C   UNL     1      -2.532   3.870 -33.084  1.00  0.00     0.011 A 
HETATM   16  C   UNL     1      -2.350   5.256 -33.020  1.00  0.00     0.037 A 
HETATM   17  C   UNL     1      -3.079   6.011 -32.102  1.00  0.00     0.068 A 
HETATM   18  C   UNL     1      -3.937   5.370 -31.209  1.00  0.00     0.037 A 
HETATM   19  C   UNL     1      -4.121   3.987 -31.272  1.00  0.00     0.011 A 
BRANCH  17  20
HETATM   20  O   UNL     1      -3.013   7.373 -31.981  1.00  0.00    -0.351 OA
BRANCH  20  21
HETATM   21  C   UNL     1      -1.699   7.902 -31.772  1.00  0.00     0.176 C 
BRANCH  21  22
HETATM   22  C   UNL     1      -1.425   7.887 -30.269  1.00  0.00     0.030 C 
BRANCH  22  23
HETATM   23  C   UNL     1      -0.211   7.031 -29.874  1.00  0.00    -0.021 C 
HETATM   24  C   UNL     1       0.681   7.730 -28.848  1.00  0.00     0.009 C 
HETATM   25  C   UNL     1       0.606   6.678 -31.118  1.00  0.00     0.009 C 
ENDBRANCH  22  23
ENDBRANCH  21  22
ENDBRANCH  20  21
ENDBRANCH  17  20
ENDBRANCH  13  14
ENDBRANCH  11  13
ENDBRANCH   1  11
BRANCH   8  26
HETATM   26  C   UNL     1      -3.584  -3.939 -33.258  1.00  0.00     0.270 C 
HETATM   27  N   UNL     1      -3.102  -5.069 -33.860  1.00  0.00    -0.365 N 
HETATM   28  H   UNL     1      -3.532  -5.377 -34.724  1.00  0.00     0.159 HD
HETATM   29  H   UNL     1      -2.341  -5.577 -33.439  1.00  0.00     0.159 HD
HETATM   30  O   UNL     1      -3.106  -3.523 -32.207  1.00  0.00    -0.266 OA
ENDBRANCH   8  26
TORSDOF 8
ENDMDL
MODEL 3
REMARK VINA RESULT:      -7.3      3.461      8.198
REMARK  8 active torsions:
REMARK  status: ('A' for Active; 'I' for Inactive)
REMARK    1  A    between atoms: C_2  and  C_3 
REMARK    2  A    between atoms: C_3  and  C_4 
REMARK    3  A    between atoms: C_4  and  O_5 
REMARK    4  A    between atoms: O_5  and  C_6 
REMARK    5  A    between atoms: C_9  and  C_10 
REMARK    6  A    between atoms: C_10  and  N_11 
REMARK    7  A    between atoms: N_11  and  C_12 
REMARK    8  A    between atoms: C_19  and  C_20 
REMARK       I    between atoms: C_20  and  N_21 
ROOT
HETATM    1  C   UNL     1      -5.451   5.238 -32.910  1.00  0.00     0.009 A 
HETATM    2  C   UNL     1      -4.536   6.182 -32.406  1.00  0.00     0.039 A 
HETATM    3  C   UNL     1      -3.382   6.524 -33.142  1.00  0.00     0.030 A 
HETATM    4  C   UNL     1      -3.188   5.942 -34.386  1.00  0.00     0.063 A 
HETATM    5  N   UNL     1      -2.014   6.463 -34.854  1.00  0.00    -0.277 N 
HETATM    6  H   UNL     1      -1.566   6.264 -35.740  1.00  0.00     0.189 HD
HETATM    7  N   UNL     1      -1.421   7.332 -34.019  1.00  0.00    -0.168 NA
HETATM    8  C   UNL     1      -2.257   7.382 -32.957  1.00  0.00     0.156 A 
HETATM    9  C   UNL     1      -4.089   5.036 -34.947  1.00  0.00     0.034 A 
HETATM   10  C   UNL     1      -5.223   4.712 -34.188  1.00  0.00     0.026 A 
ENDROOT
BRANCH   1  11
HETATM   11  N   UNL     1      -6.616   4.982 -32.171  1.00  0.00    -0.289 NA
HETATM   12  H   UNL     1      -7.138   5.834 -31.977  1.00  0.00     0.128 HD
BRANCH  11  13
HETATM   13  C   UNL     1      -6.525   4.122 -30.998  1.00  0.00     0.131 C 
BRANCH  13  14
HETATM   14  C   UNL     1      -6.007   2.758 -31.390  1.00  0.00    -0.045 A 
HETATM   15  C   UNL     1      -4.700   2.373 -31.053  1.00  0.00     0.011 A 
HETATM   16  C   UNL     1      -4.237   1.086 -31.344  1.00  0.00     0.037 A 
HETATM   17  C   UNL     1      -5.080   0.168 -31.969  1.00  0.00     0.068 A 
HETATM   18  C   UNL     1      -6.360   0.561 -32.358  1.00  0.00     0.037 A 
HETATM   19  C   UNL     1      -6.826   1.846 -32.067  1.00  0.00     0.011 A 
BRANCH  17  20
HETATM   20  O   UNL     1      -4.747  -1.127 -32.261  1.00  0.00    -0.351 OA
BRANCH  20  21
HETATM   21  C   UNL     1      -4.261  -1.346 -33.590  1.00  0.00     0.176 C 
BRANCH  21  22
HETATM   22  C   UNL     1      -4.514  -2.811 -33.943  1.00  0.00     0.030 C 
BRANCH  22  23
HETATM   23  C   UNL     1      -5.671  -3.014 -34.935  1.00  0.00    -0.021 C 
HETATM   24  C   UNL     1      -6.914  -2.214 -34.544  1.00  0.00     0.009 C 
HETATM   25  C   UNL     1      -6.019  -4.500 -35.035  1.00  0.00     0.009 C 
ENDBRANCH  22  23
ENDBRANCH  21  22
ENDBRANCH  20  21
ENDBRANCH  17  20
ENDBRANCH  13  14
ENDBRANCH  11  13
ENDBRANCH   1  11
BRANCH   8  26
HETATM   26  C   UNL     1      -1.966   8.235 -31.797  1.00  0.00     0.270 C 
HETATM   27  N   UNL     1      -1.322   7.590 -30.777  1.00  0.00    -0.365 N 
HETATM   28  H   UNL     1      -1.103   6.607 -30.889  1.00  0.00     0.159 HD
HETATM   29  H   UNL     1      -1.083   8.092 -29.936  1.00  0.00     0.159 HD
HETATM   30  O   UNL     1      -2.260   9.424 -31.714  1.00  0.00    -0.266 OA
ENDBRANCH   8  26
TORSDOF 8
ENDMDL
MODEL 4
REMARK VINA RESULT:      -7.2      1.606      2.332
REMARK  8 active torsions:
REMARK  status: ('A' for Active; 'I' for Inactive)
REMARK    1  A    between atoms: C_2  and  C_3 
REMARK    2  A    between atoms: C_3  and  C_4 
REMARK    3  A    between atoms: C_4  and  O_5 
REMARK    4  A    between atoms: O_5  and  C_6 
REMARK    5  A    between atoms: C_9  and  C_10 
REMARK    6  A    between atoms: C_10  and  N_11 
REMARK    7  A    between atoms: N_11  and  C_12 
REMARK    8  A    between atoms: C_19  and  C_20 
REMARK       I    between atoms: C_20  and  N_21 
ROOT
HETATM    1  C   UNL     1      -6.803   0.489 -33.048  1.00  0.00     0.009 A 
HETATM    2  C   UNL     1      -5.628  -0.149 -32.607  1.00  0.00     0.039 A 
HETATM    3  C   UNL     1      -5.176  -1.330 -33.233  1.00  0.00     0.030 A 
HETATM    4  C   UNL     1      -5.892  -1.826 -34.313  1.00  0.00     0.063 A 
HETATM    5  N   UNL     1      -5.223  -2.951 -34.708  1.00  0.00    -0.277 N 
HETATM    6  H   UNL     1      -5.460  -3.568 -35.476  1.00  0.00     0.189 HD
HETATM    7  N   UNL     1      -4.133  -3.235 -33.974  1.00  0.00    -0.168 NA
HETATM    8  C   UNL     1      -4.091  -2.239 -33.060  1.00  0.00     0.156 A 
HETATM    9  C   UNL     1      -7.036  -1.206 -34.814  1.00  0.00     0.034 A 
HETATM   10  C   UNL     1      -7.462  -0.037 -34.167  1.00  0.00     0.026 A 
ENDROOT
BRANCH   1  11
HETATM   11  N   UNL     1      -7.173   1.696 -32.437  1.00  0.00    -0.289 NA
HETATM   12  H   UNL     1      -7.938   1.569 -31.777  1.00  0.00     0.128 HD
BRANCH  11  13
HETATM   13  C   UNL     1      -7.368   2.873 -33.273  1.00  0.00     0.131 C 
BRANCH  13  14
HETATM   14  C   UNL     1      -6.438   3.981 -32.839  1.00  0.00    -0.045 A 
HETATM   15  C   UNL     1      -6.626   5.289 -33.313  1.00  0.00     0.011 A 
HETATM   16  C   UNL     1      -5.818   6.336 -32.859  1.00  0.00     0.037 A 
HETATM   17  C   UNL     1      -4.818   6.086 -31.919  1.00  0.00     0.068 A 
HETATM   18  C   UNL     1      -4.589   4.781 -31.487  1.00  0.00     0.037 A 
HETATM   19  C   UNL     1      -5.396   3.733 -31.938  1.00  0.00     0.011 A 
BRANCH  17  20
HETATM   20  O   UNL     1      -4.000   7.039 -31.375  1.00  0.00    -0.351 OA
BRANCH  20  21
HETATM   21  C   UNL     1      -2.605   6.876 -31.655  1.00  0.00     0.176 C 
BRANCH  21  22
HETATM   22  C   UNL     1      -2.389   7.182 -33.136  1.00  0.00     0.030 C 
BRANCH  22  23
HETATM   23  C   UNL     1      -1.721   6.035 -33.910  1.00  0.00    -0.021 C 
HETATM   24  C   UNL     1      -2.690   5.339 -34.866  1.00  0.00     0.009 C 
HETATM   25  C   UNL     1      -1.135   5.016 -32.931  1.00  0.00     0.009 C 
ENDBRANCH  22  23
ENDBRANCH  21  22
ENDBRANCH  20  21
ENDBRANCH  17  20
ENDBRANCH  13  14
ENDBRANCH  11  13
ENDBRANCH   1  11
BRANCH   8  26
HETATM   26  C   UNL     1      -3.029  -2.179 -32.047  1.00  0.00     0.270 C 
HETATM   27  N   UNL     1      -2.743  -3.384 -31.466  1.00  0.00    -0.365 N 
HETATM   28  H   UNL     1      -3.266  -4.200 -31.762  1.00  0.00     0.159 HD
HETATM   29  H   UNL     1      -2.030  -3.443 -30.756  1.00  0.00     0.159 HD
HETATM   30  O   UNL     1      -2.431  -1.158 -31.723  1.00  0.00    -0.266 OA
ENDBRANCH   8  26
TORSDOF 8
ENDMDL
MODEL 5
REMARK VINA RESULT:      -7.1      3.371      8.490
REMARK  8 active torsions:
REMARK  status: ('A' for Active; 'I' for Inactive)
REMARK    1  A    between atoms: C_2  and  C_3 
REMARK    2  A    between atoms: C_3  and  C_4 
REMARK    3  A    between atoms: C_4  and  O_5 
REMARK    4  A    between atoms: O_5  and  C_6 
REMARK    5  A    between atoms: C_9  and  C_10 
REMARK    6  A    between atoms: C_10  and  N_11 
REMARK    7  A    between atoms: N_11  and  C_12 
REMARK    8  A    between atoms: C_19  and  C_20 
REMARK       I    between atoms: C_20  and  N_21 
ROOT
HETATM    1  C   UNL     1      -4.297   5.165 -30.625  1.00  0.00     0.009 A 
HETATM    2  C   UNL     1      -3.709   5.121 -31.903  1.00  0.00     0.039 A 
HETATM    3  C   UNL     1      -3.006   6.236 -32.407  1.00  0.00     0.030 A 
HETATM    4  C   UNL     1      -2.874   7.358 -31.602  1.00  0.00     0.063 A 
HETATM    5  N   UNL     1      -2.152   8.253 -32.341  1.00  0.00    -0.277 N 
HETATM    6  H   UNL     1      -1.861   9.183 -32.064  1.00  0.00     0.189 HD
HETATM    7  N   UNL     1      -1.804   7.813 -33.562  1.00  0.00    -0.168 NA
HETATM    8  C   UNL     1      -2.324   6.565 -33.615  1.00  0.00     0.156 A 
HETATM    9  C   UNL     1      -3.400   7.432 -30.313  1.00  0.00     0.034 A 
HETATM   10  C   UNL     1      -4.098   6.310 -29.843  1.00  0.00     0.026 A 
ENDROOT
BRANCH   1  11
HETATM   11  N   UNL     1      -4.928   4.008 -30.143  1.00  0.00    -0.289 NA
HETATM   12  H   UNL     1      -4.354   3.178 -30.279  1.00  0.00     0.128 HD
BRANCH  11  13
HETATM   13  C   UNL     1      -6.319   3.770 -30.502  1.00  0.00     0.131 C 
BRANCH  13  14
HETATM   14  C   UNL     1      -6.406   2.724 -31.589  1.00  0.00    -0.045 A 
HETATM   15  C   UNL     1      -6.493   3.108 -32.936  1.00  0.00     0.011 A 
HETATM   16  C   UNL     1      -6.496   2.149 -33.954  1.00  0.00     0.037 A 
HETATM   17  C   UNL     1      -6.406   0.795 -33.634  1.00  0.00     0.068 A 
HETATM   18  C   UNL     1      -6.378   0.403 -32.296  1.00  0.00     0.037 A 
HETATM   19  C   UNL     1      -6.372   1.359 -31.277  1.00  0.00     0.011 A 
BRANCH  17  20
HETATM   20  O   UNL     1      -6.359  -0.223 -34.547  1.00  0.00    -0.351 OA
BRANCH  20  21
HETATM   21  C   UNL     1      -6.524  -1.538 -34.004  1.00  0.00     0.176 C 
BRANCH  21  22
HETATM   22  C   UNL     1      -5.466  -2.439 -34.639  1.00  0.00     0.030 C 
BRANCH  22  23
HETATM   23  C   UNL     1      -5.693  -3.936 -34.371  1.00  0.00    -0.021 C 
HETATM   24  C   UNL     1      -4.379  -4.698 -34.194  1.00  0.00     0.009 C 
HETATM   25  C   UNL     1      -6.502  -4.554 -35.513  1.00  0.00     0.009 C 
ENDBRANCH  22  23
ENDBRANCH  21  22
ENDBRANCH  20  21
ENDBRANCH  17  20
ENDBRANCH  13  14
ENDBRANCH  11  13
ENDBRANCH   1  11
BRANCH   8  26
HETATM   26  C   UNL     1      -2.165   5.724 -34.809  1.00  0.00     0.270 C 
HETATM   27  N   UNL     1      -3.344   5.382 -35.412  1.00  0.00    -0.365 N 
HETATM   28  H   UNL     1      -4.210   5.718 -35.007  1.00  0.00     0.159 HD
HETATM   29  H   UNL     1      -3.337   4.803 -36.237  1.00  0.00     0.159 HD
HETATM   30  O   UNL     1      -1.087   5.341 -35.254  1.00  0.00    -0.266 OA
ENDBRANCH   8  26
TORSDOF 8
ENDMDL
MODEL 6
REMARK VINA RESULT:      -7.0      4.256      8.903
REMARK  8 active torsions:
REMARK  status: ('A' for Active; 'I' for Inactive)
REMARK    1  A    between atoms: C_2  and  C_3 
REMARK    2  A    between atoms: C_3  and  C_4 
REMARK    3  A    between atoms: C_4  and  O_5 
REMARK    4  A    between atoms: O_5  and  C_6 
REMARK    5  A    between atoms: C_9  and  C_10 
REMARK    6  A    between atoms: C_10  and  N_11 
REMARK    7  A    between atoms: N_11  and  C_12 
REMARK    8  A    between atoms: C_19  and  C_20 
REMARK       I    between atoms: C_20  and  N_21 
ROOT
HETATM    1  C   UNL     1      -1.266   7.563 -31.996  1.00  0.00     0.009 A 
HETATM    2  C   UNL     1      -0.836   7.008 -30.776  1.00  0.00     0.039 A 
HETATM    3  C   UNL     1      -1.183   7.616 -29.551  1.00  0.00     0.030 A 
HETATM    4  C   UNL     1      -1.986   8.748 -29.573  1.00  0.00     0.063 A 
HETATM    5  N   UNL     1      -2.156   9.100 -28.264  1.00  0.00    -0.277 N 
HETATM    6  H   UNL     1      -2.693   9.879 -27.903  1.00  0.00     0.189 HD
HETATM    7  N   UNL     1      -1.528   8.298 -27.387  1.00  0.00    -0.168 NA
HETATM    8  C   UNL     1      -0.924   7.374 -28.170  1.00  0.00     0.156 A 
HETATM    9  C   UNL     1      -2.473   9.308 -30.754  1.00  0.00     0.034 A 
HETATM   10  C   UNL     1      -2.106   8.684 -31.955  1.00  0.00     0.026 A 
ENDROOT
BRANCH   1  11
HETATM   11  N   UNL     1      -0.952   6.884 -33.183  1.00  0.00    -0.289 NA
HETATM   12  H   UNL     1      -0.130   7.276 -33.639  1.00  0.00     0.128 HD
BRANCH  11  13
HETATM   13  C   UNL     1      -2.020   6.606 -34.134  1.00  0.00     0.131 C 
BRANCH  13  14
HETATM   14  C   UNL     1      -2.885   5.474 -33.630  1.00  0.00    -0.045 A 
HETATM   15  C   UNL     1      -4.281   5.542 -33.751  1.00  0.00     0.011 A 
HETATM   16  C   UNL     1      -5.085   4.467 -33.359  1.00  0.00     0.037 A 
HETATM   17  C   UNL     1      -4.499   3.310 -32.848  1.00  0.00     0.068 A 
HETATM   18  C   UNL     1      -3.117   3.257 -32.672  1.00  0.00     0.037 A 
HETATM   19  C   UNL     1      -2.311   4.328 -33.065  1.00  0.00     0.011 A 
BRANCH  17  20
HETATM   20  O   UNL     1      -5.185   2.186 -32.473  1.00  0.00    -0.351 OA
BRANCH  20  21
HETATM   21  C   UNL     1      -6.074   1.657 -33.463  1.00  0.00     0.176 C 
BRANCH  21  22
HETATM   22  C   UNL     1      -5.917   0.136 -33.463  1.00  0.00     0.030 C 
BRANCH  22  23
HETATM   23  C   UNL     1      -6.492  -0.541 -34.717  1.00  0.00    -0.021 C 
HETATM   24  C   UNL     1      -7.769   0.142 -35.210  1.00  0.00     0.009 C 
HETATM   25  C   UNL     1      -6.770  -2.018 -34.434  1.00  0.00     0.009 C 
ENDBRANCH  22  23
ENDBRANCH  21  22
ENDBRANCH  20  21
ENDBRANCH  17  20
ENDBRANCH  13  14
ENDBRANCH  11  13
ENDBRANCH   1  11
BRANCH   8  26
HETATM   26  C   UNL     1      -0.117   6.293 -27.588  1.00  0.00     0.270 C 
HETATM   27  N   UNL     1      -0.670   5.720 -26.476  1.00  0.00    -0.365 N 
HETATM   28  H   UNL     1      -1.561   6.070 -26.144  1.00  0.00     0.159 HD
HETATM   29  H   UNL     1      -0.188   4.971 -26.004  1.00  0.00     0.159 HD
HETATM   30  O   UNL     1       0.962   5.913 -28.031  1.00  0.00    -0.266 OA
ENDBRANCH   8  26
TORSDOF 8
ENDMDL
MODEL 7
REMARK VINA RESULT:      -7.0      2.468      4.022
REMARK  8 active torsions:
REMARK  status: ('A' for Active; 'I' for Inactive)
REMARK    1  A    between atoms: C_2  and  C_3 
REMARK    2  A    between atoms: C_3  and  C_4 
REMARK    3  A    between atoms: C_4  and  O_5 
REMARK    4  A    between atoms: O_5  and  C_6 
REMARK    5  A    between atoms: C_9  and  C_10 
REMARK    6  A    between atoms: C_10  and  N_11 
REMARK    7  A    between atoms: N_11  and  C_12 
REMARK    8  A    between atoms: C_19  and  C_20 
REMARK       I    between atoms: C_20  and  N_21 
ROOT
HETATM    1  C   UNL     1      -5.530   4.616 -33.331  1.00  0.00     0.009 A 
HETATM    2  C   UNL     1      -5.627   3.282 -33.770  1.00  0.00     0.039 A 
HETATM    3  C   UNL     1      -6.229   2.301 -32.954  1.00  0.00     0.030 A 
HETATM    4  C   UNL     1      -6.756   2.686 -31.730  1.00  0.00     0.063 A 
HETATM    5  N   UNL     1      -7.270   1.545 -31.179  1.00  0.00    -0.277 N 
HETATM    6  H   UNL     1      -7.739   1.453 -30.287  1.00  0.00     0.189 HD
HETATM    7  N   UNL     1      -7.119   0.446 -31.937  1.00  0.00    -0.168 NA
HETATM    8  C   UNL     1      -6.479   0.899 -33.040  1.00  0.00     0.156 A 
HETATM    9  C   UNL     1      -6.724   4.003 -31.271  1.00  0.00     0.034 A 
HETATM   10  C   UNL     1      -6.113   4.953 -32.103  1.00  0.00     0.026 A 
ENDROOT
BRANCH   1  11
HETATM   11  N   UNL     1      -4.983   5.566 -34.207  1.00  0.00    -0.289 NA
HETATM   12  H   UNL     1      -5.665   5.890 -34.890  1.00  0.00     0.128 HD
BRANCH  11  13
HETATM   13  C   UNL     1      -3.690   5.290 -34.819  1.00  0.00     0.131 C 
BRANCH  13  14
HETATM   14  C   UNL     1      -2.575   5.618 -33.854  1.00  0.00    -0.045 A 
HETATM   15  C   UNL     1      -2.087   6.930 -33.756  1.00  0.00     0.011 A 
HETATM   16  C   UNL     1      -1.108   7.260 -32.812  1.00  0.00     0.037 A 
HETATM   17  C   UNL     1      -0.614   6.281 -31.951  1.00  0.00     0.068 A 
HETATM   18  C   UNL     1      -1.053   4.964 -32.081  1.00  0.00     0.037 A 
HETATM   19  C   UNL     1      -2.032   4.632 -33.021  1.00  0.00     0.011 A 
BRANCH  17  20
HETATM   20  O   UNL     1       0.310   6.500 -30.965  1.00  0.00    -0.351 OA
BRANCH  20  21
HETATM   21  C   UNL     1       0.265   5.576 -29.872  1.00  0.00     0.176 C 
BRANCH  21  22
HETATM   22  C   UNL     1       0.619   6.345 -28.600  1.00  0.00     0.030 C 
BRANCH  22  23
HETATM   23  C   UNL     1       0.530   7.871 -28.759  1.00  0.00    -0.021 C 
HETATM   24  C   UNL     1       1.552   8.604 -27.889  1.00  0.00     0.009 C 
HETATM   25  C   UNL     1      -0.881   8.351 -28.417  1.00  0.00     0.009 C 
ENDBRANCH  22  23
ENDBRANCH  21  22
ENDBRANCH  20  21
ENDBRANCH  17  20
ENDBRANCH  13  14
ENDBRANCH  11  13
ENDBRANCH   1  11
BRANCH   8  26
HETATM   26  C   UNL     1      -6.118  -0.007 -34.138  1.00  0.00     0.270 C 
HETATM   27  N   UNL     1      -6.978   0.034 -35.201  1.00  0.00    -0.365 N 
HETATM   28  H   UNL     1      -7.774   0.661 -35.155  1.00  0.00     0.159 HD
HETATM   29  H   UNL     1      -6.816  -0.555 -36.002  1.00  0.00     0.159 HD
HETATM   30  O   UNL     1      -5.142  -0.750 -34.137  1.00  0.00    -0.266 OA
ENDBRANCH   8  26
TORSDOF 8
ENDMDL
MODEL 8
REMARK VINA RESULT:      -7.0      4.422      9.369
REMARK  8 active torsions:
REMARK  status: ('A' for Active; 'I' for Inactive)
REMARK    1  A    between atoms: C_2  and  C_3 
REMARK    2  A    between atoms: C_3  and  C_4 
REMARK    3  A    between atoms: C_4  and  O_5 
REMARK    4  A    between atoms: O_5  and  C_6 
REMARK    5  A    between atoms: C_9  and  C_10 
REMARK    6  A    between atoms: C_10  and  N_11 
REMARK    7  A    between atoms: N_11  and  C_12 
REMARK    8  A    between atoms: C_19  and  C_20 
REMARK       I    between atoms: C_20  and  N_21 
ROOT
HETATM    1  C   UNL     1      -1.085   7.403 -32.549  1.00  0.00     0.009 A 
HETATM    2  C   UNL     1      -2.006   8.284 -31.953  1.00  0.00     0.039 A 
HETATM    3  C   UNL     1      -1.966   8.532 -30.565  1.00  0.00     0.030 A 
HETATM    4  C   UNL     1      -0.977   7.921 -29.808  1.00  0.00     0.063 A 
HETATM    5  N   UNL     1      -1.181   8.349 -28.526  1.00  0.00    -0.277 N 
HETATM    6  H   UNL     1      -0.639   8.106 -27.705  1.00  0.00     0.189 HD
HETATM    7  N   UNL     1      -2.224   9.184 -28.379  1.00  0.00    -0.168 NA
HETATM    8  C   UNL     1      -2.716   9.309 -29.633  1.00  0.00     0.156 A 
HETATM    9  C   UNL     1      -0.014   7.075 -30.360  1.00  0.00     0.034 A 
HETATM   10  C   UNL     1      -0.085   6.844 -31.742  1.00  0.00     0.026 A 
ENDROOT
BRANCH   1  11
HETATM   11  N   UNL     1      -1.125   7.241 -33.942  1.00  0.00    -0.289 NA
HETATM   12  H   UNL     1      -1.815   7.851 -34.375  1.00  0.00     0.128 HD
BRANCH  11  13
HETATM   13  C   UNL     1      -1.174   5.892 -34.488  1.00  0.00     0.131 C 
BRANCH  13  14
HETATM   14  C   UNL     1      -2.417   5.180 -34.009  1.00  0.00    -0.045 A 
HETATM   15  C   UNL     1      -3.667   5.482 -34.571  1.00  0.00     0.011 A 
HETATM   16  C   UNL     1      -4.812   4.775 -34.189  1.00  0.00     0.037 A 
HETATM   17  C   UNL     1      -4.716   3.753 -33.245  1.00  0.00     0.068 A 
HETATM   18  C   UNL     1      -3.488   3.487 -32.640  1.00  0.00     0.037 A 
HETATM   19  C   UNL     1      -2.342   4.190 -33.022  1.00  0.00     0.011 A 
BRANCH  17  20
HETATM   20  O   UNL     1      -5.760   2.972 -32.829  1.00  0.00    -0.351 OA
BRANCH  20  21
HETATM   21  C   UNL     1      -6.356   2.160 -33.847  1.00  0.00     0.176 C 
BRANCH  21  22
HETATM   22  C   UNL     1      -6.070   0.699 -33.502  1.00  0.00     0.030 C 
BRANCH  22  23
HETATM   23  C   UNL     1      -6.467  -0.284 -34.616  1.00  0.00    -0.021 C 
HETATM   24  C   UNL     1      -7.863   0.003 -35.171  1.00  0.00     0.009 C 
HETATM   25  C   UNL     1      -6.401  -1.720 -34.094  1.00  0.00     0.009 C 
ENDBRANCH  22  23
ENDBRANCH  21  22
ENDBRANCH  20  21
ENDBRANCH  17  20
ENDBRANCH  13  14
ENDBRANCH  11  13
ENDBRANCH   1  11
BRANCH   8  26
HETATM   26  C   UNL     1      -3.885  10.154 -29.912  1.00  0.00     0.270 C 
HETATM   27  N   UNL     1      -5.068   9.470 -29.965  1.00  0.00    -0.365 N 
HETATM   28  H   UNL     1      -5.055   8.468 -29.817  1.00  0.00     0.159 HD
HETATM   29  H   UNL     1      -5.926   9.964 -30.155  1.00  0.00     0.159 HD
HETATM   30  O   UNL     1      -3.842  11.367 -30.089  1.00  0.00    -0.266 OA
ENDBRANCH   8  26
TORSDOF 8
ENDMDL
MODEL 9
REMARK VINA RESULT:      -6.8      3.645      8.375
REMARK  8 active torsions:
REMARK  status: ('A' for Active; 'I' for Inactive)
REMARK    1  A    between atoms: C_2  and  C_3 
REMARK    2  A    between atoms: C_3  and  C_4 
REMARK    3  A    between atoms: C_4  and  O_5 
REMARK    4  A    between atoms: O_5  and  C_6 
REMARK    5  A    between atoms: C_9  and  C_10 
REMARK    6  A    between atoms: C_10  and  N_11 
REMARK    7  A    between atoms: N_11  and  C_12 
REMARK    8  A    between atoms: C_19  and  C_20 
REMARK       I    between atoms: C_20  and  N_21 
ROOT
HETATM    1  C   UNL     1      -3.147   6.825 -31.843  1.00  0.00     0.009 A 
HETATM    2  C   UNL     1      -2.003   6.100 -31.460  1.00  0.00     0.039 A 
HETATM    3  C   UNL     1      -1.251   6.492 -30.333  1.00  0.00     0.030 A 
HETATM    4  C   UNL     1      -1.683   7.581 -29.589  1.00  0.00     0.063 A 
HETATM    5  N   UNL     1      -0.777   7.713 -28.575  1.00  0.00    -0.277 N 
HETATM    6  H   UNL     1      -0.783   8.403 -27.834  1.00  0.00     0.189 HD
HETATM    7  N   UNL     1       0.215   6.806 -28.595  1.00  0.00    -0.168 NA
HETATM    8  C   UNL     1      -0.067   6.043 -29.676  1.00  0.00     0.156 A 
HETATM    9  C   UNL     1      -2.835   8.302 -29.902  1.00  0.00     0.034 A 
HETATM   10  C   UNL     1      -3.558   7.892 -31.032  1.00  0.00     0.026 A 
ENDROOT
BRANCH   1  11
HETATM   11  N   UNL     1      -3.898   6.356 -32.931  1.00  0.00    -0.289 NA
HETATM   12  H   UNL     1      -4.896   6.350 -32.729  1.00  0.00     0.128 HD
BRANCH  11  13
HETATM   13  C   UNL     1      -3.473   5.134 -33.599  1.00  0.00     0.131 C 
BRANCH  13  14
HETATM   14  C   UNL     1      -4.268   3.955 -33.087  1.00  0.00    -0.045 A 
HETATM   15  C   UNL     1      -3.634   2.938 -32.357  1.00  0.00     0.011 A 
HETATM   16  C   UNL     1      -4.373   1.882 -31.814  1.00  0.00     0.037 A 
HETATM   17  C   UNL     1      -5.756   1.839 -31.989  1.00  0.00     0.068 A 
HETATM   18  C   UNL     1      -6.384   2.815 -32.761  1.00  0.00     0.037 A 
HETATM   19  C   UNL     1      -5.648   3.872 -33.303  1.00  0.00     0.011 A 
BRANCH  17  20
HETATM   20  O   UNL     1      -6.581   0.879 -31.467  1.00  0.00    -0.351 OA
BRANCH  20  21
HETATM   21  C   UNL     1      -7.259   0.068 -32.433  1.00  0.00     0.176 C 
BRANCH  21  22
HETATM   22  C   UNL     1      -6.263  -0.970 -32.949  1.00  0.00     0.030 C 
BRANCH  22  23
HETATM   23  C   UNL     1      -6.349  -1.203 -34.466  1.00  0.00    -0.021 C 
HETATM   24  C   UNL     1      -7.364  -0.277 -35.136  1.00  0.00     0.009 C 
HETATM   25  C   UNL     1      -6.709  -2.662 -34.751  1.00  0.00     0.009 C 
ENDBRANCH  22  23
ENDBRANCH  21  22
ENDBRANCH  20  21
ENDBRANCH  17  20
ENDBRANCH  13  14
ENDBRANCH  11  13
ENDBRANCH   1  11
BRANCH   8  26
HETATM   26  C   UNL     1       0.794   4.915 -30.058  1.00  0.00     0.270 C 
HETATM   27  N   UNL     1       1.185   4.131 -29.007  1.00  0.00    -0.365 N 
HETATM   28  H   UNL     1       0.868   4.376 -28.077  1.00  0.00     0.159 HD
HETATM   29  H   UNL     1       1.780   3.335 -29.169  1.00  0.00     0.159 HD
HETATM   30  O   UNL     1       1.152   4.669 -31.205  1.00  0.00    -0.266 OA
ENDBRANCH   8  26
TORSDOF 8
ENDMDL
MODEL 10
REMARK VINA RESULT:      -6.8      4.300      8.674
REMARK  8 active torsions:
REMARK  status: ('A' for Active; 'I' for Inactive)
REMARK    1  A    between atoms: C_2  and  C_3 
REMARK    2  A    between atoms: C_3  and  C_4 
REMARK    3  A    between atoms: C_4  and  O_5 
REMARK    4  A    between atoms: O_5  and  C_6 
REMARK    5  A    between atoms: C_9  and  C_10 
REMARK    6  A    between atoms: C_10  and  N_11 
REMARK    7  A    between atoms: N_11  and  C_12 
REMARK    8  A    between atoms: C_19  and  C_20 
REMARK       I    between atoms: C_20  and  N_21 
ROOT
HETATM    1  C   UNL     1      -1.263   7.239 -31.533  1.00  0.00     0.009 A 
HETATM    2  C   UNL     1      -1.837   7.348 -30.253  1.00  0.00     0.039 A 
HETATM    3  C   UNL     1      -1.123   6.932 -29.110  1.00  0.00     0.030 A 
HETATM    4  C   UNL     1       0.168   6.449 -29.270  1.00  0.00     0.063 A 
HETATM    5  N   UNL     1       0.600   6.139 -28.011  1.00  0.00    -0.277 N 
HETATM    6  H   UNL     1       1.504   5.765 -27.748  1.00  0.00     0.189 HD
HETATM    7  N   UNL     1      -0.301   6.372 -27.041  1.00  0.00    -0.168 NA
HETATM    8  C   UNL     1      -1.370   6.865 -27.706  1.00  0.00     0.156 A 
HETATM    9  C   UNL     1       0.795   6.364 -30.513  1.00  0.00     0.034 A 
HETATM   10  C   UNL     1       0.057   6.780 -31.630  1.00  0.00     0.026 A 
ENDROOT
BRANCH   1  11
HETATM   11  N   UNL     1      -1.987   7.728 -32.631  1.00  0.00    -0.289 NA
HETATM   12  H   UNL     1      -2.824   8.231 -32.340  1.00  0.00     0.128 HD
BRANCH  11  13
HETATM   13  C   UNL     1      -2.253   6.832 -33.748  1.00  0.00     0.131 C 
BRANCH  13  14
HETATM   14  C   UNL     1      -3.066   5.646 -33.284  1.00  0.00    -0.045 A 
HETATM   15  C   UNL     1      -4.436   5.787 -33.019  1.00  0.00     0.011 A 
HETATM   16  C   UNL     1      -5.213   4.679 -32.663  1.00  0.00     0.037 A 
HETATM   17  C   UNL     1      -4.625   3.417 -32.575  1.00  0.00     0.068 A 
HETATM   18  C   UNL     1      -3.253   3.280 -32.780  1.00  0.00     0.037 A 
HETATM   19  C   UNL     1      -2.476   4.384 -33.138  1.00  0.00     0.011 A 
BRANCH  17  20
HETATM   20  O   UNL     1      -5.296   2.261 -32.277  1.00  0.00    -0.351 OA
BRANCH  20  21
HETATM   21  C   UNL     1      -4.597   1.053 -32.596  1.00  0.00     0.176 C 
BRANCH  21  22
HETATM   22  C   UNL     1      -5.458  -0.119 -32.124  1.00  0.00     0.030 C 
BRANCH  22  23
HETATM   23  C   UNL     1      -5.694  -1.183 -33.208  1.00  0.00    -0.021 C 
HETATM   24  C   UNL     1      -4.398  -1.880 -33.627  1.00  0.00     0.009 C 
HETATM   25  C   UNL     1      -6.360  -0.547 -34.430  1.00  0.00     0.009 C 
ENDBRANCH  22  23
ENDBRANCH  21  22
ENDBRANCH  20  21
ENDBRANCH  17  20
ENDBRANCH  13  14
ENDBRANCH  11  13
ENDBRANCH   1  11
BRANCH   8  26
HETATM   26  C   UNL     1      -2.596   7.254 -26.996  1.00  0.00     0.270 C 
HETATM   27  N   UNL     1      -3.193   6.231 -26.312  1.00  0.00    -0.365 N 
HETATM   28  H   UNL     1      -2.766   5.313 -26.346  1.00  0.00     0.159 HD
HETATM   29  H   UNL     1      -4.042   6.400 -25.796  1.00  0.00     0.159 HD
HETATM   30  O   UNL     1      -3.072   8.385 -26.995  1.00  0.00    -0.266 OA
ENDBRANCH   8  26
TORSDOF 8
ENDMDL
