MODEL 1
REMARK VINA RESULT:      -8.8      0.000      0.000
REMARK  5 active torsions:
REMARK  status: ('A' for Active; 'I' for Inactive)
REMARK    1  A    between atoms: C_2  and  O_3 
REMARK    2  A    between atoms: C_2  and  C_4 
REMARK    3  A    between atoms: C_7  and  N_8 
REMARK    4  A    between atoms: N_12  and  C_13 
REMARK    5  A    between atoms: C_13  and  C_14 
ROOT
HETATM    1  N   UNL     1      -8.857   0.927 -33.828  1.00  0.00    -0.367 N 
HETATM    2  C   UNL     1      -8.483   0.715 -32.410  1.00  0.00     0.127 C 
HETATM    3  C   UNL     1      -7.121   0.027 -32.264  1.00  0.00     0.068 C 
HETATM    4  C   UNL     1      -6.059   0.512 -33.282  1.00  0.00     0.206 C 
HETATM    5  N   UNL     1      -4.743  -0.255 -33.179  1.00  0.00     0.105 N 
HETATM    6  C   UNL     1      -3.848   0.234 -32.072  1.00  0.00     0.280 C 
HETATM    7  C   UNL     1      -3.399   1.700 -32.217  1.00  0.00     0.089 C 
HETATM    8  C   UNL     1      -4.579   2.499 -32.546  1.00  0.00     0.037 A 
HETATM    9  C   UNL     1      -5.767   1.991 -33.016  1.00  0.00     0.072 A 
HETATM   10  N   UNL     1      -6.577   3.094 -33.251  1.00  0.00    -0.352 N 
HETATM   11  H   UNL     1      -7.509   3.055 -33.658  1.00  0.00     0.166 HD
HETATM   12  C   UNL     1      -5.931   4.226 -32.945  1.00  0.00     0.181 A 
HETATM   13  N   UNL     1      -4.725   3.870 -32.495  1.00  0.00    -0.354 N 
HETATM   14  H   UNL     1      -4.003   4.526 -32.200  1.00  0.00     0.166 HD
HETATM   15  C   UNL     1      -6.620   0.446 -34.735  1.00  0.00     0.068 C 
HETATM   16  C   UNL     1      -8.113   0.116 -34.801  1.00  0.00     0.127 C 
ENDROOT
BRANCH   5  17
HETATM   17  C   UNL     1      -4.835  -1.735 -33.016  1.00  0.00     0.277 C 
BRANCH  17  18
HETATM   18  C   UNL     1      -4.622  -2.611 -34.266  1.00  0.00     0.006 C 
HETATM   19  C   UNL     1      -3.854  -3.893 -33.933  1.00  0.00     0.011 C 
HETATM   20  C   UNL     1      -5.978  -2.981 -34.879  1.00  0.00     0.011 C 
ENDBRANCH  17  18
ENDBRANCH   5  17
BRANCH   1  21
HETATM   21  C   UNL     1     -10.253   1.030 -34.002  1.00  0.00     0.103 A 
HETATM   22  N   UNL     1     -10.809   1.963 -34.787  1.00  0.00    -0.344 N 
HETATM   23  C   UNL     1     -12.134   2.103 -34.997  1.00  0.00     0.039 A 
HETATM   24  H   UNL     1     -10.246   2.624 -35.327  1.00  0.00     0.167 HD
HETATM   25  C   UNL     1     -13.023   1.245 -34.360  1.00  0.00     0.028 A 
HETATM   26  C   UNL     1     -12.515   0.265 -33.518  1.00  0.00     0.006 A 
HETATM   27  C   UNL     1     -11.135   0.156 -33.339  1.00  0.00     0.048 A 
BRANCH  23  28
HETATM   28  C   UNL     1     -12.519   3.192 -35.955  1.00  0.00     0.163 C 
HETATM   29  C   UNL     1     -11.748   4.484 -35.729  1.00  0.00     0.046 C 
BRANCH  28  30
HETATM   30  O   UNL     1     -12.193   2.672 -37.259  1.00  0.00    -0.390 OA
HETATM   31  H   UNL     1     -12.013   3.451 -37.828  1.00  0.00     0.210 HD
ENDBRANCH  28  30
ENDBRANCH  23  28
ENDBRANCH   1  21
TORSDOF 5
ENDMDL
MODEL 2
REMARK VINA RESULT:      -8.8      3.842      7.409
REMARK  5 active torsions:
REMARK  status: ('A' for Active; 'I' for Inactive)
REMARK    1  A    between atoms: C_2  and  O_3 
REMARK    2  A    between atoms: C_2  and  C_4 
REMARK    3  A    between atoms: C_7  and  N_8 
REMARK    4  A    between atoms: N_12  and  C_13 
REMARK    5  A    between atoms: C_13  and  C_14 
ROOT
HETATM    1  N   UNL     1      -4.172   3.434 -32.716  1.00  0.00    -0.367 N 
HETATM    2  C   UNL     1      -5.307   3.601 -33.654  1.00  0.00     0.127 C 
HETATM    3  C   UNL     1      -6.075   2.293 -33.875  1.00  0.00     0.068 C 
HETATM    4  C   UNL     1      -6.247   1.439 -32.594  1.00  0.00     0.206 C 
HETATM    5  N   UNL     1      -6.930   0.100 -32.859  1.00  0.00     0.105 N 
HETATM    6  C   UNL     1      -8.430   0.197 -32.947  1.00  0.00     0.280 C 
HETATM    7  C   UNL     1      -9.111   0.700 -31.660  1.00  0.00     0.089 C 
HETATM    8  C   UNL     1      -8.375   1.875 -31.194  1.00  0.00     0.037 A 
HETATM    9  C   UNL     1      -7.107   2.220 -31.598  1.00  0.00     0.072 A 
HETATM   10  N   UNL     1      -6.779   3.353 -30.866  1.00  0.00    -0.352 N 
HETATM   11  H   UNL     1      -5.877   3.824 -30.896  1.00  0.00     0.166 HD
HETATM   12  C   UNL     1      -7.785   3.696 -30.051  1.00  0.00     0.181 A 
HETATM   13  N   UNL     1      -8.766   2.814 -30.263  1.00  0.00    -0.354 N 
HETATM   14  H   UNL     1      -9.657   2.815 -29.768  1.00  0.00     0.166 HD
HETATM   15  C   UNL     1      -4.873   1.224 -31.889  1.00  0.00     0.068 C 
HETATM   16  C   UNL     1      -3.737   2.048 -32.499  1.00  0.00     0.127 C 
ENDROOT
BRANCH   5  17
HETATM   17  C   UNL     1      -6.491  -0.655 -34.069  1.00  0.00     0.277 C 
BRANCH  17  18
HETATM   18  C   UNL     1      -5.822  -2.028 -33.858  1.00  0.00     0.006 C 
HETATM   19  C   UNL     1      -6.245  -3.032 -34.934  1.00  0.00     0.011 C 
HETATM   20  C   UNL     1      -4.297  -1.872 -33.884  1.00  0.00     0.011 C 
ENDBRANCH  17  18
ENDBRANCH   5  17
BRANCH   1  21
HETATM   21  C   UNL     1      -3.169   4.405 -32.915  1.00  0.00     0.103 A 
HETATM   22  N   UNL     1      -2.098   4.503 -32.113  1.00  0.00    -0.344 N 
HETATM   23  C   UNL     1      -1.106   5.404 -32.260  1.00  0.00     0.039 A 
HETATM   24  H   UNL     1      -1.939   3.853 -31.340  1.00  0.00     0.167 HD
HETATM   25  C   UNL     1      -1.167   6.327 -33.298  1.00  0.00     0.028 A 
HETATM   26  C   UNL     1      -2.258   6.294 -34.155  1.00  0.00     0.006 A 
HETATM   27  C   UNL     1      -3.256   5.337 -33.967  1.00  0.00     0.048 A 
BRANCH  23  28
HETATM   28  C   UNL     1       0.014   5.291 -31.268  1.00  0.00     0.163 C 
HETATM   29  C   UNL     1       0.391   6.625 -30.643  1.00  0.00     0.046 C 
BRANCH  28  30
HETATM   30  O   UNL     1      -0.490   4.416 -30.239  1.00  0.00    -0.390 OA
HETATM   31  H   UNL     1      -0.202   4.803 -29.384  1.00  0.00     0.210 HD
ENDBRANCH  28  30
ENDBRANCH  23  28
ENDBRANCH   1  21
TORSDOF 5
ENDMDL
MODEL 3
REMARK VINA RESULT:      -8.6      1.276      3.749
REMARK  5 active torsions:
REMARK  status: ('A' for Active; 'I' for Inactive)
REMARK    1  A    between atoms: C_2  and  O_3 
REMARK    2  A    between atoms: C_2  and  C_4 
REMARK    3  A    between atoms: C_7  and  N_8 
REMARK    4  A    between atoms: N_12  and  C_13 
REMARK    5  A    between atoms: C_13  and  C_14 
ROOT
HETATM    1  N   UNL     1      -9.231   0.550 -33.442  1.00  0.00    -0.367 N 
HETATM    2  C   UNL     1      -8.279   1.084 -34.445  1.00  0.00     0.127 C 
HETATM    3  C   UNL     1      -6.903   1.382 -33.839  1.00  0.00     0.068 C 
HETATM    4  C   UNL     1      -6.430   0.332 -32.803  1.00  0.00     0.206 C 
HETATM    5  N   UNL     1      -5.103   0.703 -32.146  1.00  0.00     0.105 N 
HETATM    6  C   UNL     1      -3.900   0.358 -32.984  1.00  0.00     0.280 C 
HETATM    7  C   UNL     1      -3.745  -1.144 -33.287  1.00  0.00     0.089 C 
HETATM    8  C   UNL     1      -5.048  -1.650 -33.719  1.00  0.00     0.037 A 
HETATM    9  C   UNL     1      -6.247  -1.009 -33.516  1.00  0.00     0.072 A 
HETATM   10  N   UNL     1      -7.216  -1.865 -34.023  1.00  0.00    -0.352 N 
HETATM   11  H   UNL     1      -8.220  -1.701 -33.974  1.00  0.00     0.166 HD
HETATM   12  C   UNL     1      -6.653  -2.976 -34.515  1.00  0.00     0.181 A 
HETATM   13  N   UNL     1      -5.334  -2.841 -34.353  1.00  0.00    -0.354 N 
HETATM   14  H   UNL     1      -4.646  -3.544 -34.621  1.00  0.00     0.166 HD
HETATM   15  C   UNL     1      -7.529   0.092 -31.724  1.00  0.00     0.068 C 
HETATM   16  C   UNL     1      -8.858   0.781 -32.040  1.00  0.00     0.127 C 
ENDROOT
BRANCH   5  17
HETATM   17  C   UNL     1      -4.928   2.125 -31.731  1.00  0.00     0.277 C 
BRANCH  17  18
HETATM   18  C   UNL     1      -3.887   2.973 -32.489  1.00  0.00     0.006 C 
HETATM   19  C   UNL     1      -4.549   4.101 -33.286  1.00  0.00     0.011 C 
HETATM   20  C   UNL     1      -2.887   3.577 -31.495  1.00  0.00     0.011 C 
ENDBRANCH  17  18
ENDBRANCH   5  17
BRANCH   1  21
HETATM   21  C   UNL     1     -10.573   0.784 -33.803  1.00  0.00     0.103 A 
HETATM   22  N   UNL     1     -10.931   1.784 -34.621  1.00  0.00    -0.344 N 
HETATM   23  C   UNL     1     -12.196   2.050 -35.007  1.00  0.00     0.039 A 
HETATM   24  H   UNL     1     -10.242   2.404 -35.052  1.00  0.00     0.167 HD
HETATM   25  C   UNL     1     -13.236   1.260 -34.532  1.00  0.00     0.028 A 
HETATM   26  C   UNL     1     -12.939   0.217 -33.666  1.00  0.00     0.006 A 
HETATM   27  C   UNL     1     -11.613  -0.022 -33.302  1.00  0.00     0.048 A 
BRANCH  23  28
HETATM   28  C   UNL     1     -12.346   3.194 -35.966  1.00  0.00     0.163 C 
HETATM   29  C   UNL     1     -11.282   4.265 -35.786  1.00  0.00     0.046 C 
BRANCH  28  30
HETATM   30  O   UNL     1     -12.202   2.603 -37.273  1.00  0.00    -0.390 OA
HETATM   31  H   UNL     1     -11.237   2.533 -37.438  1.00  0.00     0.210 HD
ENDBRANCH  28  30
ENDBRANCH  23  28
ENDBRANCH   1  21
TORSDOF 5
ENDMDL
MODEL 4
REMARK VINA RESULT:      -8.5      1.421      2.062
REMARK  5 active torsions:
REMARK  status: ('A' for Active; 'I' for Inactive)
REMARK    1  A    between atoms: C_2  and  O_3 
REMARK    2  A    between atoms: C_2  and  C_4 
REMARK    3  A    between atoms: C_7  and  N_8 
REMARK    4  A    between atoms: N_12  and  C_13 
REMARK    5  A    between atoms: C_13  and  C_14 
ROOT
HETATM    1  N   UNL     1      -8.907   1.316 -34.033  1.00  0.00    -0.367 N 
HETATM    2  C   UNL     1      -8.645   0.795 -32.670  1.00  0.00     0.127 C 
HETATM    3  C   UNL     1      -7.522  -0.248 -32.652  1.00  0.00     0.068 C 
HETATM    4  C   UNL     1      -6.339   0.084 -33.596  1.00  0.00     0.206 C 
HETATM    5  N   UNL     1      -5.281  -1.015 -33.631  1.00  0.00     0.105 N 
HETATM    6  C   UNL     1      -4.320  -0.961 -32.474  1.00  0.00     0.280 C 
HETATM    7  C   UNL     1      -3.490   0.334 -32.395  1.00  0.00     0.089 C 
HETATM    8  C   UNL     1      -4.404   1.462 -32.579  1.00  0.00     0.037 A 
HETATM    9  C   UNL     1      -5.670   1.370 -33.107  1.00  0.00     0.072 A 
HETATM   10  N   UNL     1      -6.147   2.673 -33.155  1.00  0.00    -0.352 N 
HETATM   11  H   UNL     1      -7.044   2.950 -33.551  1.00  0.00     0.166 HD
HETATM   12  C   UNL     1      -5.231   3.529 -32.685  1.00  0.00     0.181 A 
HETATM   13  N   UNL     1      -4.178   2.796 -32.313  1.00  0.00    -0.354 N 
HETATM   14  H   UNL     1      -3.316   3.181 -31.928  1.00  0.00     0.166 HD
HETATM   15  C   UNL     1      -6.855   0.396 -35.034  1.00  0.00     0.068 C 
HETATM   16  C   UNL     1      -8.379   0.494 -35.130  1.00  0.00     0.127 C 
ENDROOT
BRANCH   5  17
HETATM   17  C   UNL     1      -5.770  -2.422 -33.701  1.00  0.00     0.277 C 
BRANCH  17  18
HETATM   18  C   UNL     1      -5.121  -3.361 -34.737  1.00  0.00     0.006 C 
HETATM   19  C   UNL     1      -4.005  -4.204 -34.114  1.00  0.00     0.011 C 
HETATM   20  C   UNL     1      -6.183  -4.291 -35.333  1.00  0.00     0.011 C 
ENDBRANCH  17  18
ENDBRANCH   5  17
BRANCH   1  21
HETATM   21  C   UNL     1     -10.218   1.816 -34.170  1.00  0.00     0.103 A 
HETATM   22  N   UNL     1     -11.298   1.100 -33.823  1.00  0.00    -0.344 N 
HETATM   23  C   UNL     1     -12.572   1.530 -33.924  1.00  0.00     0.039 A 
HETATM   24  H   UNL     1     -11.219   0.169 -33.407  1.00  0.00     0.167 HD
HETATM   25  C   UNL     1     -12.829   2.796 -34.434  1.00  0.00     0.028 A 
HETATM   26  C   UNL     1     -11.758   3.585 -34.830  1.00  0.00     0.006 A 
HETATM   27  C   UNL     1     -10.456   3.099 -34.699  1.00  0.00     0.048 A 
BRANCH  23  28
HETATM   28  C   UNL     1     -13.613   0.569 -33.429  1.00  0.00     0.163 C 
HETATM   29  C   UNL     1     -14.857   0.538 -34.302  1.00  0.00     0.046 C 
BRANCH  28  30
HETATM   30  O   UNL     1     -12.975  -0.723 -33.473  1.00  0.00    -0.390 OA
HETATM   31  H   UNL     1     -13.552  -1.296 -34.023  1.00  0.00     0.210 HD
ENDBRANCH  28  30
ENDBRANCH  23  28
ENDBRANCH   1  21
TORSDOF 5
ENDMDL
MODEL 5
REMARK VINA RESULT:      -8.3      3.070      7.115
REMARK  5 active torsions:
REMARK  status: ('A' for Active; 'I' for Inactive)
REMARK    1  A    between atoms: C_2  and  O_3 
REMARK    2  A    between atoms: C_2  and  C_4 
REMARK    3  A    between atoms: C_7  and  N_8 
REMARK    4  A    between atoms: N_12  and  C_13 
REMARK    5  A    between atoms: C_13  and  C_14 
ROOT
HETATM    1  N   UNL     1      -7.631   0.015 -33.208  1.00  0.00    -0.367 N 
HETATM    2  C   UNL     1      -7.607   1.269 -33.998  1.00  0.00     0.127 C 
HETATM    3  C   UNL     1      -9.002   1.884 -34.154  1.00  0.00     0.068 C 
HETATM    4  C   UNL     1      -9.880   1.787 -32.881  1.00  0.00     0.206 C 
HETATM    5  N   UNL     1     -11.294   2.319 -33.092  1.00  0.00     0.105 N 
HETATM    6  C   UNL     1     -11.392   3.818 -32.995  1.00  0.00     0.280 C 
HETATM    7  C   UNL     1     -10.991   4.395 -31.624  1.00  0.00     0.089 C 
HETATM    8  C   UNL     1      -9.733   3.765 -31.224  1.00  0.00     0.037 A 
HETATM    9  C   UNL     1      -9.224   2.611 -31.771  1.00  0.00     0.072 A 
HETATM   10  N   UNL     1      -8.062   2.343 -31.059  1.00  0.00    -0.352 N 
HETATM   11  H   UNL     1      -7.478   1.520 -31.187  1.00  0.00     0.166 HD
HETATM   12  C   UNL     1      -7.859   3.278 -30.121  1.00  0.00     0.181 A 
HETATM   13  N   UNL     1      -8.859   4.156 -30.232  1.00  0.00    -0.354 N 
HETATM   14  H   UNL     1      -8.977   4.973 -29.634  1.00  0.00     0.166 HD
HETATM   15  C   UNL     1      -9.919   0.320 -32.352  1.00  0.00     0.068 C 
HETATM   16  C   UNL     1      -8.950  -0.618 -33.076  1.00  0.00     0.127 C 
ENDROOT
BRANCH   5  17
HETATM   17  C   UNL     1     -11.978   1.939 -34.362  1.00  0.00     0.277 C 
BRANCH  17  18
HETATM   18  C   UNL     1     -13.325   1.197 -34.261  1.00  0.00     0.006 C 
HETATM   19  C   UNL     1     -13.136  -0.261 -33.831  1.00  0.00     0.011 C 
HETATM   20  C   UNL     1     -14.235   1.907 -33.252  1.00  0.00     0.011 C 
ENDBRANCH  17  18
ENDBRANCH   5  17
BRANCH   1  21
HETATM   21  C   UNL     1      -6.537  -0.823 -33.505  1.00  0.00     0.103 A 
HETATM   22  N   UNL     1      -5.358  -0.710 -32.876  1.00  0.00    -0.344 N 
HETATM   23  C   UNL     1      -4.282  -1.488 -33.112  1.00  0.00     0.039 A 
HETATM   24  H   UNL     1      -5.207  -0.034 -32.125  1.00  0.00     0.167 HD
HETATM   25  C   UNL     1      -4.354  -2.482 -34.081  1.00  0.00     0.028 A 
HETATM   26  C   UNL     1      -5.541  -2.642 -34.783  1.00  0.00     0.006 A 
HETATM   27  C   UNL     1      -6.629  -1.818 -34.497  1.00  0.00     0.048 A 
BRANCH  23  28
HETATM   28  C   UNL     1      -3.086  -1.205 -32.251  1.00  0.00     0.163 C 
HETATM   29  C   UNL     1      -3.348  -0.137 -31.201  1.00  0.00     0.046 C 
BRANCH  28  30
HETATM   30  O   UNL     1      -2.801  -2.454 -31.590  1.00  0.00    -0.390 OA
HETATM   31  H   UNL     1      -2.045  -2.853 -32.072  1.00  0.00     0.210 HD
ENDBRANCH  28  30
ENDBRANCH  23  28
ENDBRANCH   1  21
TORSDOF 5
ENDMDL
MODEL 6
REMARK VINA RESULT:      -8.2      2.822      7.226
REMARK  5 active torsions:
REMARK  status: ('A' for Active; 'I' for Inactive)
REMARK    1  A    between atoms: C_2  and  O_3 
REMARK    2  A    between atoms: C_2  and  C_4 
REMARK    3  A    between atoms: C_7  and  N_8 
REMARK    4  A    between atoms: N_12  and  C_13 
REMARK    5  A    between atoms: C_13  and  C_14 
ROOT
HETATM    1  N   UNL     1      -7.500   0.239 -33.546  1.00  0.00    -0.367 N 
HETATM    2  C   UNL     1      -8.122   0.569 -34.850  1.00  0.00     0.127 C 
HETATM    3  C   UNL     1      -9.552   1.099 -34.695  1.00  0.00     0.068 C 
HETATM    4  C   UNL     1      -9.745   2.045 -33.483  1.00  0.00     0.206 C 
HETATM    5  N   UNL     1     -11.195   2.482 -33.295  1.00  0.00     0.105 N 
HETATM    6  C   UNL     1     -11.601   3.618 -34.194  1.00  0.00     0.280 C 
HETATM    7  C   UNL     1     -10.803   4.918 -33.978  1.00  0.00     0.089 C 
HETATM    8  C   UNL     1      -9.384   4.567 -33.918  1.00  0.00     0.037 A 
HETATM    9  C   UNL     1      -8.897   3.300 -33.702  1.00  0.00     0.072 A 
HETATM   10  N   UNL     1      -7.515   3.435 -33.659  1.00  0.00    -0.352 N 
HETATM   11  H   UNL     1      -6.862   2.681 -33.457  1.00  0.00     0.166 HD
HETATM   12  C   UNL     1      -7.162   4.714 -33.838  1.00  0.00     0.181 A 
HETATM   13  N   UNL     1      -8.292   5.403 -34.018  1.00  0.00    -0.354 N 
HETATM   14  H   UNL     1      -8.336   6.411 -34.163  1.00  0.00     0.166 HD
HETATM   15  C   UNL     1      -9.197   1.386 -32.180  1.00  0.00     0.068 C 
HETATM   16  C   UNL     1      -8.438   0.080 -32.426  1.00  0.00     0.127 C 
ENDROOT
BRANCH   5  17
HETATM   17  C   UNL     1     -12.243   1.432 -33.452  1.00  0.00     0.277 C 
BRANCH  17  18
HETATM   18  C   UNL     1     -13.686   1.891 -33.737  1.00  0.00     0.006 C 
HETATM   19  C   UNL     1     -14.523   0.770 -34.361  1.00  0.00     0.011 C 
HETATM   20  C   UNL     1     -14.351   2.353 -32.435  1.00  0.00     0.011 C 
ENDBRANCH  17  18
ENDBRANCH   5  17
BRANCH   1  21
HETATM   21  C   UNL     1      -6.472  -0.718 -33.671  1.00  0.00     0.103 A 
HETATM   22  N   UNL     1      -5.310  -0.612 -33.011  1.00  0.00    -0.344 N 
HETATM   23  C   UNL     1      -4.298  -1.499 -33.087  1.00  0.00     0.039 A 
HETATM   24  H   UNL     1      -5.128   0.151 -32.356  1.00  0.00     0.167 HD
HETATM   25  C   UNL     1      -4.422  -2.612 -33.909  1.00  0.00     0.028 A 
HETATM   26  C   UNL     1      -5.594  -2.775 -34.636  1.00  0.00     0.006 A 
HETATM   27  C   UNL     1      -6.616  -1.833 -34.519  1.00  0.00     0.048 A 
BRANCH  23  28
HETATM   28  C   UNL     1      -3.112  -1.193 -32.220  1.00  0.00     0.163 C 
HETATM   29  C   UNL     1      -3.397  -0.121 -31.179  1.00  0.00     0.046 C 
BRANCH  28  30
HETATM   30  O   UNL     1      -2.814  -2.433 -31.548  1.00  0.00    -0.390 OA
HETATM   31  H   UNL     1      -3.554  -3.043 -31.758  1.00  0.00     0.210 HD
ENDBRANCH  28  30
ENDBRANCH  23  28
ENDBRANCH   1  21
TORSDOF 5
ENDMDL
MODEL 7
REMARK VINA RESULT:      -8.2      2.271      2.420
REMARK  5 active torsions:
REMARK  status: ('A' for Active; 'I' for Inactive)
REMARK    1  A    between atoms: C_2  and  O_3 
REMARK    2  A    between atoms: C_2  and  C_4 
REMARK    3  A    between atoms: C_7  and  N_8 
REMARK    4  A    between atoms: N_12  and  C_13 
REMARK    5  A    between atoms: C_13  and  C_14 
ROOT
HETATM    1  N   UNL     1      -9.151   1.586 -33.408  1.00  0.00    -0.367 N 
HETATM    2  C   UNL     1      -8.713   1.006 -32.117  1.00  0.00     0.127 C 
HETATM    3  C   UNL     1      -7.620  -0.053 -32.298  1.00  0.00     0.068 C 
HETATM    4  C   UNL     1      -6.573   0.301 -33.384  1.00  0.00     0.206 C 
HETATM    5  N   UNL     1      -5.553  -0.812 -33.611  1.00  0.00     0.105 N 
HETATM    6  C   UNL     1      -4.439  -0.820 -32.598  1.00  0.00     0.280 C 
HETATM    7  C   UNL     1      -3.580   0.458 -32.585  1.00  0.00     0.089 C 
HETATM    8  C   UNL     1      -4.487   1.606 -32.595  1.00  0.00     0.037 A 
HETATM    9  C   UNL     1      -5.816   1.555 -32.943  1.00  0.00     0.072 A 
HETATM   10  N   UNL     1      -6.269   2.866 -32.873  1.00  0.00    -0.352 N 
HETATM   11  H   UNL     1      -7.206   3.172 -33.128  1.00  0.00     0.166 HD
HETATM   12  C   UNL     1      -5.279   3.688 -32.503  1.00  0.00     0.181 A 
HETATM   13  N   UNL     1      -4.200   2.925 -32.310  1.00  0.00    -0.354 N 
HETATM   14  H   UNL     1      -3.285   3.280 -32.036  1.00  0.00     0.166 HD
HETATM   15  C   UNL     1      -7.278   0.680 -34.722  1.00  0.00     0.068 C 
HETATM   16  C   UNL     1      -8.798   0.804 -34.600  1.00  0.00     0.127 C 
ENDROOT
BRANCH   5  17
HETATM   17  C   UNL     1      -6.075  -2.208 -33.666  1.00  0.00     0.277 C 
BRANCH  17  18
HETATM   18  C   UNL     1      -5.537  -3.135 -34.774  1.00  0.00     0.006 C 
HETATM   19  C   UNL     1      -4.273  -3.875 -34.326  1.00  0.00     0.011 C 
HETATM   20  C   UNL     1      -6.611  -4.159 -35.161  1.00  0.00     0.011 C 
ENDBRANCH  17  18
ENDBRANCH   5  17
BRANCH   1  21
HETATM   21  C   UNL     1     -10.458   2.111 -33.341  1.00  0.00     0.103 A 
HETATM   22  N   UNL     1     -10.868   2.885 -32.326  1.00  0.00    -0.344 N 
HETATM   23  C   UNL     1     -12.100   3.420 -32.213  1.00  0.00     0.039 A 
HETATM   24  H   UNL     1     -10.239   3.163 -31.569  1.00  0.00     0.167 HD
HETATM   25  C   UNL     1     -13.051   3.162 -33.194  1.00  0.00     0.028 A 
HETATM   26  C   UNL     1     -12.700   2.352 -34.265  1.00  0.00     0.006 A 
HETATM   27  C   UNL     1     -11.409   1.828 -34.341  1.00  0.00     0.048 A 
BRANCH  23  28
HETATM   28  C   UNL     1     -12.313   4.293 -31.011  1.00  0.00     0.163 C 
HETATM   29  C   UNL     1     -13.779   4.607 -30.756  1.00  0.00     0.046 C 
BRANCH  28  30
HETATM   30  O   UNL     1     -11.796   3.530 -29.903  1.00  0.00    -0.390 OA
HETATM   31  H   UNL     1     -10.905   3.896 -29.710  1.00  0.00     0.210 HD
ENDBRANCH  28  30
ENDBRANCH  23  28
ENDBRANCH   1  21
TORSDOF 5
ENDMDL
MODEL 8
REMARK VINA RESULT:      -8.2      2.678      7.019
REMARK  5 active torsions:
REMARK  status: ('A' for Active; 'I' for Inactive)
REMARK    1  A    between atoms: C_2  and  O_3 
REMARK    2  A    between atoms: C_2  and  C_4 
REMARK    3  A    between atoms: C_7  and  N_8 
REMARK    4  A    between atoms: N_12  and  C_13 
REMARK    5  A    between atoms: C_13  and  C_14 
ROOT
HETATM    1  N   UNL     1      -7.698   0.070 -33.254  1.00  0.00    -0.367 N 
HETATM    2  C   UNL     1      -7.750   1.317 -34.054  1.00  0.00     0.127 C 
HETATM    3  C   UNL     1      -9.182   1.834 -34.230  1.00  0.00     0.068 C 
HETATM    4  C   UNL     1     -10.066   1.687 -32.965  1.00  0.00     0.206 C 
HETATM    5  N   UNL     1     -11.511   2.120 -33.196  1.00  0.00     0.105 N 
HETATM    6  C   UNL     1     -11.712   3.610 -33.112  1.00  0.00     0.280 C 
HETATM    7  C   UNL     1     -11.366   4.223 -31.742  1.00  0.00     0.089 C 
HETATM    8  C   UNL     1     -10.073   3.682 -31.323  1.00  0.00     0.037 A 
HETATM    9  C   UNL     1      -9.480   2.562 -31.855  1.00  0.00     0.072 A 
HETATM   10  N   UNL     1      -8.311   2.379 -31.128  1.00  0.00    -0.352 N 
HETATM   11  H   UNL     1      -7.670   1.597 -31.243  1.00  0.00     0.166 HD
HETATM   12  C   UNL     1      -8.182   3.332 -30.196  1.00  0.00     0.181 A 
HETATM   13  N   UNL     1      -9.239   4.139 -30.325  1.00  0.00    -0.354 N 
HETATM   14  H   UNL     1      -9.419   4.950 -29.735  1.00  0.00     0.166 HD
HETATM   15  C   UNL     1     -10.011   0.225 -32.425  1.00  0.00     0.068 C 
HETATM   16  C   UNL     1      -8.973  -0.650 -33.131  1.00  0.00     0.127 C 
ENDROOT
BRANCH   5  17
HETATM   17  C   UNL     1     -12.152   1.685 -34.470  1.00  0.00     0.277 C 
BRANCH  17  18
HETATM   18  C   UNL     1     -13.442   0.845 -34.378  1.00  0.00     0.006 C 
HETATM   19  C   UNL     1     -13.195  -0.494 -33.677  1.00  0.00     0.011 C 
HETATM   20  C   UNL     1     -14.515   1.626 -33.611  1.00  0.00     0.011 C 
ENDBRANCH  17  18
ENDBRANCH   5  17
BRANCH   1  21
HETATM   21  C   UNL     1      -6.546  -0.694 -33.532  1.00  0.00     0.103 A 
HETATM   22  N   UNL     1      -6.613  -1.930 -34.047  1.00  0.00    -0.344 N 
HETATM   23  C   UNL     1      -5.546  -2.701 -34.339  1.00  0.00     0.039 A 
HETATM   24  H   UNL     1      -7.504  -2.365 -34.296  1.00  0.00     0.167 HD
HETATM   25  C   UNL     1      -4.265  -2.222 -34.091  1.00  0.00     0.028 A 
HETATM   26  C   UNL     1      -4.123  -0.955 -33.542  1.00  0.00     0.006 A 
HETATM   27  C   UNL     1      -5.258  -0.192 -33.262  1.00  0.00     0.048 A 
BRANCH  23  28
HETATM   28  C   UNL     1      -5.868  -4.033 -34.952  1.00  0.00     0.163 C 
HETATM   29  C   UNL     1      -4.945  -5.145 -34.477  1.00  0.00     0.046 C 
BRANCH  28  30
HETATM   30  O   UNL     1      -7.213  -4.323 -34.523  1.00  0.00    -0.390 OA
HETATM   31  H   UNL     1      -7.155  -5.126 -33.962  1.00  0.00     0.210 HD
ENDBRANCH  28  30
ENDBRANCH  23  28
ENDBRANCH   1  21
TORSDOF 5
ENDMDL
MODEL 9
REMARK VINA RESULT:      -8.2      3.178      6.771
REMARK  5 active torsions:
REMARK  status: ('A' for Active; 'I' for Inactive)
REMARK    1  A    between atoms: C_2  and  O_3 
REMARK    2  A    between atoms: C_2  and  C_4 
REMARK    3  A    between atoms: C_7  and  N_8 
REMARK    4  A    between atoms: N_12  and  C_13 
REMARK    5  A    between atoms: C_13  and  C_14 
ROOT
HETATM    1  N   UNL     1      -6.388  -0.353 -33.181  1.00  0.00    -0.367 N 
HETATM    2  C   UNL     1      -6.712  -0.409 -31.735  1.00  0.00     0.127 C 
HETATM    3  C   UNL     1      -6.438   0.923 -31.027  1.00  0.00     0.068 C 
HETATM    4  C   UNL     1      -6.823   2.171 -31.861  1.00  0.00     0.206 C 
HETATM    5  N   UNL     1      -6.452   3.482 -31.173  1.00  0.00     0.105 N 
HETATM    6  C   UNL     1      -7.450   3.919 -30.134  1.00  0.00     0.280 C 
HETATM    7  C   UNL     1      -8.864   4.187 -30.682  1.00  0.00     0.089 C 
HETATM    8  C   UNL     1      -9.227   3.067 -31.552  1.00  0.00     0.037 A 
HETATM    9  C   UNL     1      -8.337   2.163 -32.081  1.00  0.00     0.072 A 
HETATM   10  N   UNL     1      -9.096   1.322 -32.885  1.00  0.00    -0.352 N 
HETATM   11  H   UNL     1      -8.719   0.575 -33.464  1.00  0.00     0.166 HD
HETATM   12  C   UNL     1     -10.385   1.683 -32.858  1.00  0.00     0.181 A 
HETATM   13  N   UNL     1     -10.474   2.728 -32.032  1.00  0.00    -0.354 N 
HETATM   14  H   UNL     1     -11.338   3.228 -31.827  1.00  0.00     0.166 HD
HETATM   15  C   UNL     1      -6.188   2.098 -33.283  1.00  0.00     0.068 C 
HETATM   16  C   UNL     1      -5.516   0.757 -33.586  1.00  0.00     0.127 C 
ENDROOT
BRANCH   5  17
HETATM   17  C   UNL     1      -5.113   3.547 -30.518  1.00  0.00     0.277 C 
BRANCH  17  18
HETATM   18  C   UNL     1      -4.006   4.358 -31.221  1.00  0.00     0.006 C 
HETATM   19  C   UNL     1      -2.988   3.444 -31.909  1.00  0.00     0.011 C 
HETATM   20  C   UNL     1      -4.629   5.294 -32.262  1.00  0.00     0.011 C 
ENDBRANCH  17  18
ENDBRANCH   5  17
BRANCH   1  21
HETATM   21  C   UNL     1      -6.105  -1.628 -33.713  1.00  0.00     0.103 A 
HETATM   22  N   UNL     1      -4.963  -2.279 -33.445  1.00  0.00    -0.344 N 
HETATM   23  C   UNL     1      -4.644  -3.500 -33.918  1.00  0.00     0.039 A 
HETATM   24  H   UNL     1      -4.258  -1.897 -32.811  1.00  0.00     0.167 HD
HETATM   25  C   UNL     1      -5.529  -4.162 -34.761  1.00  0.00     0.028 A 
HETATM   26  C   UNL     1      -6.723  -3.537 -35.095  1.00  0.00     0.006 A 
HETATM   27  C   UNL     1      -7.012  -2.275 -34.573  1.00  0.00     0.048 A 
BRANCH  23  28
HETATM   28  C   UNL     1      -3.330  -4.048 -33.443  1.00  0.00     0.163 C 
HETATM   29  C   UNL     1      -3.056  -3.748 -31.977  1.00  0.00     0.046 C 
BRANCH  28  30
HETATM   30  O   UNL     1      -3.438  -5.474 -33.619  1.00  0.00    -0.390 OA
HETATM   31  H   UNL     1      -4.373  -5.704 -33.429  1.00  0.00     0.210 HD
ENDBRANCH  28  30
ENDBRANCH  23  28
ENDBRANCH   1  21
TORSDOF 5
ENDMDL
MODEL 10
REMARK VINA RESULT:      -8.0      4.694      8.607
REMARK  5 active torsions:
REMARK  status: ('A' for Active; 'I' for Inactive)
REMARK    1  A    between atoms: C_2  and  O_3 
REMARK    2  A    between atoms: C_2  and  C_4 
REMARK    3  A    between atoms: C_7  and  N_8 
REMARK    4  A    between atoms: N_12  and  C_13 
REMARK    5  A    between atoms: C_13  and  C_14 
ROOT
HETATM    1  N   UNL     1      -3.349   4.583 -31.391  1.00  0.00    -0.367 N 
HETATM    2  C   UNL     1      -4.383   5.213 -32.246  1.00  0.00     0.127 C 
HETATM    3  C   UNL     1      -5.443   4.208 -32.712  1.00  0.00     0.068 C 
HETATM    4  C   UNL     1      -5.854   3.179 -31.629  1.00  0.00     0.206 C 
HETATM    5  N   UNL     1      -6.838   2.133 -32.147  1.00  0.00     0.105 N 
HETATM    6  C   UNL     1      -8.264   2.612 -32.175  1.00  0.00     0.280 C 
HETATM    7  C   UNL     1      -8.836   2.992 -30.796  1.00  0.00     0.089 C 
HETATM    8  C   UNL     1      -7.846   3.828 -30.117  1.00  0.00     0.037 A 
HETATM    9  C   UNL     1      -6.522   3.926 -30.473  1.00  0.00     0.072 A 
HETATM   10  N   UNL     1      -5.945   4.769 -29.532  1.00  0.00    -0.352 N 
HETATM   11  H   UNL     1      -4.954   4.999 -29.487  1.00  0.00     0.166 HD
HETATM   12  C   UNL     1      -6.858   5.174 -28.640  1.00  0.00     0.181 A 
HETATM   13  N   UNL     1      -8.019   4.623 -29.003  1.00  0.00    -0.354 N 
HETATM   14  H   UNL     1      -8.896   4.742 -28.497  1.00  0.00     0.166 HD
HETATM   15  C   UNL     1      -4.594   2.492 -31.018  1.00  0.00     0.068 C 
HETATM   16  C   UNL     1      -3.274   3.118 -31.474  1.00  0.00     0.127 C 
ENDROOT
BRANCH   5  17
HETATM   17  C   UNL     1      -6.565   1.558 -33.496  1.00  0.00     0.277 C 
BRANCH  17  18
HETATM   18  C   UNL     1      -7.147   0.167 -33.818  1.00  0.00     0.006 C 
HETATM   19  C   UNL     1      -7.151  -0.109 -35.324  1.00  0.00     0.011 C 
HETATM   20  C   UNL     1      -6.326  -0.916 -33.108  1.00  0.00     0.011 C 
ENDBRANCH  17  18
ENDBRANCH   5  17
BRANCH   1  21
HETATM   21  C   UNL     1      -2.133   5.296 -31.411  1.00  0.00     0.103 A 
HETATM   22  N   UNL     1      -1.200   5.148 -30.460  1.00  0.00    -0.344 N 
HETATM   23  C   UNL     1      -0.018   5.796 -30.432  1.00  0.00     0.039 A 
HETATM   24  H   UNL     1      -1.311   4.482 -29.692  1.00  0.00     0.167 HD
HETATM   25  C   UNL     1       0.288   6.705 -31.438  1.00  0.00     0.028 A 
HETATM   26  C   UNL     1      -0.642   6.921 -32.446  1.00  0.00     0.006 A 
HETATM   27  C   UNL     1      -1.848   6.220 -32.435  1.00  0.00     0.048 A 
BRANCH  23  28
HETATM   28  C   UNL     1       0.886   5.432 -29.291  1.00  0.00     0.163 C 
HETATM   29  C   UNL     1       0.364   5.906 -27.944  1.00  0.00     0.046 C 
BRANCH  28  30
HETATM   30  O   UNL     1       0.929   3.991 -29.298  1.00  0.00    -0.390 OA
HETATM   31  H   UNL     1       0.061   3.693 -29.647  1.00  0.00     0.210 HD
ENDBRANCH  28  30
ENDBRANCH  23  28
ENDBRANCH   1  21
TORSDOF 5
ENDMDL
