MODEL 1
REMARK VINA RESULT:      -9.6      0.000      0.000
REMARK  11 active torsions:
REMARK  status: ('A' for Active; 'I' for Inactive)
REMARK    1  A    between atoms: C_2  and  O_3 
REMARK    2  A    between atoms: O_3  and  C_4 
REMARK    3  A    between atoms: C_5  and  O_6 
REMARK    4  A    between atoms: O_6  and  C_7 
REMARK    5  A    between atoms: C_7  and  C_8 
REMARK       I    between atoms: C_8  and  N_9 
REMARK    6  A    between atoms: N_9  and  C_10 
REMARK    7  A    between atoms: C_11  and  O_12 
REMARK    8  A    between atoms: C_21  and  C_22 
REMARK    9  A    between atoms: C_27  and  C_28 
REMARK   10  A    between atoms: C_34  and  C_35 
REMARK   11  A    between atoms: C_35  and  C_36 
ROOT
HETATM    1  C   UNL     1     -11.019   2.095 -33.644  1.00  0.00     0.102 A 
HETATM    2  C   UNL     1     -11.319   0.729 -33.622  1.00  0.00     0.102 A 
HETATM    3  C   UNL     1     -10.461  -0.173 -32.994  1.00  0.00     0.040 A 
HETATM    4  C   UNL     1      -9.316   0.285 -32.347  1.00  0.00     0.012 A 
HETATM    5  C   UNL     1      -9.010   1.653 -32.331  1.00  0.00    -0.028 A 
HETATM    6  C   UNL     1      -9.891   2.555 -32.956  1.00  0.00     0.049 A 
ENDROOT
BRANCH   5   7
HETATM    7  C   UNL     1      -7.735   2.130 -31.658  1.00  0.00     0.157 C 
HETATM    8  N   UNL     1      -8.062   3.198 -30.732  1.00  0.00    -0.354 N 
HETATM    9  C   UNL     1      -7.171   4.146 -30.350  1.00  0.00     0.173 C 
HETATM   10  H   UNL     1      -8.871   3.083 -30.134  1.00  0.00     0.163 HD
HETATM   11  S   UNL     1      -7.451   5.114 -29.032  1.00  0.00    -0.041 SA
HETATM   12  N   UNL     1      -6.061   4.289 -31.123  1.00  0.00    -0.332 N 
HETATM   13  C   UNL     1      -5.816   3.575 -32.275  1.00  0.00     0.057 C 
HETATM   14  H   UNL     1      -5.440   5.059 -30.888  1.00  0.00     0.168 HD
HETATM   15  C   UNL     1      -6.614   2.535 -32.584  1.00  0.00     0.047 C 
BRANCH  13  16
HETATM   16  C   UNL     1      -4.653   4.022 -33.055  1.00  0.00    -0.009 A 
HETATM   17  C   UNL     1      -4.824   4.841 -34.179  1.00  0.00     0.014 A 
HETATM   18  C   UNL     1      -3.714   5.304 -34.887  1.00  0.00     0.001 A 
HETATM   19  C   UNL     1      -2.429   4.960 -34.474  1.00  0.00     0.000 A 
HETATM   20  C   UNL     1      -2.250   4.148 -33.355  1.00  0.00     0.001 A 
HETATM   21  C   UNL     1      -3.358   3.680 -32.646  1.00  0.00     0.014 A 
ENDBRANCH  13  16
BRANCH  15  22
HETATM   22  C   UNL     1      -6.436   1.779 -33.858  1.00  0.00     0.193 C 
HETATM   23  O   UNL     1      -6.876   2.212 -34.918  1.00  0.00    -0.287 OA
BRANCH  22  24
HETATM   24  C   UNL     1      -5.855   0.412 -33.801  1.00  0.00     0.015 A 
HETATM   25  C   UNL     1      -6.486  -0.601 -34.536  1.00  0.00     0.015 A 
HETATM   26  C   UNL     1      -6.009  -1.911 -34.477  1.00  0.00     0.001 A 
HETATM   27  C   UNL     1      -4.896  -2.211 -33.694  1.00  0.00     0.000 A 
HETATM   28  C   UNL     1      -4.250  -1.201 -32.978  1.00  0.00     0.001 A 
HETATM   29  C   UNL     1      -4.722   0.112 -33.035  1.00  0.00     0.015 A 
ENDBRANCH  22  24
ENDBRANCH  15  22
ENDBRANCH   5   7
BRANCH   1  30
HETATM   30  O   UNL     1     -11.872   2.930 -34.315  1.00  0.00    -0.349 OA
BRANCH  30  31
HETATM   31  C   UNL     1     -11.246   3.898 -35.166  1.00  0.00     0.171 C 
HETATM   32  C   UNL     1     -12.196   5.057 -35.408  1.00  0.00     0.034 C 
ENDBRANCH  30  31
ENDBRANCH   1  30
BRANCH   2  33
HETATM   33  O   UNL     1     -12.385   0.186 -34.289  1.00  0.00    -0.339 OA
BRANCH  33  34
HETATM   34  C   UNL     1     -13.469  -0.169 -33.418  1.00  0.00     0.278 C 
BRANCH  34  35
HETATM   35  C   UNL     1     -14.607   0.862 -33.503  1.00  0.00     0.246 C 
HETATM   36  N   UNL     1     -14.679   1.657 -32.369  1.00  0.00    -0.323 N 
HETATM   37  H   UNL     1     -13.867   1.580 -31.769  1.00  0.00     0.169 HD
HETATM   38  O   UNL     1     -15.279   0.966 -34.525  1.00  0.00    -0.271 OA
BRANCH  36  39
HETATM   39  C   UNL     1     -15.544   2.746 -32.141  1.00  0.00     0.068 A 
HETATM   40  C   UNL     1     -15.130   4.084 -32.011  1.00  0.00     0.095 A 
HETATM   41  C   UNL     1     -16.089   5.066 -31.723  1.00  0.00     0.039 A 
HETATM   42  C   UNL     1     -17.443   4.734 -31.610  1.00  0.00     0.003 A 
HETATM   43  C   UNL     1     -17.856   3.422 -31.807  1.00  0.00     0.002 A 
HETATM   44  C   UNL     1     -16.912   2.435 -32.082  1.00  0.00     0.032 A 
BRANCH  40  45
HETATM   45  O   UNL     1     -13.819   4.364 -32.287  1.00  0.00    -0.354 OA
HETATM   46  C   UNL     1     -12.951   4.647 -31.200  1.00  0.00     0.210 C 
ENDBRANCH  40  45
ENDBRANCH  36  39
ENDBRANCH  34  35
ENDBRANCH  33  34
ENDBRANCH   2  33
TORSDOF 11
ENDMDL
MODEL 2
REMARK VINA RESULT:      -9.1      3.108      8.537
REMARK  11 active torsions:
REMARK  status: ('A' for Active; 'I' for Inactive)
REMARK    1  A    between atoms: C_2  and  O_3 
REMARK    2  A    between atoms: O_3  and  C_4 
REMARK    3  A    between atoms: C_5  and  O_6 
REMARK    4  A    between atoms: O_6  and  C_7 
REMARK    5  A    between atoms: C_7  and  C_8 
REMARK       I    between atoms: C_8  and  N_9 
REMARK    6  A    between atoms: N_9  and  C_10 
REMARK    7  A    between atoms: C_11  and  O_12 
REMARK    8  A    between atoms: C_21  and  C_22 
REMARK    9  A    between atoms: C_27  and  C_28 
REMARK   10  A    between atoms: C_34  and  C_35 
REMARK   11  A    between atoms: C_35  and  C_36 
ROOT
HETATM    1  C   UNL     1      -3.703   3.647 -32.233  1.00  0.00     0.102 A 
HETATM    2  C   UNL     1      -3.717   2.627 -31.277  1.00  0.00     0.102 A 
HETATM    3  C   UNL     1      -4.759   2.538 -30.353  1.00  0.00     0.040 A 
HETATM    4  C   UNL     1      -5.816   3.443 -30.402  1.00  0.00     0.012 A 
HETATM    5  C   UNL     1      -5.838   4.456 -31.371  1.00  0.00    -0.028 A 
HETATM    6  C   UNL     1      -4.788   4.526 -32.306  1.00  0.00     0.049 A 
ENDROOT
BRANCH   5   7
HETATM    7  C   UNL     1      -6.977   5.460 -31.382  1.00  0.00     0.157 C 
HETATM    8  N   UNL     1      -7.211   5.921 -30.026  1.00  0.00    -0.354 N 
HETATM    9  C   UNL     1      -8.404   6.412 -29.606  1.00  0.00     0.173 C 
HETATM   10  H   UNL     1      -6.409   6.156 -29.454  1.00  0.00     0.163 HD
HETATM   11  S   UNL     1      -8.538   7.262 -28.188  1.00  0.00    -0.041 SA
HETATM   12  N   UNL     1      -9.486   6.136 -30.382  1.00  0.00    -0.332 N 
HETATM   13  C   UNL     1      -9.451   5.364 -31.522  1.00  0.00     0.057 C 
HETATM   14  H   UNL     1     -10.390   6.426 -30.021  1.00  0.00     0.168 HD
HETATM   15  C   UNL     1      -8.259   4.997 -32.030  1.00  0.00     0.047 C 
BRANCH  13  16
HETATM   16  C   UNL     1     -10.763   5.037 -32.100  1.00  0.00    -0.009 A 
HETATM   17  C   UNL     1     -11.184   5.639 -33.292  1.00  0.00     0.014 A 
HETATM   18  C   UNL     1     -12.408   5.289 -33.864  1.00  0.00     0.001 A 
HETATM   19  C   UNL     1     -13.214   4.330 -33.253  1.00  0.00     0.000 A 
HETATM   20  C   UNL     1     -12.801   3.723 -32.068  1.00  0.00     0.001 A 
HETATM   21  C   UNL     1     -11.579   4.074 -31.492  1.00  0.00     0.014 A 
ENDBRANCH  13  16
BRANCH  15  22
HETATM   22  C   UNL     1      -8.170   4.098 -33.217  1.00  0.00     0.193 C 
HETATM   23  O   UNL     1      -7.740   4.508 -34.291  1.00  0.00    -0.287 OA
BRANCH  22  24
HETATM   24  C   UNL     1      -8.760   2.736 -33.128  1.00  0.00     0.015 A 
HETATM   25  C   UNL     1      -9.587   2.309 -34.175  1.00  0.00     0.015 A 
HETATM   26  C   UNL     1     -10.204   1.059 -34.116  1.00  0.00     0.001 A 
HETATM   27  C   UNL     1      -9.990   0.230 -33.017  1.00  0.00     0.000 A 
HETATM   28  C   UNL     1      -9.149   0.642 -31.981  1.00  0.00     0.001 A 
HETATM   29  C   UNL     1      -8.527   1.891 -32.037  1.00  0.00     0.015 A 
ENDBRANCH  22  24
ENDBRANCH  15  22
ENDBRANCH   5   7
BRANCH   1  30
HETATM   30  O   UNL     1      -2.633   3.715 -33.084  1.00  0.00    -0.349 OA
BRANCH  30  31
HETATM   31  C   UNL     1      -1.845   4.908 -32.992  1.00  0.00     0.171 C 
HETATM   32  C   UNL     1      -1.505   5.406 -34.384  1.00  0.00     0.034 C 
ENDBRANCH  30  31
ENDBRANCH   1  30
BRANCH   2  33
HETATM   33  O   UNL     1      -2.687   1.738 -31.114  1.00  0.00    -0.339 OA
BRANCH  33  34
HETATM   34  C   UNL     1      -3.137   0.389 -30.922  1.00  0.00     0.278 C 
BRANCH  34  35
HETATM   35  C   UNL     1      -3.487  -0.273 -32.265  1.00  0.00     0.246 C 
HETATM   36  N   UNL     1      -4.635  -1.046 -32.183  1.00  0.00    -0.323 N 
HETATM   37  H   UNL     1      -5.167  -0.892 -31.335  1.00  0.00     0.169 HD
HETATM   38  O   UNL     1      -2.827  -0.031 -33.271  1.00  0.00    -0.271 OA
BRANCH  36  39
HETATM   39  C   UNL     1      -5.285  -1.728 -33.232  1.00  0.00     0.068 A 
HETATM   40  C   UNL     1      -4.805  -2.899 -33.845  1.00  0.00     0.095 A 
HETATM   41  C   UNL     1      -5.520  -3.443 -34.923  1.00  0.00     0.039 A 
HETATM   42  C   UNL     1      -6.716  -2.860 -35.356  1.00  0.00     0.003 A 
HETATM   43  C   UNL     1      -7.221  -1.743 -34.704  1.00  0.00     0.002 A 
HETATM   44  C   UNL     1      -6.515  -1.187 -33.640  1.00  0.00     0.032 A 
BRANCH  40  45
HETATM   45  O   UNL     1      -3.719  -3.505 -33.274  1.00  0.00    -0.354 OA
HETATM   46  C   UNL     1      -3.398  -4.826 -33.682  1.00  0.00     0.210 C 
ENDBRANCH  40  45
ENDBRANCH  36  39
ENDBRANCH  34  35
ENDBRANCH  33  34
ENDBRANCH   2  33
TORSDOF 11
ENDMDL
MODEL 3
REMARK VINA RESULT:      -8.9      3.534      8.510
REMARK  11 active torsions:
REMARK  status: ('A' for Active; 'I' for Inactive)
REMARK    1  A    between atoms: C_2  and  O_3 
REMARK    2  A    between atoms: O_3  and  C_4 
REMARK    3  A    between atoms: C_5  and  O_6 
REMARK    4  A    between atoms: O_6  and  C_7 
REMARK    5  A    between atoms: C_7  and  C_8 
REMARK       I    between atoms: C_8  and  N_9 
REMARK    6  A    between atoms: N_9  and  C_10 
REMARK    7  A    between atoms: C_11  and  O_12 
REMARK    8  A    between atoms: C_21  and  C_22 
REMARK    9  A    between atoms: C_27  and  C_28 
REMARK   10  A    between atoms: C_34  and  C_35 
REMARK   11  A    between atoms: C_35  and  C_36 
ROOT
HETATM    1  C   UNL     1      -6.778  -0.699 -33.504  1.00  0.00     0.102 A 
HETATM    2  C   UNL     1      -5.971  -0.701 -32.362  1.00  0.00     0.102 A 
HETATM    3  C   UNL     1      -6.363  -0.004 -31.218  1.00  0.00     0.040 A 
HETATM    4  C   UNL     1      -7.584   0.665 -31.191  1.00  0.00     0.012 A 
HETATM    5  C   UNL     1      -8.423   0.655 -32.314  1.00  0.00    -0.028 A 
HETATM    6  C   UNL     1      -8.022  -0.063 -33.456  1.00  0.00     0.049 A 
ENDROOT
BRANCH   5   7
HETATM    7  C   UNL     1      -9.731   1.427 -32.282  1.00  0.00     0.157 C 
HETATM    8  N   UNL     1     -10.769   0.619 -32.895  1.00  0.00    -0.354 N 
HETATM    9  C   UNL     1     -11.882   1.149 -33.461  1.00  0.00     0.173 C 
HETATM   10  H   UNL     1     -10.819  -0.363 -32.652  1.00  0.00     0.163 HD
HETATM   11  S   UNL     1     -13.203   0.208 -33.813  1.00  0.00    -0.041 SA
HETATM   12  N   UNL     1     -11.844   2.475 -33.761  1.00  0.00    -0.332 N 
HETATM   13  C   UNL     1     -10.747   3.285 -33.572  1.00  0.00     0.057 C 
HETATM   14  H   UNL     1     -12.642   2.849 -34.266  1.00  0.00     0.168 HD
HETATM   15  C   UNL     1      -9.693   2.812 -32.879  1.00  0.00     0.047 C 
BRANCH  13  16
HETATM   16  C   UNL     1     -10.859   4.637 -34.140  1.00  0.00    -0.009 A 
HETATM   17  C   UNL     1     -11.569   5.635 -33.461  1.00  0.00     0.014 A 
HETATM   18  C   UNL     1     -11.631   6.930 -33.978  1.00  0.00     0.001 A 
HETATM   19  C   UNL     1     -10.979   7.237 -35.171  1.00  0.00     0.000 A 
HETATM   20  C   UNL     1     -10.267   6.249 -35.851  1.00  0.00     0.001 A 
HETATM   21  C   UNL     1     -10.206   4.952 -35.338  1.00  0.00     0.014 A 
ENDBRANCH  13  16
BRANCH  15  22
HETATM   22  C   UNL     1      -8.453   3.624 -32.713  1.00  0.00     0.193 C 
HETATM   23  O   UNL     1      -7.452   3.397 -33.386  1.00  0.00    -0.287 OA
BRANCH  22  24
HETATM   24  C   UNL     1      -8.390   4.613 -31.605  1.00  0.00     0.015 A 
HETATM   25  C   UNL     1      -8.149   5.953 -31.935  1.00  0.00     0.015 A 
HETATM   26  C   UNL     1      -8.032   6.913 -30.928  1.00  0.00     0.001 A 
HETATM   27  C   UNL     1      -8.167   6.539 -29.593  1.00  0.00     0.000 A 
HETATM   28  C   UNL     1      -8.430   5.209 -29.261  1.00  0.00     0.001 A 
HETATM   29  C   UNL     1      -8.550   4.245 -30.264  1.00  0.00     0.015 A 
ENDBRANCH  22  24
ENDBRANCH  15  22
ENDBRANCH   5   7
BRANCH   1  30
HETATM   30  O   UNL     1      -6.323  -1.360 -34.613  1.00  0.00    -0.349 OA
BRANCH  30  31
HETATM   31  C   UNL     1      -6.713  -2.735 -34.717  1.00  0.00     0.171 C 
HETATM   32  C   UNL     1      -5.483  -3.602 -34.914  1.00  0.00     0.034 C 
ENDBRANCH  30  31
ENDBRANCH   1  30
BRANCH   2  33
HETATM   33  O   UNL     1      -4.728  -1.274 -32.324  1.00  0.00    -0.339 OA
BRANCH  33  34
HETATM   34  C   UNL     1      -3.720  -0.468 -32.951  1.00  0.00     0.278 C 
BRANCH  34  35
HETATM   35  C   UNL     1      -3.385   0.764 -32.094  1.00  0.00     0.246 C 
HETATM   36  N   UNL     1      -3.935   1.927 -32.611  1.00  0.00    -0.323 N 
HETATM   37  H   UNL     1      -4.625   1.761 -33.333  1.00  0.00     0.169 HD
HETATM   38  O   UNL     1      -2.768   0.641 -31.039  1.00  0.00    -0.271 OA
BRANCH  36  39
HETATM   39  C   UNL     1      -3.895   3.217 -32.046  1.00  0.00     0.068 A 
HETATM   40  C   UNL     1      -3.000   4.233 -32.428  1.00  0.00     0.095 A 
HETATM   41  C   UNL     1      -3.026   5.455 -31.740  1.00  0.00     0.039 A 
HETATM   42  C   UNL     1      -3.956   5.683 -30.720  1.00  0.00     0.003 A 
HETATM   43  C   UNL     1      -4.883   4.703 -30.392  1.00  0.00     0.002 A 
HETATM   44  C   UNL     1      -4.860   3.480 -31.060  1.00  0.00     0.032 A 
BRANCH  40  45
HETATM   45  O   UNL     1      -2.225   4.002 -33.532  1.00  0.00    -0.354 OA
HETATM   46  C   UNL     1      -2.085   5.047 -34.482  1.00  0.00     0.210 C 
ENDBRANCH  40  45
ENDBRANCH  36  39
ENDBRANCH  34  35
ENDBRANCH  33  34
ENDBRANCH   2  33
TORSDOF 11
ENDMDL
MODEL 4
REMARK VINA RESULT:      -8.9      3.773      6.911
REMARK  11 active torsions:
REMARK  status: ('A' for Active; 'I' for Inactive)
REMARK    1  A    between atoms: C_2  and  O_3 
REMARK    2  A    between atoms: O_3  and  C_4 
REMARK    3  A    between atoms: C_5  and  O_6 
REMARK    4  A    between atoms: O_6  and  C_7 
REMARK    5  A    between atoms: C_7  and  C_8 
REMARK       I    between atoms: C_8  and  N_9 
REMARK    6  A    between atoms: N_9  and  C_10 
REMARK    7  A    between atoms: C_11  and  O_12 
REMARK    8  A    between atoms: C_21  and  C_22 
REMARK    9  A    between atoms: C_27  and  C_28 
REMARK   10  A    between atoms: C_34  and  C_35 
REMARK   11  A    between atoms: C_35  and  C_36 
ROOT
HETATM    1  C   UNL     1      -8.682   2.911 -32.242  1.00  0.00     0.102 A 
HETATM    2  C   UNL     1      -8.465   1.532 -32.150  1.00  0.00     0.102 A 
HETATM    3  C   UNL     1      -7.474   1.028 -31.307  1.00  0.00     0.040 A 
HETATM    4  C   UNL     1      -6.721   1.893 -30.517  1.00  0.00     0.012 A 
HETATM    5  C   UNL     1      -6.941   3.276 -30.571  1.00  0.00    -0.028 A 
HETATM    6  C   UNL     1      -7.953   3.771 -31.416  1.00  0.00     0.049 A 
ENDROOT
BRANCH   5   7
HETATM    7  C   UNL     1      -6.080   4.208 -29.737  1.00  0.00     0.157 C 
HETATM    8  N   UNL     1      -6.897   5.314 -29.273  1.00  0.00    -0.354 N 
HETATM    9  C   UNL     1      -6.385   6.526 -28.942  1.00  0.00     0.173 C 
HETATM   10  H   UNL     1      -7.821   5.110 -28.911  1.00  0.00     0.163 HD
HETATM   11  S   UNL     1      -7.269   7.631 -28.076  1.00  0.00    -0.041 SA
HETATM   12  N   UNL     1      -5.131   6.802 -29.389  1.00  0.00    -0.332 N 
HETATM   13  C   UNL     1      -4.384   5.961 -30.183  1.00  0.00     0.057 C 
HETATM   14  H   UNL     1      -4.784   7.742 -29.218  1.00  0.00     0.168 HD
HETATM   15  C   UNL     1      -4.816   4.703 -30.395  1.00  0.00     0.047 C 
BRANCH  13  16
HETATM   16  C   UNL     1      -3.136   6.536 -30.708  1.00  0.00    -0.009 A 
HETATM   17  C   UNL     1      -3.168   7.464 -31.756  1.00  0.00     0.014 A 
HETATM   18  C   UNL     1      -1.986   8.046 -32.217  1.00  0.00     0.001 A 
HETATM   19  C   UNL     1      -0.768   7.710 -31.630  1.00  0.00     0.000 A 
HETATM   20  C   UNL     1      -0.728   6.788 -30.585  1.00  0.00     0.001 A 
HETATM   21  C   UNL     1      -1.908   6.202 -30.123  1.00  0.00     0.014 A 
ENDBRANCH  13  16
BRANCH  15  22
HETATM   22  C   UNL     1      -4.081   3.779 -31.307  1.00  0.00     0.193 C 
HETATM   23  O   UNL     1      -3.600   2.729 -30.893  1.00  0.00    -0.287 OA
BRANCH  22  24
HETATM   24  C   UNL     1      -3.801   4.223 -32.698  1.00  0.00     0.015 A 
HETATM   25  C   UNL     1      -2.467   4.230 -33.128  1.00  0.00     0.015 A 
HETATM   26  C   UNL     1      -2.146   4.684 -34.407  1.00  0.00     0.001 A 
HETATM   27  C   UNL     1      -3.154   5.122 -35.263  1.00  0.00     0.000 A 
HETATM   28  C   UNL     1      -4.486   5.097 -34.847  1.00  0.00     0.001 A 
HETATM   29  C   UNL     1      -4.814   4.640 -33.568  1.00  0.00     0.015 A 
ENDBRANCH  22  24
ENDBRANCH  15  22
ENDBRANCH   5   7
BRANCH   1  30
HETATM   30  O   UNL     1      -9.635   3.354 -33.120  1.00  0.00    -0.349 OA
BRANCH  30  31
HETATM   31  C   UNL     1      -9.212   4.383 -34.023  1.00  0.00     0.171 C 
HETATM   32  C   UNL     1     -10.281   4.612 -35.075  1.00  0.00     0.034 C 
ENDBRANCH  30  31
ENDBRANCH   1  30
BRANCH   2  33
HETATM   33  O   UNL     1      -9.112   0.618 -32.937  1.00  0.00    -0.339 OA
BRANCH  33  34
HETATM   34  C   UNL     1      -8.820   0.775 -34.333  1.00  0.00     0.278 C 
BRANCH  34  35
HETATM   35  C   UNL     1      -7.574  -0.033 -34.732  1.00  0.00     0.246 C 
HETATM   36  N   UNL     1      -7.445  -1.196 -33.988  1.00  0.00    -0.323 N 
HETATM   37  H   UNL     1      -8.276  -1.433 -33.461  1.00  0.00     0.169 HD
HETATM   38  O   UNL     1      -6.868   0.330 -35.668  1.00  0.00    -0.271 OA
BRANCH  36  39
HETATM   39  C   UNL     1      -6.472  -2.205 -34.139  1.00  0.00     0.068 A 
HETATM   40  C   UNL     1      -5.134  -2.097 -33.719  1.00  0.00     0.095 A 
HETATM   41  C   UNL     1      -4.252  -3.155 -33.985  1.00  0.00     0.039 A 
HETATM   42  C   UNL     1      -4.700  -4.320 -34.617  1.00  0.00     0.003 A 
HETATM   43  C   UNL     1      -6.037  -4.450 -34.969  1.00  0.00     0.002 A 
HETATM   44  C   UNL     1      -6.921  -3.402 -34.720  1.00  0.00     0.032 A 
BRANCH  40  45
HETATM   45  O   UNL     1      -4.799  -1.002 -32.970  1.00  0.00    -0.354 OA
HETATM   46  C   UNL     1      -3.847  -1.168 -31.930  1.00  0.00     0.210 C 
ENDBRANCH  40  45
ENDBRANCH  36  39
ENDBRANCH  34  35
ENDBRANCH  33  34
ENDBRANCH   2  33
TORSDOF 11
ENDMDL
MODEL 5
REMARK VINA RESULT:      -8.8      4.630      9.877
REMARK  11 active torsions:
REMARK  status: ('A' for Active; 'I' for Inactive)
REMARK    1  A    between atoms: C_2  and  O_3 
REMARK    2  A    between atoms: O_3  and  C_4 
REMARK    3  A    between atoms: C_5  and  O_6 
REMARK    4  A    between atoms: O_6  and  C_7 
REMARK    5  A    between atoms: C_7  and  C_8 
REMARK       I    between atoms: C_8  and  N_9 
REMARK    6  A    between atoms: N_9  and  C_10 
REMARK    7  A    between atoms: C_11  and  O_12 
REMARK    8  A    between atoms: C_21  and  C_22 
REMARK    9  A    between atoms: C_27  and  C_28 
REMARK   10  A    between atoms: C_34  and  C_35 
REMARK   11  A    between atoms: C_35  and  C_36 
ROOT
HETATM    1  C   UNL     1      -6.019   7.728 -29.510  1.00  0.00     0.102 A 
HETATM    2  C   UNL     1      -6.043   7.098 -28.262  1.00  0.00     0.102 A 
HETATM    3  C   UNL     1      -6.554   5.806 -28.131  1.00  0.00     0.040 A 
HETATM    4  C   UNL     1      -7.007   5.117 -29.253  1.00  0.00     0.012 A 
HETATM    5  C   UNL     1      -6.965   5.717 -30.519  1.00  0.00    -0.028 A 
HETATM    6  C   UNL     1      -6.435   7.015 -30.639  1.00  0.00     0.049 A 
ENDROOT
BRANCH   5   7
HETATM    7  C   UNL     1      -7.504   4.967 -31.725  1.00  0.00     0.157 C 
HETATM    8  N   UNL     1      -8.929   4.755 -31.549  1.00  0.00    -0.354 N 
HETATM    9  C   UNL     1      -9.608   3.746 -32.149  1.00  0.00     0.173 C 
HETATM   10  H   UNL     1      -9.491   5.528 -31.210  1.00  0.00     0.163 HD
HETATM   11  S   UNL     1     -11.265   3.748 -32.230  1.00  0.00    -0.041 SA
HETATM   12  N   UNL     1      -8.866   2.718 -32.641  1.00  0.00    -0.332 N 
HETATM   13  C   UNL     1      -7.497   2.621 -32.526  1.00  0.00     0.057 C 
HETATM   14  H   UNL     1      -9.380   1.922 -33.008  1.00  0.00     0.168 HD
HETATM   15  C   UNL     1      -6.800   3.678 -32.068  1.00  0.00     0.047 C 
BRANCH  13  16
HETATM   16  C   UNL     1      -6.921   1.339 -32.959  1.00  0.00    -0.009 A 
HETATM   17  C   UNL     1      -6.509   0.390 -32.015  1.00  0.00     0.014 A 
HETATM   18  C   UNL     1      -6.010  -0.845 -32.430  1.00  0.00     0.001 A 
HETATM   19  C   UNL     1      -5.925  -1.143 -33.789  1.00  0.00     0.000 A 
HETATM   20  C   UNL     1      -6.335  -0.205 -34.735  1.00  0.00     0.001 A 
HETATM   21  C   UNL     1      -6.832   1.033 -34.324  1.00  0.00     0.014 A 
ENDBRANCH  13  16
BRANCH  15  22
HETATM   22  C   UNL     1      -5.326   3.595 -31.855  1.00  0.00     0.193 C 
HETATM   23  O   UNL     1      -4.860   3.237 -30.777  1.00  0.00    -0.287 OA
BRANCH  22  24
HETATM   24  C   UNL     1      -4.421   4.107 -32.918  1.00  0.00     0.015 A 
HETATM   25  C   UNL     1      -3.039   3.998 -32.712  1.00  0.00     0.015 A 
HETATM   26  C   UNL     1      -2.148   4.508 -33.657  1.00  0.00     0.001 A 
HETATM   27  C   UNL     1      -2.632   5.117 -34.812  1.00  0.00     0.000 A 
HETATM   28  C   UNL     1      -4.008   5.207 -35.032  1.00  0.00     0.001 A 
HETATM   29  C   UNL     1      -4.905   4.697 -34.091  1.00  0.00     0.015 A 
ENDBRANCH  22  24
ENDBRANCH  15  22
ENDBRANCH   5   7
BRANCH   1  30
HETATM   30  O   UNL     1      -5.551   9.013 -29.573  1.00  0.00    -0.349 OA
BRANCH  30  31
HETATM   31  C   UNL     1      -4.876   9.366 -30.786  1.00  0.00     0.171 C 
HETATM   32  C   UNL     1      -3.701  10.275 -30.473  1.00  0.00     0.034 C 
ENDBRANCH  30  31
ENDBRANCH   1  30
BRANCH   2  33
HETATM   33  O   UNL     1      -5.681   7.725 -27.099  1.00  0.00    -0.339 OA
BRANCH  33  34
HETATM   34  C   UNL     1      -4.464   7.210 -26.540  1.00  0.00     0.278 C 
BRANCH  34  35
HETATM   35  C   UNL     1      -3.245   7.658 -27.363  1.00  0.00     0.246 C 
HETATM   36  N   UNL     1      -2.786   6.656 -28.205  1.00  0.00    -0.323 N 
HETATM   37  H   UNL     1      -3.430   5.881 -28.300  1.00  0.00     0.169 HD
HETATM   38  O   UNL     1      -2.834   8.812 -27.292  1.00  0.00    -0.271 OA
BRANCH  36  39
HETATM   39  C   UNL     1      -1.744   6.743 -29.150  1.00  0.00     0.068 A 
HETATM   40  C   UNL     1      -0.377   6.588 -28.854  1.00  0.00     0.095 A 
HETATM   41  C   UNL     1       0.563   6.761 -29.880  1.00  0.00     0.039 A 
HETATM   42  C   UNL     1       0.154   7.038 -31.189  1.00  0.00     0.003 A 
HETATM   43  C   UNL     1      -1.199   7.122 -31.491  1.00  0.00     0.002 A 
HETATM   44  C   UNL     1      -2.144   6.964 -30.478  1.00  0.00     0.032 A 
BRANCH  40  45
HETATM   45  O   UNL     1      -0.055   6.164 -27.594  1.00  0.00    -0.354 OA
HETATM   46  C   UNL     1       0.525   7.102 -26.700  1.00  0.00     0.210 C 
ENDBRANCH  40  45
ENDBRANCH  36  39
ENDBRANCH  34  35
ENDBRANCH  33  34
ENDBRANCH   2  33
TORSDOF 11
ENDMDL
MODEL 6
REMARK VINA RESULT:      -8.8      4.545     10.081
REMARK  11 active torsions:
REMARK  status: ('A' for Active; 'I' for Inactive)
REMARK    1  A    between atoms: C_2  and  O_3 
REMARK    2  A    between atoms: O_3  and  C_4 
REMARK    3  A    between atoms: C_5  and  O_6 
REMARK    4  A    between atoms: O_6  and  C_7 
REMARK    5  A    between atoms: C_7  and  C_8 
REMARK       I    between atoms: C_8  and  N_9 
REMARK    6  A    between atoms: N_9  and  C_10 
REMARK    7  A    between atoms: C_11  and  O_12 
REMARK    8  A    between atoms: C_21  and  C_22 
REMARK    9  A    between atoms: C_27  and  C_28 
REMARK   10  A    between atoms: C_34  and  C_35 
REMARK   11  A    between atoms: C_35  and  C_36 
ROOT
HETATM    1  C   UNL     1      -5.246   4.258 -31.821  1.00  0.00     0.102 A 
HETATM    2  C   UNL     1      -5.550   5.184 -30.818  1.00  0.00     0.102 A 
HETATM    3  C   UNL     1      -6.763   5.872 -30.835  1.00  0.00     0.040 A 
HETATM    4  C   UNL     1      -7.701   5.611 -31.830  1.00  0.00     0.012 A 
HETATM    5  C   UNL     1      -7.431   4.665 -32.829  1.00  0.00    -0.028 A 
HETATM    6  C   UNL     1      -6.209   3.968 -32.793  1.00  0.00     0.049 A 
ENDROOT
BRANCH   5   7
HETATM    7  C   UNL     1      -8.447   4.425 -33.931  1.00  0.00     0.157 C 
HETATM    8  N   UNL     1      -8.982   5.703 -34.365  1.00  0.00    -0.354 N 
HETATM    9  C   UNL     1     -10.201   5.838 -34.945  1.00  0.00     0.173 C 
HETATM   10  H   UNL     1      -8.336   6.470 -34.506  1.00  0.00     0.163 HD
HETATM   11  S   UNL     1     -10.623   7.223 -35.755  1.00  0.00    -0.041 SA
HETATM   12  N   UNL     1     -11.068   4.801 -34.795  1.00  0.00    -0.332 N 
HETATM   13  C   UNL     1     -10.804   3.665 -34.062  1.00  0.00     0.057 C 
HETATM   14  H   UNL     1     -12.009   4.940 -35.152  1.00  0.00     0.168 HD
HETATM   15  C   UNL     1      -9.555   3.453 -33.607  1.00  0.00     0.047 C 
BRANCH  13  16
HETATM   16  C   UNL     1     -11.948   2.760 -33.874  1.00  0.00    -0.009 A 
HETATM   17  C   UNL     1     -12.911   3.026 -32.893  1.00  0.00     0.014 A 
HETATM   18  C   UNL     1     -14.021   2.193 -32.752  1.00  0.00     0.001 A 
HETATM   19  C   UNL     1     -14.180   1.094 -33.593  1.00  0.00     0.000 A 
HETATM   20  C   UNL     1     -13.228   0.823 -34.574  1.00  0.00     0.001 A 
HETATM   21  C   UNL     1     -12.114   1.653 -34.716  1.00  0.00     0.014 A 
ENDBRANCH  13  16
BRANCH  15  22
HETATM   22  C   UNL     1      -9.237   2.277 -32.745  1.00  0.00     0.193 C 
HETATM   23  O   UNL     1      -9.525   2.269 -31.553  1.00  0.00    -0.287 OA
BRANCH  22  24
HETATM   24  C   UNL     1      -8.421   1.173 -33.317  1.00  0.00     0.015 A 
HETATM   25  C   UNL     1      -7.597   0.448 -32.446  1.00  0.00     0.015 A 
HETATM   26  C   UNL     1      -6.775  -0.565 -32.941  1.00  0.00     0.001 A 
HETATM   27  C   UNL     1      -6.781  -0.863 -34.302  1.00  0.00     0.000 A 
HETATM   28  C   UNL     1      -7.616  -0.158 -35.170  1.00  0.00     0.001 A 
HETATM   29  C   UNL     1      -8.444   0.856 -34.680  1.00  0.00     0.015 A 
ENDBRANCH  22  24
ENDBRANCH  15  22
ENDBRANCH   5   7
BRANCH   1  30
HETATM   30  O   UNL     1      -4.022   3.646 -31.782  1.00  0.00    -0.349 OA
BRANCH  30  31
HETATM   31  C   UNL     1      -4.004   2.336 -31.203  1.00  0.00     0.171 C 
HETATM   32  C   UNL     1      -3.622   1.315 -32.259  1.00  0.00     0.034 C 
ENDBRANCH  30  31
ENDBRANCH   1  30
BRANCH   2  33
HETATM   33  O   UNL     1      -4.660   5.550 -29.842  1.00  0.00    -0.339 OA
BRANCH  33  34
HETATM   34  C   UNL     1      -5.059   6.734 -29.137  1.00  0.00     0.278 C 
BRANCH  34  35
HETATM   35  C   UNL     1      -3.835   7.523 -28.644  1.00  0.00     0.246 C 
HETATM   36  N   UNL     1      -2.731   6.706 -28.446  1.00  0.00    -0.323 N 
HETATM   37  H   UNL     1      -2.837   5.781 -28.844  1.00  0.00     0.169 HD
HETATM   38  O   UNL     1      -3.880   8.746 -28.543  1.00  0.00    -0.271 OA
BRANCH  36  39
HETATM   39  C   UNL     1      -1.430   7.101 -28.076  1.00  0.00     0.068 A 
HETATM   40  C   UNL     1      -0.982   7.245 -26.750  1.00  0.00     0.095 A 
HETATM   41  C   UNL     1       0.323   7.705 -26.521  1.00  0.00     0.039 A 
HETATM   42  C   UNL     1       1.185   7.975 -27.588  1.00  0.00     0.003 A 
HETATM   43  C   UNL     1       0.762   7.766 -28.894  1.00  0.00     0.002 A 
HETATM   44  C   UNL     1      -0.536   7.320 -29.136  1.00  0.00     0.032 A 
BRANCH  40  45
HETATM   45  O   UNL     1      -1.820   6.816 -25.757  1.00  0.00    -0.354 OA
HETATM   46  C   UNL     1      -2.566   7.791 -25.042  1.00  0.00     0.210 C 
ENDBRANCH  40  45
ENDBRANCH  36  39
ENDBRANCH  34  35
ENDBRANCH  33  34
ENDBRANCH   2  33
TORSDOF 11
ENDMDL
MODEL 7
REMARK VINA RESULT:      -8.6      2.315      4.705
REMARK  11 active torsions:
REMARK  status: ('A' for Active; 'I' for Inactive)
REMARK    1  A    between atoms: C_2  and  O_3 
REMARK    2  A    between atoms: O_3  and  C_4 
REMARK    3  A    between atoms: C_5  and  O_6 
REMARK    4  A    between atoms: O_6  and  C_7 
REMARK    5  A    between atoms: C_7  and  C_8 
REMARK       I    between atoms: C_8  and  N_9 
REMARK    6  A    between atoms: N_9  and  C_10 
REMARK    7  A    between atoms: C_11  and  O_12 
REMARK    8  A    between atoms: C_21  and  C_22 
REMARK    9  A    between atoms: C_27  and  C_28 
REMARK   10  A    between atoms: C_34  and  C_35 
REMARK   11  A    between atoms: C_35  and  C_36 
ROOT
HETATM    1  C   UNL     1      -8.325   5.587 -32.412  1.00  0.00     0.102 A 
HETATM    2  C   UNL     1      -9.027   5.863 -31.234  1.00  0.00     0.102 A 
HETATM    3  C   UNL     1      -8.512   5.474 -29.997  1.00  0.00     0.040 A 
HETATM    4  C   UNL     1      -7.273   4.843 -29.923  1.00  0.00     0.012 A 
HETATM    5  C   UNL     1      -6.538   4.583 -31.088  1.00  0.00    -0.028 A 
HETATM    6  C   UNL     1      -7.063   4.993 -32.328  1.00  0.00     0.049 A 
ENDROOT
BRANCH   5   7
HETATM    7  C   UNL     1      -5.210   3.854 -30.992  1.00  0.00     0.157 C 
HETATM    8  N   UNL     1      -4.231   4.550 -31.807  1.00  0.00    -0.354 N 
HETATM    9  C   UNL     1      -3.136   3.944 -32.331  1.00  0.00     0.173 C 
HETATM   10  H   UNL     1      -4.195   5.562 -31.755  1.00  0.00     0.163 HD
HETATM   11  S   UNL     1      -1.865   4.825 -32.931  1.00  0.00    -0.041 SA
HETATM   12  N   UNL     1      -3.153   2.585 -32.375  1.00  0.00    -0.332 N 
HETATM   13  C   UNL     1      -4.214   1.805 -31.972  1.00  0.00     0.057 C 
HETATM   14  H   UNL     1      -2.374   2.136 -32.849  1.00  0.00     0.168 HD
HETATM   15  C   UNL     1      -5.241   2.381 -31.318  1.00  0.00     0.047 C 
BRANCH  13  16
HETATM   16  C   UNL     1      -4.095   0.373 -32.284  1.00  0.00    -0.009 A 
HETATM   17  C   UNL     1      -4.649  -0.146 -33.461  1.00  0.00     0.014 A 
HETATM   18  C   UNL     1      -4.490  -1.495 -33.779  1.00  0.00     0.001 A 
HETATM   19  C   UNL     1      -3.772  -2.333 -32.927  1.00  0.00     0.000 A 
HETATM   20  C   UNL     1      -3.215  -1.823 -31.755  1.00  0.00     0.001 A 
HETATM   21  C   UNL     1      -3.375  -0.475 -31.433  1.00  0.00     0.014 A 
ENDBRANCH  13  16
BRANCH  15  22
HETATM   22  C   UNL     1      -6.446   1.593 -30.928  1.00  0.00     0.193 C 
HETATM   23  O   UNL     1      -6.550   1.106 -29.807  1.00  0.00    -0.287 OA
BRANCH  22  24
HETATM   24  C   UNL     1      -7.454   1.268 -31.972  1.00  0.00     0.015 A 
HETATM   25  C   UNL     1      -8.502   0.405 -31.626  1.00  0.00     0.015 A 
HETATM   26  C   UNL     1      -9.446   0.030 -32.582  1.00  0.00     0.001 A 
HETATM   27  C   UNL     1      -9.352   0.523 -33.882  1.00  0.00     0.000 A 
HETATM   28  C   UNL     1      -8.322   1.400 -34.226  1.00  0.00     0.001 A 
HETATM   29  C   UNL     1      -7.376   1.781 -33.271  1.00  0.00     0.015 A 
ENDBRANCH  22  24
ENDBRANCH  15  22
ENDBRANCH   5   7
BRANCH   1  30
HETATM   30  O   UNL     1      -8.899   5.950 -33.601  1.00  0.00    -0.349 OA
BRANCH  30  31
HETATM   31  C   UNL     1      -9.384   4.869 -34.407  1.00  0.00     0.171 C 
HETATM   32  C   UNL     1     -10.448   5.380 -35.362  1.00  0.00     0.034 C 
ENDBRANCH  30  31
ENDBRANCH   1  30
BRANCH   2  33
HETATM   33  O   UNL     1     -10.279   6.418 -31.220  1.00  0.00    -0.339 OA
BRANCH  33  34
HETATM   34  C   UNL     1     -11.285   5.516 -30.737  1.00  0.00     0.278 C 
BRANCH  34  35
HETATM   35  C   UNL     1     -12.132   4.961 -31.895  1.00  0.00     0.246 C 
HETATM   36  N   UNL     1     -12.182   3.575 -31.889  1.00  0.00    -0.323 N 
HETATM   37  H   UNL     1     -11.839   3.162 -31.031  1.00  0.00     0.169 HD
HETATM   38  O   UNL     1     -12.734   5.721 -32.648  1.00  0.00    -0.271 OA
BRANCH  36  39
HETATM   39  C   UNL     1     -12.923   2.742 -32.751  1.00  0.00     0.068 A 
HETATM   40  C   UNL     1     -14.274   2.394 -32.563  1.00  0.00     0.095 A 
HETATM   41  C   UNL     1     -14.877   1.504 -33.464  1.00  0.00     0.039 A 
HETATM   42  C   UNL     1     -14.166   1.003 -34.560  1.00  0.00     0.003 A 
HETATM   43  C   UNL     1     -12.854   1.402 -34.780  1.00  0.00     0.002 A 
HETATM   44  C   UNL     1     -12.240   2.277 -33.886  1.00  0.00     0.032 A 
BRANCH  40  45
HETATM   45  O   UNL     1     -14.953   3.039 -31.566  1.00  0.00    -0.354 OA
HETATM   46  C   UNL     1     -16.014   3.909 -31.933  1.00  0.00     0.210 C 
ENDBRANCH  40  45
ENDBRANCH  36  39
ENDBRANCH  34  35
ENDBRANCH  33  34
ENDBRANCH   2  33
TORSDOF 11
ENDMDL
MODEL 8
REMARK VINA RESULT:      -8.5      4.754      9.870
REMARK  11 active torsions:
REMARK  status: ('A' for Active; 'I' for Inactive)
REMARK    1  A    between atoms: C_2  and  O_3 
REMARK    2  A    between atoms: O_3  and  C_4 
REMARK    3  A    between atoms: C_5  and  O_6 
REMARK    4  A    between atoms: O_6  and  C_7 
REMARK    5  A    between atoms: C_7  and  C_8 
REMARK       I    between atoms: C_8  and  N_9 
REMARK    6  A    between atoms: N_9  and  C_10 
REMARK    7  A    between atoms: C_11  and  O_12 
REMARK    8  A    between atoms: C_21  and  C_22 
REMARK    9  A    between atoms: C_27  and  C_28 
REMARK   10  A    between atoms: C_34  and  C_35 
REMARK   11  A    between atoms: C_35  and  C_36 
ROOT
HETATM    1  C   UNL     1      -6.267   7.129 -29.728  1.00  0.00     0.102 A 
HETATM    2  C   UNL     1      -6.475   6.540 -28.476  1.00  0.00     0.102 A 
HETATM    3  C   UNL     1      -7.312   5.431 -28.347  1.00  0.00     0.040 A 
HETATM    4  C   UNL     1      -7.915   4.876 -29.473  1.00  0.00     0.012 A 
HETATM    5  C   UNL     1      -7.697   5.431 -30.741  1.00  0.00    -0.028 A 
HETATM    6  C   UNL     1      -6.840   6.542 -30.859  1.00  0.00     0.049 A 
ENDROOT
BRANCH   5   7
HETATM    7  C   UNL     1      -8.397   4.839 -31.951  1.00  0.00     0.157 C 
HETATM    8  N   UNL     1      -9.803   4.659 -31.640  1.00  0.00    -0.354 N 
HETATM    9  C   UNL     1     -10.589   3.746 -32.264  1.00  0.00     0.173 C 
HETATM   10  H   UNL     1     -10.288   5.407 -31.160  1.00  0.00     0.163 HD
HETATM   11  S   UNL     1     -12.244   3.814 -32.158  1.00  0.00    -0.041 SA
HETATM   12  N   UNL     1      -9.953   2.754 -32.944  1.00  0.00    -0.332 N 
HETATM   13  C   UNL     1      -8.586   2.597 -32.994  1.00  0.00     0.057 C 
HETATM   14  H   UNL     1     -10.540   2.022 -33.334  1.00  0.00     0.168 HD
HETATM   15  C   UNL     1      -7.795   3.572 -32.507  1.00  0.00     0.047 C 
BRANCH  13  16
HETATM   16  C   UNL     1      -8.120   1.352 -33.624  1.00  0.00    -0.009 A 
HETATM   17  C   UNL     1      -7.515   1.378 -34.886  1.00  0.00     0.014 A 
HETATM   18  C   UNL     1      -7.028   0.202 -35.458  1.00  0.00     0.001 A 
HETATM   19  C   UNL     1      -7.137  -1.005 -34.770  1.00  0.00     0.000 A 
HETATM   20  C   UNL     1      -7.735  -1.039 -33.511  1.00  0.00     0.001 A 
HETATM   21  C   UNL     1      -8.226   0.136 -32.938  1.00  0.00     0.014 A 
ENDBRANCH  13  16
BRANCH  15  22
HETATM   22  C   UNL     1      -6.312   3.415 -32.471  1.00  0.00     0.193 C 
HETATM   23  O   UNL     1      -5.581   4.145 -33.132  1.00  0.00    -0.287 OA
BRANCH  22  24
HETATM   24  C   UNL     1      -5.735   2.254 -31.743  1.00  0.00     0.015 A 
HETATM   25  C   UNL     1      -4.755   1.492 -32.394  1.00  0.00     0.015 A 
HETATM   26  C   UNL     1      -4.218   0.364 -31.773  1.00  0.00     0.001 A 
HETATM   27  C   UNL     1      -4.648   0.001 -30.498  1.00  0.00     0.000 A 
HETATM   28  C   UNL     1      -5.607   0.770 -29.837  1.00  0.00     0.001 A 
HETATM   29  C   UNL     1      -6.147   1.902 -30.453  1.00  0.00     0.015 A 
ENDBRANCH  22  24
ENDBRANCH  15  22
ENDBRANCH   5   7
BRANCH   1  30
HETATM   30  O   UNL     1      -5.474   8.244 -29.789  1.00  0.00    -0.349 OA
BRANCH  30  31
HETATM   31  C   UNL     1      -4.310   8.129 -30.616  1.00  0.00     0.171 C 
HETATM   32  C   UNL     1      -3.446   9.367 -30.460  1.00  0.00     0.034 C 
ENDBRANCH  30  31
ENDBRANCH   1  30
BRANCH   2  33
HETATM   33  O   UNL     1      -5.977   7.061 -27.311  1.00  0.00    -0.339 OA
BRANCH  33  34
HETATM   34  C   UNL     1      -4.763   6.425 -26.888  1.00  0.00     0.278 C 
BRANCH  34  35
HETATM   35  C   UNL     1      -3.567   7.384 -27.006  1.00  0.00     0.246 C 
HETATM   36  N   UNL     1      -2.381   6.712 -27.262  1.00  0.00    -0.323 N 
HETATM   37  H   UNL     1      -2.514   5.746 -27.532  1.00  0.00     0.169 HD
HETATM   38  O   UNL     1      -3.734   8.599 -26.953  1.00  0.00    -0.271 OA
BRANCH  36  39
HETATM   39  C   UNL     1      -1.113   7.277 -27.505  1.00  0.00     0.068 A 
HETATM   40  C   UNL     1      -0.438   7.232 -28.739  1.00  0.00     0.095 A 
HETATM   41  C   UNL     1       0.850   7.781 -28.829  1.00  0.00     0.039 A 
HETATM   42  C   UNL     1       1.441   8.405 -27.726  1.00  0.00     0.003 A 
HETATM   43  C   UNL     1       0.745   8.508 -26.529  1.00  0.00     0.002 A 
HETATM   44  C   UNL     1      -0.531   7.957 -26.423  1.00  0.00     0.032 A 
BRANCH  40  45
HETATM   45  O   UNL     1      -1.133   6.749 -29.814  1.00  0.00    -0.354 OA
HETATM   46  C   UNL     1      -0.634   5.592 -30.470  1.00  0.00     0.210 C 
ENDBRANCH  40  45
ENDBRANCH  36  39
ENDBRANCH  34  35
ENDBRANCH  33  34
ENDBRANCH   2  33
TORSDOF 11
ENDMDL
MODEL 9
REMARK VINA RESULT:      -8.3      4.589     10.107
REMARK  11 active torsions:
REMARK  status: ('A' for Active; 'I' for Inactive)
REMARK    1  A    between atoms: C_2  and  O_3 
REMARK    2  A    between atoms: O_3  and  C_4 
REMARK    3  A    between atoms: C_5  and  O_6 
REMARK    4  A    between atoms: O_6  and  C_7 
REMARK    5  A    between atoms: C_7  and  C_8 
REMARK       I    between atoms: C_8  and  N_9 
REMARK    6  A    between atoms: N_9  and  C_10 
REMARK    7  A    between atoms: C_11  and  O_12 
REMARK    8  A    between atoms: C_21  and  C_22 
REMARK    9  A    between atoms: C_27  and  C_28 
REMARK   10  A    between atoms: C_34  and  C_35 
REMARK   11  A    between atoms: C_35  and  C_36 
ROOT
HETATM    1  C   UNL     1      -6.743   5.513 -30.953  1.00  0.00     0.102 A 
HETATM    2  C   UNL     1      -5.437   5.112 -31.251  1.00  0.00     0.102 A 
HETATM    3  C   UNL     1      -5.149   4.482 -32.462  1.00  0.00     0.040 A 
HETATM    4  C   UNL     1      -6.155   4.285 -33.403  1.00  0.00     0.012 A 
HETATM    5  C   UNL     1      -7.466   4.705 -33.140  1.00  0.00    -0.028 A 
HETATM    6  C   UNL     1      -7.741   5.352 -31.920  1.00  0.00     0.049 A 
ENDROOT
BRANCH   5   7
HETATM    7  C   UNL     1      -8.560   4.442 -34.160  1.00  0.00     0.157 C 
HETATM    8  N   UNL     1      -9.134   5.709 -34.572  1.00  0.00    -0.354 N 
HETATM    9  C   UNL     1     -10.393   5.828 -35.062  1.00  0.00     0.173 C 
HETATM   10  H   UNL     1      -8.506   6.478 -34.773  1.00  0.00     0.163 HD
HETATM   11  S   UNL     1     -10.885   7.198 -35.859  1.00  0.00    -0.041 SA
HETATM   12  N   UNL     1     -11.240   4.789 -34.832  1.00  0.00    -0.332 N 
HETATM   13  C   UNL     1     -10.915   3.666 -34.103  1.00  0.00     0.057 C 
HETATM   14  H   UNL     1     -12.206   4.917 -35.120  1.00  0.00     0.168 HD
HETATM   15  C   UNL     1      -9.633   3.468 -33.739  1.00  0.00     0.047 C 
BRANCH  13  16
HETATM   16  C   UNL     1     -12.035   2.758 -33.817  1.00  0.00    -0.009 A 
HETATM   17  C   UNL     1     -13.017   3.114 -32.884  1.00  0.00     0.014 A 
HETATM   18  C   UNL     1     -14.106   2.272 -32.653  1.00  0.00     0.001 A 
HETATM   19  C   UNL     1     -14.223   1.074 -33.354  1.00  0.00     0.000 A 
HETATM   20  C   UNL     1     -13.250   0.713 -34.286  1.00  0.00     0.001 A 
HETATM   21  C   UNL     1     -12.159   1.552 -34.518  1.00  0.00     0.014 A 
ENDBRANCH  13  16
BRANCH  15  22
HETATM   22  C   UNL     1      -9.244   2.308 -32.885  1.00  0.00     0.193 C 
HETATM   23  O   UNL     1      -9.523   2.279 -31.691  1.00  0.00    -0.287 OA
BRANCH  22  24
HETATM   24  C   UNL     1      -8.372   1.255 -33.468  1.00  0.00     0.015 A 
HETATM   25  C   UNL     1      -7.412   0.663 -32.636  1.00  0.00     0.015 A 
HETATM   26  C   UNL     1      -6.537  -0.296 -33.147  1.00  0.00     0.001 A 
HETATM   27  C   UNL     1      -6.623  -0.673 -34.485  1.00  0.00     0.000 A 
HETATM   28  C   UNL     1      -7.592  -0.102 -35.313  1.00  0.00     0.001 A 
HETATM   29  C   UNL     1      -8.473   0.856 -34.806  1.00  0.00     0.015 A 
ENDBRANCH  22  24
ENDBRANCH  15  22
ENDBRANCH   5   7
BRANCH   1  30
HETATM   30  O   UNL     1      -6.977   6.084 -29.731  1.00  0.00    -0.349 OA
BRANCH  30  31
HETATM   31  C   UNL     1      -7.407   7.451 -29.760  1.00  0.00     0.171 C 
HETATM   32  C   UNL     1      -6.197   8.366 -29.796  1.00  0.00     0.034 C 
ENDBRANCH  30  31
ENDBRANCH   1  30
BRANCH   2  33
HETATM   33  O   UNL     1      -4.403   5.206 -30.357  1.00  0.00    -0.339 OA
BRANCH  33  34
HETATM   34  C   UNL     1      -3.168   5.606 -30.970  1.00  0.00     0.278 C 
BRANCH  34  35
HETATM   35  C   UNL     1      -2.527   6.778 -30.208  1.00  0.00     0.246 C 
HETATM   36  N   UNL     1      -1.621   6.347 -29.251  1.00  0.00    -0.323 N 
HETATM   37  H   UNL     1      -1.373   5.369 -29.341  1.00  0.00     0.169 HD
HETATM   38  O   UNL     1      -2.774   7.938 -30.526  1.00  0.00    -0.271 OA
BRANCH  36  39
HETATM   39  C   UNL     1      -0.799   7.145 -28.430  1.00  0.00     0.068 A 
HETATM   40  C   UNL     1      -1.148   7.597 -27.144  1.00  0.00     0.095 A 
HETATM   41  C   UNL     1      -0.261   8.438 -26.457  1.00  0.00     0.039 A 
HETATM   42  C   UNL     1       0.973   8.788 -27.016  1.00  0.00     0.003 A 
HETATM   43  C   UNL     1       1.343   8.284 -28.256  1.00  0.00     0.002 A 
HETATM   44  C   UNL     1       0.465   7.457 -28.954  1.00  0.00     0.032 A 
BRANCH  40  45
HETATM   45  O   UNL     1      -2.295   7.093 -26.593  1.00  0.00    -0.354 OA
HETATM   46  C   UNL     1      -2.643   7.503 -25.279  1.00  0.00     0.210 C 
ENDBRANCH  40  45
ENDBRANCH  36  39
ENDBRANCH  34  35
ENDBRANCH  33  34
ENDBRANCH   2  33
TORSDOF 11
ENDMDL
MODEL 10
REMARK VINA RESULT:      -8.3      6.541     10.089
REMARK  11 active torsions:
REMARK  status: ('A' for Active; 'I' for Inactive)
REMARK    1  A    between atoms: C_2  and  O_3 
REMARK    2  A    between atoms: O_3  and  C_4 
REMARK    3  A    between atoms: C_5  and  O_6 
REMARK    4  A    between atoms: O_6  and  C_7 
REMARK    5  A    between atoms: C_7  and  C_8 
REMARK       I    between atoms: C_8  and  N_9 
REMARK    6  A    between atoms: N_9  and  C_10 
REMARK    7  A    between atoms: C_11  and  O_12 
REMARK    8  A    between atoms: C_21  and  C_22 
REMARK    9  A    between atoms: C_27  and  C_28 
REMARK   10  A    between atoms: C_34  and  C_35 
REMARK   11  A    between atoms: C_35  and  C_36 
ROOT
HETATM    1  C   UNL     1      -3.521   5.421 -32.013  1.00  0.00     0.102 A 
HETATM    2  C   UNL     1      -4.194   4.260 -31.617  1.00  0.00     0.102 A 
HETATM    3  C   UNL     1      -5.113   4.299 -30.568  1.00  0.00     0.040 A 
HETATM    4  C   UNL     1      -5.398   5.505 -29.932  1.00  0.00     0.012 A 
HETATM    5  C   UNL     1      -4.758   6.686 -30.332  1.00  0.00    -0.028 A 
HETATM    6  C   UNL     1      -3.843   6.636 -31.401  1.00  0.00     0.049 A 
ENDROOT
BRANCH   5   7
HETATM    7  C   UNL     1      -5.048   7.984 -29.599  1.00  0.00     0.157 C 
HETATM    8  N   UNL     1      -5.321   9.024 -30.573  1.00  0.00    -0.354 N 
HETATM    9  C   UNL     1      -5.138  10.344 -30.319  1.00  0.00     0.173 C 
HETATM   10  H   UNL     1      -5.926   8.803 -31.355  1.00  0.00     0.163 HD
HETATM   11  S   UNL     1      -5.797  11.512 -31.296  1.00  0.00    -0.041 SA
HETATM   12  N   UNL     1      -4.356  10.659 -29.251  1.00  0.00    -0.332 N 
HETATM   13  C   UNL     1      -3.713   9.735 -28.458  1.00  0.00     0.057 C 
HETATM   14  H   UNL     1      -4.147  11.644 -29.116  1.00  0.00     0.168 HD
HETATM   15  C   UNL     1      -4.002   8.428 -28.606  1.00  0.00     0.047 C 
BRANCH  13  16
HETATM   16  C   UNL     1      -2.770  10.296 -27.480  1.00  0.00    -0.009 A 
HETATM   17  C   UNL     1      -3.091  10.322 -26.117  1.00  0.00     0.014 A 
HETATM   18  C   UNL     1      -2.172  10.809 -25.186  1.00  0.00     0.001 A 
HETATM   19  C   UNL     1      -0.926  11.266 -25.609  1.00  0.00     0.000 A 
HETATM   20  C   UNL     1      -0.597  11.241 -26.964  1.00  0.00     0.001 A 
HETATM   21  C   UNL     1      -1.515  10.758 -27.898  1.00  0.00     0.014 A 
ENDBRANCH  13  16
BRANCH  15  22
HETATM   22  C   UNL     1      -3.278   7.385 -27.823  1.00  0.00     0.193 C 
HETATM   23  O   UNL     1      -3.863   6.692 -26.997  1.00  0.00    -0.287 OA
BRANCH  22  24
HETATM   24  C   UNL     1      -1.798   7.302 -27.943  1.00  0.00     0.015 A 
HETATM   25  C   UNL     1      -1.047   7.233 -26.762  1.00  0.00     0.015 A 
HETATM   26  C   UNL     1       0.347   7.204 -26.819  1.00  0.00     0.001 A 
HETATM   27  C   UNL     1       0.993   7.232 -28.053  1.00  0.00     0.000 A 
HETATM   28  C   UNL     1       0.249   7.277 -29.233  1.00  0.00     0.001 A 
HETATM   29  C   UNL     1      -1.147   7.305 -29.182  1.00  0.00     0.015 A 
ENDBRANCH  22  24
ENDBRANCH  15  22
ENDBRANCH   5   7
BRANCH   1  30
HETATM   30  O   UNL     1      -2.596   5.316 -33.017  1.00  0.00    -0.349 OA
BRANCH  30  31
HETATM   31  C   UNL     1      -1.247   5.632 -32.649  1.00  0.00     0.171 C 
HETATM   32  C   UNL     1      -0.917   7.048 -33.083  1.00  0.00     0.034 C 
ENDBRANCH  30  31
ENDBRANCH   1  30
BRANCH   2  33
HETATM   33  O   UNL     1      -3.926   3.023 -32.141  1.00  0.00    -0.339 OA
BRANCH  33  34
HETATM   34  C   UNL     1      -3.736   2.019 -31.134  1.00  0.00     0.278 C 
BRANCH  34  35
HETATM   35  C   UNL     1      -4.521   0.741 -31.474  1.00  0.00     0.246 C 
HETATM   36  N   UNL     1      -4.345   0.354 -32.794  1.00  0.00    -0.323 N 
HETATM   37  H   UNL     1      -3.586   0.837 -33.258  1.00  0.00     0.169 HD
HETATM   38  O   UNL     1      -5.142   0.139 -30.602  1.00  0.00    -0.271 OA
BRANCH  36  39
HETATM   39  C   UNL     1      -4.848  -0.803 -33.422  1.00  0.00     0.068 A 
HETATM   40  C   UNL     1      -4.220  -2.062 -33.403  1.00  0.00     0.095 A 
HETATM   41  C   UNL     1      -4.798  -3.119 -34.122  1.00  0.00     0.039 A 
HETATM   42  C   UNL     1      -6.002  -2.943 -34.811  1.00  0.00     0.003 A 
HETATM   43  C   UNL     1      -6.654  -1.717 -34.771  1.00  0.00     0.002 A 
HETATM   44  C   UNL     1      -6.085  -0.655 -34.070  1.00  0.00     0.032 A 
BRANCH  40  45
HETATM   45  O   UNL     1      -3.133  -2.208 -32.584  1.00  0.00    -0.354 OA
HETATM   46  C   UNL     1      -3.016  -3.407 -31.834  1.00  0.00     0.210 C 
ENDBRANCH  40  45
ENDBRANCH  36  39
ENDBRANCH  34  35
ENDBRANCH  33  34
ENDBRANCH   2  33
TORSDOF 11
ENDMDL
