MODEL 1
REMARK VINA RESULT:      -9.7      0.000      0.000
REMARK  8 active torsions:
REMARK  status: ('A' for Active; 'I' for Inactive)
REMARK    1  A    between atoms: C_4  and  C_5 
REMARK    2  A    between atoms: C_5  and  C_6 
REMARK    3  A    between atoms: C_6  and  C_7 
REMARK    4  A    between atoms: C_7  and  N_8 
REMARK    5  A    between atoms: C_17  and  C_18 
REMARK    6  A    between atoms: C_18  and  N_19 
REMARK    7  A    between atoms: C_23  and  O_24 
REMARK    8  A    between atoms: C_23  and  C_25 
ROOT
HETATM    1  N   UNL     1      -9.630   0.553 -32.872  1.00  0.00    -0.065 N 
HETATM    2  H   UNL     1      -9.971  -0.201 -32.263  1.00  0.00     0.280 HD
HETATM    3  C   UNL     1      -8.856   1.472 -31.947  1.00  0.00     0.276 C 
HETATM    4  C   UNL     1      -8.131   2.607 -32.617  1.00  0.00     0.001 A 
HETATM    5  C   UNL     1      -8.842   3.583 -33.317  1.00  0.00     0.076 A 
HETATM    6  O   UNL     1     -10.205   3.548 -33.388  1.00  0.00    -0.349 OA
HETATM    7  C   UNL     1     -10.670   2.470 -34.210  1.00  0.00     0.203 C 
HETATM    8  C   UNL     1     -10.916   1.205 -33.383  1.00  0.00     0.261 C 
HETATM    9  C   UNL     1      -6.733   2.741 -32.516  1.00  0.00     0.020 A 
HETATM   10  C   UNL     1      -6.057   3.827 -33.109  1.00  0.00    -0.032 A 
HETATM   11  C   UNL     1      -6.804   4.787 -33.806  1.00  0.00     0.011 A 
HETATM   12  C   UNL     1      -8.193   4.672 -33.893  1.00  0.00     0.038 A 
ENDROOT
BRANCH  10  13
HETATM   13  C   UNL     1      -4.555   3.949 -32.992  1.00  0.00     0.273 C 
BRANCH  13  14
HETATM   14  N   UNL     1      -4.016   5.370 -32.977  1.00  0.00    -0.067 N 
HETATM   15  H   UNL     1      -4.669   5.939 -33.535  1.00  0.00     0.280 HD
HETATM   16  C   UNL     1      -3.973   5.977 -31.594  1.00  0.00     0.238 C 
HETATM   17  C   UNL     1      -3.425   7.390 -31.667  1.00  0.00     0.071 C 
HETATM   18  C   UNL     1      -1.994   7.417 -32.239  1.00  0.00     0.089 C 
HETATM   19  C   UNL     1      -2.086   6.818 -33.657  1.00  0.00     0.071 C 
HETATM   20  C   UNL     1      -2.672   5.415 -33.676  1.00  0.00     0.238 C 
BRANCH  18  21
HETATM   21  O   UNL     1      -1.653   8.794 -32.408  1.00  0.00    -0.385 OA
HETATM   22  H   UNL     1      -1.452   9.200 -31.543  1.00  0.00     0.211 HD
ENDBRANCH  18  21
BRANCH  18  23
HETATM   23  C   UNL     1      -0.975   6.783 -31.299  1.00  0.00    -0.006 A 
HETATM   24  C   UNL     1      -0.291   5.604 -31.594  1.00  0.00     0.126 A 
HETATM   25  N   UNL     1       0.552   4.974 -30.749  1.00  0.00    -0.272 NA
HETATM   26  C   UNL     1       0.817   5.574 -29.572  1.00  0.00     0.116 A 
HETATM   27  C   UNL     1       0.254   6.778 -29.198  1.00  0.00     0.020 A 
HETATM   28  C   UNL     1      -0.646   7.385 -30.073  1.00  0.00     0.013 A 
ENDBRANCH  18  23
ENDBRANCH  13  14
ENDBRANCH  10  13
BRANCH   1  29
HETATM   29  C   UNL     1      -8.838  -0.119 -33.975  1.00  0.00     0.236 C 
BRANCH  29  30
HETATM   30  C   UNL     1      -7.710  -1.017 -33.469  1.00  0.00     0.039 C 
BRANCH  30  31
HETATM   31  C   UNL     1      -6.459  -1.101 -34.361  1.00  0.00     0.040 C 
HETATM   32  C   UNL     1      -5.308  -0.255 -33.815  1.00  0.00     0.017 C 
BRANCH  31  33
HETATM   33  C   UNL     1      -6.075  -2.535 -34.532  1.00  0.00     0.057 A 
HETATM   34  O   UNL     1      -4.818  -2.860 -34.102  1.00  0.00    -0.319 OA
HETATM   35  C   UNL     1      -4.654  -4.196 -34.323  1.00  0.00     0.049 A 
HETATM   36  C   UNL     1      -3.371  -4.796 -33.906  1.00  0.00     0.076 C 
HETATM   37  C   UNL     1      -5.784  -4.721 -34.911  1.00  0.00     0.035 A 
HETATM   38  C   UNL     1      -6.698  -3.651 -35.050  1.00  0.00     0.035 A 
ENDBRANCH  31  33
ENDBRANCH  30  31
ENDBRANCH  29  30
ENDBRANCH   1  29
TORSDOF 8
ENDMDL
MODEL 2
REMARK VINA RESULT:      -9.6      2.813      9.406
REMARK  8 active torsions:
REMARK  status: ('A' for Active; 'I' for Inactive)
REMARK    1  A    between atoms: C_4  and  C_5 
REMARK    2  A    between atoms: C_5  and  C_6 
REMARK    3  A    between atoms: C_6  and  C_7 
REMARK    4  A    between atoms: C_7  and  N_8 
REMARK    5  A    between atoms: C_17  and  C_18 
REMARK    6  A    between atoms: C_18  and  N_19 
REMARK    7  A    between atoms: C_23  and  O_24 
REMARK    8  A    between atoms: C_23  and  C_25 
ROOT
HETATM    1  N   UNL     1      -3.947  -0.375 -31.488  1.00  0.00    -0.065 N 
HETATM    2  H   UNL     1      -3.607  -0.378 -30.518  1.00  0.00     0.280 HD
HETATM    3  C   UNL     1      -5.458  -0.374 -31.364  1.00  0.00     0.276 C 
HETATM    4  C   UNL     1      -6.215  -0.237 -32.657  1.00  0.00     0.001 A 
HETATM    5  C   UNL     1      -6.099  -1.211 -33.650  1.00  0.00     0.076 A 
HETATM    6  O   UNL     1      -5.321  -2.318 -33.464  1.00  0.00    -0.349 OA
HETATM    7  C   UNL     1      -3.924  -1.998 -33.467  1.00  0.00     0.203 C 
HETATM    8  C   UNL     1      -3.419  -1.695 -32.053  1.00  0.00     0.261 C 
HETATM    9  C   UNL     1      -7.092   0.842 -32.879  1.00  0.00     0.020 A 
HETATM   10  C   UNL     1      -7.834   0.950 -34.073  1.00  0.00    -0.032 A 
HETATM   11  C   UNL     1      -7.689  -0.046 -35.048  1.00  0.00     0.011 A 
HETATM   12  C   UNL     1      -6.837  -1.131 -34.827  1.00  0.00     0.038 A 
ENDROOT
BRANCH  10  13
HETATM   13  C   UNL     1      -8.766   2.119 -34.292  1.00  0.00     0.273 C 
BRANCH  13  14
HETATM   14  N   UNL     1     -10.204   1.754 -34.622  1.00  0.00    -0.067 N 
HETATM   15  H   UNL     1     -10.162   0.999 -35.323  1.00  0.00     0.280 HD
HETATM   16  C   UNL     1     -10.969   1.214 -33.436  1.00  0.00     0.238 C 
HETATM   17  C   UNL     1     -12.389   0.874 -33.850  1.00  0.00     0.071 C 
HETATM   18  C   UNL     1     -13.141   2.114 -34.373  1.00  0.00     0.089 C 
HETATM   19  C   UNL     1     -12.347   2.616 -35.595  1.00  0.00     0.071 C 
HETATM   20  C   UNL     1     -10.894   2.934 -35.274  1.00  0.00     0.238 C 
BRANCH  18  21
HETATM   21  O   UNL     1     -14.393   1.644 -34.875  1.00  0.00    -0.385 OA
HETATM   22  H   UNL     1     -14.647   0.816 -34.426  1.00  0.00     0.211 HD
ENDBRANCH  18  21
BRANCH  18  23
HETATM   23  C   UNL     1     -13.418   3.137 -33.277  1.00  0.00    -0.006 A 
HETATM   24  C   UNL     1     -12.835   4.403 -33.246  1.00  0.00     0.126 A 
HETATM   25  N   UNL     1     -12.994   5.297 -32.247  1.00  0.00    -0.272 NA
HETATM   26  C   UNL     1     -13.846   4.976 -31.255  1.00  0.00     0.116 A 
HETATM   27  C   UNL     1     -14.535   3.780 -31.212  1.00  0.00     0.020 A 
HETATM   28  C   UNL     1     -14.319   2.858 -32.235  1.00  0.00     0.013 A 
ENDBRANCH  18  23
ENDBRANCH  13  14
ENDBRANCH  10  13
BRANCH   1  29
HETATM   29  C   UNL     1      -3.322   0.835 -32.152  1.00  0.00     0.236 C 
BRANCH  29  30
HETATM   30  C   UNL     1      -3.649   2.158 -31.461  1.00  0.00     0.039 C 
BRANCH  30  31
HETATM   31  C   UNL     1      -4.030   3.329 -32.384  1.00  0.00     0.040 C 
HETATM   32  C   UNL     1      -5.212   4.129 -31.837  1.00  0.00     0.017 C 
BRANCH  31  33
HETATM   33  C   UNL     1      -2.825   4.184 -32.612  1.00  0.00     0.057 A 
HETATM   34  O   UNL     1      -1.955   4.262 -31.560  1.00  0.00    -0.319 OA
HETATM   35  C   UNL     1      -0.925   5.065 -31.953  1.00  0.00     0.049 A 
HETATM   36  C   UNL     1       0.171   5.278 -30.987  1.00  0.00     0.076 C 
HETATM   37  C   UNL     1      -1.140   5.517 -33.237  1.00  0.00     0.035 A 
HETATM   38  C   UNL     1      -2.366   4.954 -33.660  1.00  0.00     0.035 A 
ENDBRANCH  31  33
ENDBRANCH  30  31
ENDBRANCH  29  30
ENDBRANCH   1  29
TORSDOF 8
ENDMDL
MODEL 3
REMARK VINA RESULT:      -9.5      1.923      2.496
REMARK  8 active torsions:
REMARK  status: ('A' for Active; 'I' for Inactive)
REMARK    1  A    between atoms: C_4  and  C_5 
REMARK    2  A    between atoms: C_5  and  C_6 
REMARK    3  A    between atoms: C_6  and  C_7 
REMARK    4  A    between atoms: C_7  and  N_8 
REMARK    5  A    between atoms: C_17  and  C_18 
REMARK    6  A    between atoms: C_18  and  N_19 
REMARK    7  A    between atoms: C_23  and  O_24 
REMARK    8  A    between atoms: C_23  and  C_25 
ROOT
HETATM    1  N   UNL     1     -10.631   1.653 -32.786  1.00  0.00    -0.065 N 
HETATM    2  H   UNL     1     -11.206   1.062 -32.173  1.00  0.00     0.280 HD
HETATM    3  C   UNL     1      -9.750   2.445 -31.838  1.00  0.00     0.276 C 
HETATM    4  C   UNL     1      -8.704   3.307 -32.491  1.00  0.00     0.001 A 
HETATM    5  C   UNL     1      -9.079   4.354 -33.334  1.00  0.00     0.076 A 
HETATM    6  O   UNL     1     -10.395   4.637 -33.565  1.00  0.00    -0.349 OA
HETATM    7  C   UNL     1     -11.027   3.629 -34.364  1.00  0.00     0.203 C 
HETATM    8  C   UNL     1     -11.659   2.541 -33.489  1.00  0.00     0.261 C 
HETATM    9  C   UNL     1      -7.334   3.114 -32.233  1.00  0.00     0.020 A 
HETATM   10  C   UNL     1      -6.355   3.948 -32.812  1.00  0.00    -0.032 A 
HETATM   11  C   UNL     1      -6.769   4.988 -33.655  1.00  0.00     0.011 A 
HETATM   12  C   UNL     1      -8.128   5.199 -33.900  1.00  0.00     0.038 A 
ENDROOT
BRANCH  10  13
HETATM   13  C   UNL     1      -4.889   3.720 -32.524  1.00  0.00     0.273 C 
BRANCH  13  14
HETATM   14  N   UNL     1      -3.950   4.804 -33.028  1.00  0.00    -0.067 N 
HETATM   15  H   UNL     1      -4.327   5.123 -33.932  1.00  0.00     0.280 HD
HETATM   16  C   UNL     1      -3.893   6.011 -32.121  1.00  0.00     0.238 C 
HETATM   17  C   UNL     1      -2.937   7.042 -32.695  1.00  0.00     0.071 C 
HETATM   18  C   UNL     1      -1.507   6.481 -32.825  1.00  0.00     0.089 C 
HETATM   19  C   UNL     1      -1.604   5.272 -33.776  1.00  0.00     0.071 C 
HETATM   20  C   UNL     1      -2.582   4.210 -33.296  1.00  0.00     0.238 C 
BRANCH  18  21
HETATM   21  O   UNL     1      -0.746   7.473 -33.516  1.00  0.00    -0.385 OA
HETATM   22  H   UNL     1      -1.043   7.541 -34.443  1.00  0.00     0.211 HD
ENDBRANCH  18  21
BRANCH  18  23
HETATM   23  C   UNL     1      -0.851   6.230 -31.472  1.00  0.00    -0.006 A 
HETATM   24  C   UNL     1      -1.177   6.941 -30.319  1.00  0.00     0.126 A 
HETATM   25  N   UNL     1      -0.556   6.801 -29.129  1.00  0.00    -0.272 NA
HETATM   26  C   UNL     1       0.387   5.843 -29.028  1.00  0.00     0.116 A 
HETATM   27  C   UNL     1       0.747   5.029 -30.083  1.00  0.00     0.020 A 
HETATM   28  C   UNL     1       0.118   5.225 -31.312  1.00  0.00     0.013 A 
ENDBRANCH  18  23
ENDBRANCH  13  14
ENDBRANCH  10  13
BRANCH   1  29
HETATM   29  C   UNL     1      -9.922   0.712 -33.739  1.00  0.00     0.236 C 
BRANCH  29  30
HETATM   30  C   UNL     1      -9.004  -0.294 -33.047  1.00  0.00     0.039 C 
BRANCH  30  31
HETATM   31  C   UNL     1      -7.707  -0.652 -33.795  1.00  0.00     0.040 C 
HETATM   32  C   UNL     1      -7.566   0.127 -35.103  1.00  0.00     0.017 C 
BRANCH  31  33
HETATM   33  C   UNL     1      -6.543  -0.440 -32.883  1.00  0.00     0.057 A 
HETATM   34  O   UNL     1      -6.855   0.001 -31.626  1.00  0.00    -0.319 OA
HETATM   35  C   UNL     1      -5.681   0.122 -30.942  1.00  0.00     0.049 A 
HETATM   36  C   UNL     1      -5.764   0.558 -29.534  1.00  0.00     0.076 C 
HETATM   37  C   UNL     1      -4.622  -0.215 -31.756  1.00  0.00     0.035 A 
HETATM   38  C   UNL     1      -5.175  -0.573 -33.007  1.00  0.00     0.035 A 
ENDBRANCH  31  33
ENDBRANCH  30  31
ENDBRANCH  29  30
ENDBRANCH   1  29
TORSDOF 8
ENDMDL
MODEL 4
REMARK VINA RESULT:      -9.1      2.435      3.728
REMARK  8 active torsions:
REMARK  status: ('A' for Active; 'I' for Inactive)
REMARK    1  A    between atoms: C_4  and  C_5 
REMARK    2  A    between atoms: C_5  and  C_6 
REMARK    3  A    between atoms: C_6  and  C_7 
REMARK    4  A    between atoms: C_7  and  N_8 
REMARK    5  A    between atoms: C_17  and  C_18 
REMARK    6  A    between atoms: C_18  and  N_19 
REMARK    7  A    between atoms: C_23  and  O_24 
REMARK    8  A    between atoms: C_23  and  C_25 
ROOT
HETATM    1  N   UNL     1     -11.827   1.383 -33.122  1.00  0.00    -0.065 N 
HETATM    2  H   UNL     1     -12.257   0.808 -32.387  1.00  0.00     0.280 HD
HETATM    3  C   UNL     1     -11.693   2.761 -32.503  1.00  0.00     0.276 C 
HETATM    4  C   UNL     1     -10.963   3.778 -33.336  1.00  0.00     0.001 A 
HETATM    5  C   UNL     1     -11.467   4.167 -34.578  1.00  0.00     0.076 A 
HETATM    6  O   UNL     1     -12.642   3.657 -35.054  1.00  0.00    -0.349 OA
HETATM    7  C   UNL     1     -12.517   2.277 -35.419  1.00  0.00     0.203 C 
HETATM    8  C   UNL     1     -12.865   1.357 -34.245  1.00  0.00     0.261 C 
HETATM    9  C   UNL     1      -9.788   4.397 -32.868  1.00  0.00     0.020 A 
HETATM   10  C   UNL     1      -9.125   5.382 -33.630  1.00  0.00    -0.032 A 
HETATM   11  C   UNL     1      -9.660   5.744 -34.874  1.00  0.00     0.011 A 
HETATM   12  C   UNL     1     -10.837   5.151 -35.336  1.00  0.00     0.038 A 
ENDROOT
BRANCH  10  13
HETATM   13  C   UNL     1      -7.863   6.030 -33.110  1.00  0.00     0.273 C 
BRANCH  13  14
HETATM   14  N   UNL     1      -6.862   5.084 -32.467  1.00  0.00    -0.067 N 
HETATM   15  H   UNL     1      -7.411   4.379 -31.954  1.00  0.00     0.280 HD
HETATM   16  C   UNL     1      -6.015   4.339 -33.473  1.00  0.00     0.238 C 
HETATM   17  C   UNL     1      -5.047   3.420 -32.751  1.00  0.00     0.071 C 
HETATM   18  C   UNL     1      -4.098   4.206 -31.825  1.00  0.00     0.089 C 
HETATM   19  C   UNL     1      -4.997   4.927 -30.800  1.00  0.00     0.071 C 
HETATM   20  C   UNL     1      -6.031   5.835 -31.447  1.00  0.00     0.238 C 
BRANCH  18  21
HETATM   21  O   UNL     1      -3.354   3.234 -31.090  1.00  0.00    -0.385 OA
HETATM   22  H   UNL     1      -3.546   3.311 -30.136  1.00  0.00     0.211 HD
ENDBRANCH  18  21
BRANCH  18  23
HETATM   23  C   UNL     1      -3.115   5.079 -32.597  1.00  0.00    -0.006 A 
HETATM   24  C   UNL     1      -2.878   6.419 -32.294  1.00  0.00     0.126 A 
HETATM   25  N   UNL     1      -2.080   7.239 -33.009  1.00  0.00    -0.272 NA
HETATM   26  C   UNL     1      -1.396   6.700 -34.037  1.00  0.00     0.116 A 
HETATM   27  C   UNL     1      -1.495   5.369 -34.390  1.00  0.00     0.020 A 
HETATM   28  C   UNL     1      -2.359   4.555 -33.660  1.00  0.00     0.013 A 
ENDBRANCH  18  23
ENDBRANCH  13  14
ENDBRANCH  10  13
BRANCH   1  29
HETATM   29  C   UNL     1     -10.537   0.686 -33.504  1.00  0.00     0.236 C 
BRANCH  29  30
HETATM   30  C   UNL     1      -9.613   0.403 -32.322  1.00  0.00     0.039 C 
BRANCH  30  31
HETATM   31  C   UNL     1      -8.270   1.156 -32.315  1.00  0.00     0.040 C 
HETATM   32  C   UNL     1      -8.072   1.963 -31.031  1.00  0.00     0.017 C 
BRANCH  31  33
HETATM   33  C   UNL     1      -7.161   0.182 -32.547  1.00  0.00     0.057 A 
HETATM   34  O   UNL     1      -7.328  -0.650 -33.620  1.00  0.00    -0.319 OA
HETATM   35  C   UNL     1      -6.224  -1.450 -33.680  1.00  0.00     0.049 A 
HETATM   36  C   UNL     1      -6.156  -2.423 -34.789  1.00  0.00     0.076 C 
HETATM   37  C   UNL     1      -5.366  -1.152 -32.644  1.00  0.00     0.035 A 
HETATM   38  C   UNL     1      -5.971  -0.105 -31.910  1.00  0.00     0.035 A 
ENDBRANCH  31  33
ENDBRANCH  30  31
ENDBRANCH  29  30
ENDBRANCH   1  29
TORSDOF 8
ENDMDL
MODEL 5
REMARK VINA RESULT:      -9.0      2.356      8.062
REMARK  8 active torsions:
REMARK  status: ('A' for Active; 'I' for Inactive)
REMARK    1  A    between atoms: C_4  and  C_5 
REMARK    2  A    between atoms: C_5  and  C_6 
REMARK    3  A    between atoms: C_6  and  C_7 
REMARK    4  A    between atoms: C_7  and  N_8 
REMARK    5  A    between atoms: C_17  and  C_18 
REMARK    6  A    between atoms: C_18  and  N_19 
REMARK    7  A    between atoms: C_23  and  O_24 
REMARK    8  A    between atoms: C_23  and  C_25 
ROOT
HETATM    1  N   UNL     1      -5.207   6.138 -31.570  1.00  0.00    -0.065 N 
HETATM    2  H   UNL     1      -4.856   7.059 -31.860  1.00  0.00     0.280 HD
HETATM    3  C   UNL     1      -6.670   6.143 -31.970  1.00  0.00     0.276 C 
HETATM    4  C   UNL     1      -7.401   4.843 -31.772  1.00  0.00     0.001 A 
HETATM    5  C   UNL     1      -7.547   4.303 -30.493  1.00  0.00     0.076 A 
HETATM    6  O   UNL     1      -7.057   4.949 -29.394  1.00  0.00    -0.349 OA
HETATM    7  C   UNL     1      -5.624   4.925 -29.355  1.00  0.00     0.203 C 
HETATM    8  C   UNL     1      -5.028   6.153 -30.050  1.00  0.00     0.261 C 
HETATM    9  C   UNL     1      -7.996   4.168 -32.855  1.00  0.00     0.020 A 
HETATM   10  C   UNL     1      -8.717   2.971 -32.665  1.00  0.00    -0.032 A 
HETATM   11  C   UNL     1      -8.840   2.457 -31.367  1.00  0.00     0.011 A 
HETATM   12  C   UNL     1      -8.272   3.132 -30.285  1.00  0.00     0.038 A 
ENDROOT
BRANCH  10  13
HETATM   13  C   UNL     1      -9.344   2.261 -33.843  1.00  0.00     0.273 C 
BRANCH  13  14
HETATM   14  N   UNL     1      -8.650   0.979 -34.275  1.00  0.00    -0.067 N 
HETATM   15  H   UNL     1      -9.209   0.589 -35.048  1.00  0.00     0.280 HD
HETATM   16  C   UNL     1      -7.255   1.208 -34.808  1.00  0.00     0.238 C 
HETATM   17  C   UNL     1      -6.636  -0.117 -35.216  1.00  0.00     0.071 C 
HETATM   18  C   UNL     1      -6.533  -1.088 -34.024  1.00  0.00     0.089 C 
HETATM   19  C   UNL     1      -7.974  -1.316 -33.528  1.00  0.00     0.071 C 
HETATM   20  C   UNL     1      -8.685  -0.027 -33.143  1.00  0.00     0.238 C 
BRANCH  18  21
HETATM   21  O   UNL     1      -6.091  -2.337 -34.558  1.00  0.00    -0.385 OA
HETATM   22  H   UNL     1      -5.301  -2.649 -34.077  1.00  0.00     0.211 HD
ENDBRANCH  18  21
BRANCH  18  23
HETATM   23  C   UNL     1      -5.521  -0.629 -32.980  1.00  0.00    -0.006 A 
HETATM   24  C   UNL     1      -4.155  -0.517 -33.234  1.00  0.00     0.126 A 
HETATM   25  N   UNL     1      -3.225  -0.196 -32.310  1.00  0.00    -0.272 NA
HETATM   26  C   UNL     1      -3.660   0.124 -31.076  1.00  0.00     0.116 A 
HETATM   27  C   UNL     1      -4.995   0.116 -30.723  1.00  0.00     0.020 A 
HETATM   28  C   UNL     1      -5.929  -0.260 -31.687  1.00  0.00     0.013 A 
ENDBRANCH  18  23
ENDBRANCH  13  14
ENDBRANCH  10  13
BRANCH   1  29
HETATM   29  C   UNL     1      -4.324   5.113 -32.252  1.00  0.00     0.236 C 
BRANCH  29  30
HETATM   30  C   UNL     1      -3.416   5.699 -33.332  1.00  0.00     0.039 C 
BRANCH  30  31
HETATM   31  C   UNL     1      -2.042   5.026 -33.499  1.00  0.00     0.040 C 
HETATM   32  C   UNL     1      -1.524   5.131 -34.934  1.00  0.00     0.017 C 
BRANCH  31  33
HETATM   33  C   UNL     1      -1.088   5.610 -32.509  1.00  0.00     0.057 A 
HETATM   34  O   UNL     1      -0.602   4.734 -31.577  1.00  0.00    -0.319 OA
HETATM   35  C   UNL     1       0.252   5.436 -30.777  1.00  0.00     0.049 A 
HETATM   36  C   UNL     1       0.935   4.690 -29.702  1.00  0.00     0.076 C 
HETATM   37  C   UNL     1       0.299   6.755 -31.176  1.00  0.00     0.035 A 
HETATM   38  C   UNL     1      -0.568   6.869 -32.288  1.00  0.00     0.035 A 
ENDBRANCH  31  33
ENDBRANCH  30  31
ENDBRANCH  29  30
ENDBRANCH   1  29
TORSDOF 8
ENDMDL
MODEL 6
REMARK VINA RESULT:      -9.0      3.009      9.116
REMARK  8 active torsions:
REMARK  status: ('A' for Active; 'I' for Inactive)
REMARK    1  A    between atoms: C_4  and  C_5 
REMARK    2  A    between atoms: C_5  and  C_6 
REMARK    3  A    between atoms: C_6  and  C_7 
REMARK    4  A    between atoms: C_7  and  N_8 
REMARK    5  A    between atoms: C_17  and  C_18 
REMARK    6  A    between atoms: C_18  and  N_19 
REMARK    7  A    between atoms: C_23  and  O_24 
REMARK    8  A    between atoms: C_23  and  C_25 
ROOT
HETATM    1  N   UNL     1      -4.080  -0.748 -31.715  1.00  0.00    -0.065 N 
HETATM    2  H   UNL     1      -3.711  -0.916 -30.771  1.00  0.00     0.280 HD
HETATM    3  C   UNL     1      -5.577  -0.604 -31.520  1.00  0.00     0.276 C 
HETATM    4  C   UNL     1      -6.357  -0.218 -32.747  1.00  0.00     0.001 A 
HETATM    5  C   UNL     1      -6.382  -1.058 -33.862  1.00  0.00     0.076 A 
HETATM    6  O   UNL     1      -5.725  -2.256 -33.857  1.00  0.00    -0.349 OA
HETATM    7  C   UNL     1      -4.302  -2.086 -33.885  1.00  0.00     0.203 C 
HETATM    8  C   UNL     1      -3.720  -2.029 -32.470  1.00  0.00     0.261 C 
HETATM    9  C   UNL     1      -7.116   0.967 -32.787  1.00  0.00     0.020 A 
HETATM   10  C   UNL     1      -7.881   1.310 -33.921  1.00  0.00    -0.032 A 
HETATM   11  C   UNL     1      -7.879   0.443 -35.022  1.00  0.00     0.011 A 
HETATM   12  C   UNL     1      -7.146  -0.745 -34.983  1.00  0.00     0.038 A 
ENDROOT
BRANCH  10  13
HETATM   13  C   UNL     1      -8.686   2.589 -33.943  1.00  0.00     0.273 C 
BRANCH  13  14
HETATM   14  N   UNL     1     -10.174   2.428 -33.680  1.00  0.00    -0.067 N 
HETATM   15  H   UNL     1     -10.305   1.477 -33.306  1.00  0.00     0.280 HD
HETATM   16  C   UNL     1     -10.703   3.389 -32.641  1.00  0.00     0.238 C 
HETATM   17  C   UNL     1     -12.190   3.162 -32.439  1.00  0.00     0.071 C 
HETATM   18  C   UNL     1     -12.983   3.390 -33.741  1.00  0.00     0.089 C 
HETATM   19  C   UNL     1     -12.434   2.374 -34.762  1.00  0.00     0.071 C 
HETATM   20  C   UNL     1     -10.935   2.504 -34.988  1.00  0.00     0.238 C 
BRANCH  18  21
HETATM   21  O   UNL     1     -14.329   2.995 -33.468  1.00  0.00    -0.385 OA
HETATM   22  H   UNL     1     -14.932   3.754 -33.578  1.00  0.00     0.211 HD
ENDBRANCH  18  21
BRANCH  18  23
HETATM   23  C   UNL     1     -12.991   4.851 -34.174  1.00  0.00    -0.006 A 
HETATM   24  C   UNL     1     -13.201   5.911 -33.292  1.00  0.00     0.126 A 
HETATM   25  N   UNL     1     -13.298   7.206 -33.657  1.00  0.00    -0.272 NA
HETATM   26  C   UNL     1     -13.090   7.504 -34.955  1.00  0.00     0.116 A 
HETATM   27  C   UNL     1     -12.807   6.548 -35.910  1.00  0.00     0.020 A 
HETATM   28  C   UNL     1     -12.754   5.213 -35.511  1.00  0.00     0.013 A 
ENDBRANCH  18  23
ENDBRANCH  13  14
ENDBRANCH  10  13
BRANCH   1  29
HETATM   29  C   UNL     1      -3.349   0.468 -32.246  1.00  0.00     0.236 C 
BRANCH  29  30
HETATM   30  C   UNL     1      -3.463   1.700 -31.351  1.00  0.00     0.039 C 
BRANCH  30  31
HETATM   31  C   UNL     1      -4.045   2.964 -32.008  1.00  0.00     0.040 C 
HETATM   32  C   UNL     1      -5.064   3.662 -31.106  1.00  0.00     0.017 C 
BRANCH  31  33
HETATM   33  C   UNL     1      -2.924   3.871 -32.401  1.00  0.00     0.057 A 
HETATM   34  O   UNL     1      -1.983   4.093 -31.434  1.00  0.00    -0.319 OA
HETATM   35  C   UNL     1      -1.045   4.923 -31.973  1.00  0.00     0.049 A 
HETATM   36  C   UNL     1       0.104   5.286 -31.120  1.00  0.00     0.076 C 
HETATM   37  C   UNL     1      -1.389   5.251 -33.267  1.00  0.00     0.035 A 
HETATM   38  C   UNL     1      -2.602   4.577 -33.542  1.00  0.00     0.035 A 
ENDBRANCH  31  33
ENDBRANCH  30  31
ENDBRANCH  29  30
ENDBRANCH   1  29
TORSDOF 8
ENDMDL
MODEL 7
REMARK VINA RESULT:      -9.0      2.531      8.661
REMARK  8 active torsions:
REMARK  status: ('A' for Active; 'I' for Inactive)
REMARK    1  A    between atoms: C_4  and  C_5 
REMARK    2  A    between atoms: C_5  and  C_6 
REMARK    3  A    between atoms: C_6  and  C_7 
REMARK    4  A    between atoms: C_7  and  N_8 
REMARK    5  A    between atoms: C_17  and  C_18 
REMARK    6  A    between atoms: C_18  and  N_19 
REMARK    7  A    between atoms: C_23  and  O_24 
REMARK    8  A    between atoms: C_23  and  C_25 
ROOT
HETATM    1  N   UNL     1      -3.229   3.613 -32.603  1.00  0.00    -0.065 N 
HETATM    2  H   UNL     1      -2.596   3.372 -33.377  1.00  0.00     0.280 HD
HETATM    3  C   UNL     1      -4.548   3.943 -33.275  1.00  0.00     0.276 C 
HETATM    4  C   UNL     1      -5.701   4.207 -32.347  1.00  0.00     0.001 A 
HETATM    5  C   UNL     1      -5.658   5.281 -31.456  1.00  0.00     0.076 A 
HETATM    6  O   UNL     1      -4.587   6.129 -31.423  1.00  0.00    -0.349 OA
HETATM    7  C   UNL     1      -3.421   5.496 -30.881  1.00  0.00     0.203 C 
HETATM    8  C   UNL     1      -2.576   4.849 -31.983  1.00  0.00     0.261 C 
HETATM    9  C   UNL     1      -6.865   3.416 -32.385  1.00  0.00     0.020 A 
HETATM   10  C   UNL     1      -7.964   3.688 -31.543  1.00  0.00    -0.032 A 
HETATM   11  C   UNL     1      -7.883   4.774 -30.660  1.00  0.00     0.011 A 
HETATM   12  C   UNL     1      -6.741   5.576 -30.631  1.00  0.00     0.038 A 
ENDROOT
BRANCH  10  13
HETATM   13  C   UNL     1      -9.202   2.823 -31.598  1.00  0.00     0.273 C 
BRANCH  13  14
HETATM   14  N   UNL     1      -9.783   2.604 -32.985  1.00  0.00    -0.067 N 
HETATM   15  H   UNL     1      -8.986   2.589 -33.639  1.00  0.00     0.280 HD
HETATM   16  C   UNL     1     -10.498   1.281 -33.129  1.00  0.00     0.238 C 
HETATM   17  C   UNL     1     -11.046   1.142 -34.538  1.00  0.00     0.071 C 
HETATM   18  C   UNL     1     -12.052   2.261 -34.871  1.00  0.00     0.089 C 
HETATM   19  C   UNL     1     -11.278   3.588 -34.740  1.00  0.00     0.071 C 
HETATM   20  C   UNL     1     -10.654   3.784 -33.367  1.00  0.00     0.238 C 
BRANCH  18  21
HETATM   21  O   UNL     1     -12.370   2.119 -36.256  1.00  0.00    -0.385 OA
HETATM   22  H   UNL     1     -11.939   2.823 -36.776  1.00  0.00     0.211 HD
ENDBRANCH  18  21
BRANCH  18  23
HETATM   23  C   UNL     1     -13.343   2.147 -34.069  1.00  0.00    -0.006 A 
HETATM   24  C   UNL     1     -14.298   1.156 -34.290  1.00  0.00     0.126 A 
HETATM   25  N   UNL     1     -15.486   1.079 -33.656  1.00  0.00    -0.272 NA
HETATM   26  C   UNL     1     -15.728   1.972 -32.677  1.00  0.00     0.116 A 
HETATM   27  C   UNL     1     -14.830   2.958 -32.320  1.00  0.00     0.020 A 
HETATM   28  C   UNL     1     -13.628   3.040 -33.021  1.00  0.00     0.013 A 
ENDBRANCH  18  23
ENDBRANCH  13  14
ENDBRANCH  10  13
BRANCH   1  29
HETATM   29  C   UNL     1      -3.227   2.420 -31.669  1.00  0.00     0.236 C 
BRANCH  29  30
HETATM   30  C   UNL     1      -3.585   1.100 -32.348  1.00  0.00     0.039 C 
BRANCH  30  31
HETATM   31  C   UNL     1      -4.539   0.175 -31.571  1.00  0.00     0.040 C 
HETATM   32  C   UNL     1      -5.243   0.907 -30.428  1.00  0.00     0.017 C 
BRANCH  31  33
HETATM   33  C   UNL     1      -5.507  -0.444 -32.526  1.00  0.00     0.057 A 
HETATM   34  O   UNL     1      -5.009  -1.471 -33.281  1.00  0.00    -0.319 OA
HETATM   35  C   UNL     1      -6.027  -1.913 -34.074  1.00  0.00     0.049 A 
HETATM   36  C   UNL     1      -5.740  -3.053 -34.967  1.00  0.00     0.076 C 
HETATM   37  C   UNL     1      -7.162  -1.164 -33.849  1.00  0.00     0.035 A 
HETATM   38  C   UNL     1      -6.826  -0.215 -32.856  1.00  0.00     0.035 A 
ENDBRANCH  31  33
ENDBRANCH  30  31
ENDBRANCH  29  30
ENDBRANCH   1  29
TORSDOF 8
ENDMDL
MODEL 8
REMARK VINA RESULT:      -8.9      1.725      4.947
REMARK  8 active torsions:
REMARK  status: ('A' for Active; 'I' for Inactive)
REMARK    1  A    between atoms: C_4  and  C_5 
REMARK    2  A    between atoms: C_5  and  C_6 
REMARK    3  A    between atoms: C_6  and  C_7 
REMARK    4  A    between atoms: C_7  and  N_8 
REMARK    5  A    between atoms: C_17  and  C_18 
REMARK    6  A    between atoms: C_18  and  N_19 
REMARK    7  A    between atoms: C_23  and  O_24 
REMARK    8  A    between atoms: C_23  and  C_25 
ROOT
HETATM    1  N   UNL     1      -7.820  -0.224 -34.299  1.00  0.00    -0.065 N 
HETATM    2  H   UNL     1      -8.545  -0.065 -35.009  1.00  0.00     0.280 HD
HETATM    3  C   UNL     1      -6.768   0.832 -34.583  1.00  0.00     0.276 C 
HETATM    4  C   UNL     1      -5.639   0.906 -33.592  1.00  0.00     0.001 A 
HETATM    5  C   UNL     1      -4.783  -0.183 -33.413  1.00  0.00     0.076 A 
HETATM    6  O   UNL     1      -4.933  -1.325 -34.148  1.00  0.00    -0.349 OA
HETATM    7  C   UNL     1      -6.109  -2.053 -33.772  1.00  0.00     0.203 C 
HETATM    8  C   UNL     1      -7.317  -1.633 -34.615  1.00  0.00     0.261 C 
HETATM    9  C   UNL     1      -5.386   2.082 -32.860  1.00  0.00     0.020 A 
HETATM   10  C   UNL     1      -4.302   2.166 -31.961  1.00  0.00    -0.032 A 
HETATM   11  C   UNL     1      -3.466   1.052 -31.807  1.00  0.00     0.011 A 
HETATM   12  C   UNL     1      -3.698  -0.111 -32.544  1.00  0.00     0.038 A 
ENDROOT
BRANCH  10  13
HETATM   13  C   UNL     1      -4.052   3.437 -31.183  1.00  0.00     0.273 C 
BRANCH  13  14
HETATM   14  N   UNL     1      -3.577   4.623 -32.006  1.00  0.00    -0.067 N 
HETATM   15  H   UNL     1      -4.015   4.531 -32.934  1.00  0.00     0.280 HD
HETATM   16  C   UNL     1      -4.014   5.954 -31.440  1.00  0.00     0.238 C 
HETATM   17  C   UNL     1      -3.502   7.081 -32.319  1.00  0.00     0.071 C 
HETATM   18  C   UNL     1      -1.963   7.085 -32.400  1.00  0.00     0.089 C 
HETATM   19  C   UNL     1      -1.560   5.726 -33.006  1.00  0.00     0.071 C 
HETATM   20  C   UNL     1      -2.078   4.539 -32.208  1.00  0.00     0.238 C 
BRANCH  18  21
HETATM   21  O   UNL     1      -1.612   8.075 -33.368  1.00  0.00    -0.385 OA
HETATM   22  H   UNL     1      -0.666   8.302 -33.291  1.00  0.00     0.211 HD
ENDBRANCH  18  21
BRANCH  18  23
HETATM   23  C   UNL     1      -1.307   7.458 -31.075  1.00  0.00    -0.006 A 
HETATM   24  C   UNL     1      -1.877   8.343 -30.161  1.00  0.00     0.126 A 
HETATM   25  N   UNL     1      -1.284   8.758 -29.021  1.00  0.00    -0.272 NA
HETATM   26  C   UNL     1      -0.095   8.209 -28.703  1.00  0.00     0.116 A 
HETATM   27  C   UNL     1       0.536   7.270 -29.496  1.00  0.00     0.020 A 
HETATM   28  C   UNL     1      -0.080   6.892 -30.687  1.00  0.00     0.013 A 
ENDBRANCH  18  23
ENDBRANCH  13  14
ENDBRANCH  10  13
BRANCH   1  29
HETATM   29  C   UNL     1      -8.516  -0.139 -32.956  1.00  0.00     0.236 C 
BRANCH  29  30
HETATM   30  C   UNL     1      -9.991   0.244 -33.046  1.00  0.00     0.039 C 
BRANCH  30  31
HETATM   31  C   UNL     1     -10.296   1.637 -33.626  1.00  0.00     0.040 C 
HETATM   32  C   UNL     1     -11.796   1.931 -33.653  1.00  0.00     0.017 C 
BRANCH  31  33
HETATM   33  C   UNL     1      -9.532   2.665 -32.856  1.00  0.00     0.057 A 
HETATM   34  O   UNL     1      -8.730   3.482 -33.604  1.00  0.00    -0.319 OA
HETATM   35  C   UNL     1      -8.131   4.352 -32.741  1.00  0.00     0.049 A 
HETATM   36  C   UNL     1      -7.230   5.366 -33.324  1.00  0.00     0.076 C 
HETATM   37  C   UNL     1      -8.525   4.084 -31.448  1.00  0.00     0.035 A 
HETATM   38  C   UNL     1      -9.424   2.994 -31.520  1.00  0.00     0.035 A 
ENDBRANCH  31  33
ENDBRANCH  30  31
ENDBRANCH  29  30
ENDBRANCH   1  29
TORSDOF 8
ENDMDL
MODEL 9
REMARK VINA RESULT:      -8.9      1.754      2.518
REMARK  8 active torsions:
REMARK  status: ('A' for Active; 'I' for Inactive)
REMARK    1  A    between atoms: C_4  and  C_5 
REMARK    2  A    between atoms: C_5  and  C_6 
REMARK    3  A    between atoms: C_6  and  C_7 
REMARK    4  A    between atoms: C_7  and  N_8 
REMARK    5  A    between atoms: C_17  and  C_18 
REMARK    6  A    between atoms: C_18  and  N_19 
REMARK    7  A    between atoms: C_23  and  O_24 
REMARK    8  A    between atoms: C_23  and  C_25 
ROOT
HETATM    1  N   UNL     1      -8.771   0.445 -33.254  1.00  0.00    -0.065 N 
HETATM    2  H   UNL     1      -8.841  -0.581 -33.258  1.00  0.00     0.280 HD
HETATM    3  C   UNL     1      -8.314   0.792 -31.850  1.00  0.00     0.276 C 
HETATM    4  C   UNL     1      -8.004   2.244 -31.610  1.00  0.00     0.001 A 
HETATM    5  C   UNL     1      -9.004   3.210 -31.737  1.00  0.00     0.076 A 
HETATM    6  O   UNL     1     -10.285   2.861 -32.056  1.00  0.00    -0.349 OA
HETATM    7  C   UNL     1     -10.396   2.415 -33.413  1.00  0.00     0.203 C 
HETATM    8  C   UNL     1     -10.208   0.899 -33.518  1.00  0.00     0.261 C 
HETATM    9  C   UNL     1      -6.721   2.659 -31.204  1.00  0.00     0.020 A 
HETATM   10  C   UNL     1      -6.440   4.016 -30.938  1.00  0.00    -0.032 A 
HETATM   11  C   UNL     1      -7.469   4.957 -31.079  1.00  0.00     0.011 A 
HETATM   12  C   UNL     1      -8.749   4.551 -31.461  1.00  0.00     0.038 A 
ENDROOT
BRANCH  10  13
HETATM   13  C   UNL     1      -5.055   4.439 -30.508  1.00  0.00     0.273 C 
BRANCH  13  14
HETATM   14  N   UNL     1      -4.417   5.532 -31.350  1.00  0.00    -0.067 N 
HETATM   15  H   UNL     1      -4.984   5.612 -32.206  1.00  0.00     0.280 HD
HETATM   16  C   UNL     1      -4.431   6.886 -30.680  1.00  0.00     0.238 C 
HETATM   17  C   UNL     1      -3.779   7.915 -31.584  1.00  0.00     0.071 C 
HETATM   18  C   UNL     1      -2.311   7.556 -31.890  1.00  0.00     0.089 C 
HETATM   19  C   UNL     1      -2.342   6.186 -32.596  1.00  0.00     0.071 C 
HETATM   20  C   UNL     1      -3.026   5.104 -31.772  1.00  0.00     0.238 C 
BRANCH  18  21
HETATM   21  O   UNL     1      -1.860   8.498 -32.864  1.00  0.00    -0.385 OA
HETATM   22  H   UNL     1      -2.605   8.788 -33.424  1.00  0.00     0.211 HD
ENDBRANCH  18  21
BRANCH  18  23
HETATM   23  C   UNL     1      -1.412   7.667 -30.663  1.00  0.00    -0.006 A 
HETATM   24  C   UNL     1      -1.657   8.549 -29.612  1.00  0.00     0.126 A 
HETATM   25  N   UNL     1      -0.838   8.731 -28.555  1.00  0.00    -0.272 NA
HETATM   26  C   UNL     1       0.250   7.941 -28.469  1.00  0.00     0.116 A 
HETATM   27  C   UNL     1       0.561   6.983 -29.414  1.00  0.00     0.020 A 
HETATM   28  C   UNL     1      -0.281   6.846 -30.515  1.00  0.00     0.013 A 
ENDBRANCH  18  23
ENDBRANCH  13  14
ENDBRANCH  10  13
BRANCH   1  29
HETATM   29  C   UNL     1      -7.826   0.810 -34.381  1.00  0.00     0.236 C 
BRANCH  29  30
HETATM   30  C   UNL     1      -7.092  -0.385 -34.985  1.00  0.00     0.039 C 
BRANCH  30  31
HETATM   31  C   UNL     1      -6.723  -1.518 -34.010  1.00  0.00     0.040 C 
HETATM   32  C   UNL     1      -6.790  -2.893 -34.676  1.00  0.00     0.017 C 
BRANCH  31  33
HETATM   33  C   UNL     1      -5.378  -1.239 -33.423  1.00  0.00     0.057 A 
HETATM   34  O   UNL     1      -5.131   0.072 -33.121  1.00  0.00    -0.319 OA
HETATM   35  C   UNL     1      -3.875   0.129 -32.590  1.00  0.00     0.049 A 
HETATM   36  C   UNL     1      -3.388   1.452 -32.151  1.00  0.00     0.076 C 
HETATM   37  C   UNL     1      -3.310  -1.128 -32.572  1.00  0.00     0.035 A 
HETATM   38  C   UNL     1      -4.276  -2.009 -33.113  1.00  0.00     0.035 A 
ENDBRANCH  31  33
ENDBRANCH  30  31
ENDBRANCH  29  30
ENDBRANCH   1  29
TORSDOF 8
ENDMDL
MODEL 10
REMARK VINA RESULT:      -8.8      2.534      8.981
REMARK  8 active torsions:
REMARK  status: ('A' for Active; 'I' for Inactive)
REMARK    1  A    between atoms: C_4  and  C_5 
REMARK    2  A    between atoms: C_5  and  C_6 
REMARK    3  A    between atoms: C_6  and  C_7 
REMARK    4  A    between atoms: C_7  and  N_8 
REMARK    5  A    between atoms: C_17  and  C_18 
REMARK    6  A    between atoms: C_18  and  N_19 
REMARK    7  A    between atoms: C_23  and  O_24 
REMARK    8  A    between atoms: C_23  and  C_25 
ROOT
HETATM    1  N   UNL     1      -1.901   8.790 -30.103  1.00  0.00    -0.065 N 
HETATM    2  H   UNL     1      -1.153   9.367 -30.508  1.00  0.00     0.280 HD
HETATM    3  C   UNL     1      -3.034   8.872 -31.108  1.00  0.00     0.276 C 
HETATM    4  C   UNL     1      -4.223   7.998 -30.817  1.00  0.00     0.001 A 
HETATM    5  C   UNL     1      -4.974   8.191 -29.656  1.00  0.00     0.076 A 
HETATM    6  O   UNL     1      -4.666   9.188 -28.774  1.00  0.00    -0.349 OA
HETATM    7  C   UNL     1      -3.448   8.920 -28.068  1.00  0.00     0.203 C 
HETATM    8  C   UNL     1      -2.239   9.513 -28.798  1.00  0.00     0.261 C 
HETATM    9  C   UNL     1      -4.638   7.004 -31.723  1.00  0.00     0.020 A 
HETATM   10  C   UNL     1      -5.778   6.212 -31.471  1.00  0.00    -0.032 A 
HETATM   11  C   UNL     1      -6.505   6.433 -30.294  1.00  0.00     0.011 A 
HETATM   12  C   UNL     1      -6.112   7.432 -29.400  1.00  0.00     0.038 A 
ENDROOT
BRANCH  10  13
HETATM   13  C   UNL     1      -6.202   5.147 -32.456  1.00  0.00     0.273 C 
BRANCH  13  14
HETATM   14  N   UNL     1      -7.214   4.141 -31.933  1.00  0.00    -0.067 N 
HETATM   15  H   UNL     1      -7.756   4.623 -31.200  1.00  0.00     0.280 HD
HETATM   16  C   UNL     1      -8.198   3.685 -32.984  1.00  0.00     0.238 C 
HETATM   17  C   UNL     1      -9.170   2.686 -32.381  1.00  0.00     0.071 C 
HETATM   18  C   UNL     1      -8.442   1.439 -31.842  1.00  0.00     0.089 C 
HETATM   19  C   UNL     1      -7.471   1.942 -30.757  1.00  0.00     0.071 C 
HETATM   20  C   UNL     1      -6.490   2.987 -31.270  1.00  0.00     0.238 C 
BRANCH  18  21
HETATM   21  O   UNL     1      -9.428   0.658 -31.165  1.00  0.00    -0.385 OA
HETATM   22  H   UNL     1      -9.900   0.086 -31.800  1.00  0.00     0.211 HD
ENDBRANCH  18  21
BRANCH  18  23
HETATM   23  C   UNL     1      -7.837   0.588 -32.953  1.00  0.00    -0.006 A 
HETATM   24  C   UNL     1      -8.239   0.668 -34.285  1.00  0.00     0.126 A 
HETATM   25  N   UNL     1      -7.783  -0.129 -35.274  1.00  0.00    -0.272 NA
HETATM   26  C   UNL     1      -6.807  -1.005 -34.967  1.00  0.00     0.116 A 
HETATM   27  C   UNL     1      -6.279  -1.128 -33.697  1.00  0.00     0.020 A 
HETATM   28  C   UNL     1      -6.798  -0.321 -32.686  1.00  0.00     0.013 A 
ENDBRANCH  18  23
ENDBRANCH  13  14
ENDBRANCH  10  13
BRANCH   1  29
HETATM   29  C   UNL     1      -1.300   7.418 -29.872  1.00  0.00     0.236 C 
BRANCH  29  30
HETATM   30  C   UNL     1       0.082   7.234 -30.495  1.00  0.00     0.039 C 
BRANCH  30  31
HETATM   31  C   UNL     1       0.408   5.823 -31.016  1.00  0.00     0.040 C 
HETATM   32  C   UNL     1       0.605   4.823 -29.876  1.00  0.00     0.017 C 
BRANCH  31  33
HETATM   33  C   UNL     1      -0.662   5.393 -31.966  1.00  0.00     0.057 A 
HETATM   34  O   UNL     1      -1.382   4.296 -31.581  1.00  0.00    -0.319 OA
HETATM   35  C   UNL     1      -2.309   4.065 -32.555  1.00  0.00     0.049 A 
HETATM   36  C   UNL     1      -3.237   2.936 -32.348  1.00  0.00     0.076 C 
HETATM   37  C   UNL     1      -2.173   4.989 -33.568  1.00  0.00     0.035 A 
HETATM   38  C   UNL     1      -1.109   5.843 -33.192  1.00  0.00     0.035 A 
ENDBRANCH  31  33
ENDBRANCH  30  31
ENDBRANCH  29  30
ENDBRANCH   1  29
TORSDOF 8
ENDMDL
