MODEL 1
REMARK VINA RESULT:      -9.1      0.000      0.000
REMARK  3 active torsions:
REMARK  status: ('A' for Active; 'I' for Inactive)
REMARK    1  A    between atoms: C_9  and  C_10 
REMARK       I    between atoms: C_10  and  N_11 
REMARK    2  A    between atoms: N_11  and  C_12 
REMARK    3  A    between atoms: C_14  and  C_15 
ROOT
HETATM    1  C   UNL     1      -6.848   3.860 -32.575  1.00  0.00     0.277 C 
HETATM    2  N   UNL     1      -7.430   2.722 -33.072  1.00  0.00    -0.322 N 
HETATM    3  O   UNL     1      -7.544   4.860 -32.403  1.00  0.00    -0.266 OA
HETATM    4  H   UNL     1      -8.416   2.907 -33.227  1.00  0.00     0.169 HD
ENDROOT
BRANCH   1   5
HETATM    5  C   UNL     1      -5.398   3.967 -32.172  1.00  0.00     0.156 A 
HETATM    6  C   UNL     1      -4.416   4.450 -33.172  1.00  0.00     0.016 A 
HETATM    7  C   UNL     1      -4.773   4.883 -34.455  1.00  0.00     0.015 A 
HETATM    8  C   UNL     1      -3.069   4.395 -32.819  1.00  0.00     0.046 A 
HETATM    9  C   UNL     1      -3.782   5.228 -35.379  1.00  0.00     0.001 A 
HETATM   10  C   UNL     1      -2.435   5.156 -35.025  1.00  0.00     0.001 A 
HETATM   11  C   UNL     1      -2.076   4.747 -33.742  1.00  0.00     0.018 A 
HETATM   12  C   UNL     1      -2.701   3.939 -31.468  1.00  0.00     0.272 A 
HETATM   13  O   UNL     1      -1.533   3.924 -31.094  1.00  0.00    -0.266 OA
HETATM   14  N   UNL     1      -3.738   3.542 -30.657  1.00  0.00    -0.242 N 
HETATM   15  N   UNL     1      -5.058   3.512 -30.999  1.00  0.00    -0.166 NA
HETATM   16  H   UNL     1      -3.498   3.178 -29.741  1.00  0.00     0.192 HD
ENDBRANCH   1   5
BRANCH   2  17
HETATM   17  C   UNL     1      -6.995   1.456 -33.498  1.00  0.00     0.035 A 
HETATM   18  C   UNL     1      -6.062   0.639 -32.858  1.00  0.00     0.042 A 
HETATM   19  C   UNL     1      -5.621  -0.569 -33.445  1.00  0.00    -0.021 A 
HETATM   20  C   UNL     1      -6.183  -0.969 -34.665  1.00  0.00     0.012 A 
HETATM   21  C   UNL     1      -7.146  -0.185 -35.294  1.00  0.00     0.003 A 
HETATM   22  C   UNL     1      -7.541   1.018 -34.715  1.00  0.00     0.029 A 
BRANCH  19  23
HETATM   23  C   UNL     1      -4.574  -1.388 -32.836  1.00  0.00     0.010 A 
HETATM   24  C   UNL     1      -4.167  -2.721 -33.108  1.00  0.00     0.152 A 
HETATM   25  N   UNL     1      -3.137  -3.120 -32.358  1.00  0.00    -0.187 NA
HETATM   26  N   UNL     1      -2.867  -2.044 -31.606  1.00  0.00    -0.289 N 
HETATM   27  H   UNL     1      -2.096  -2.099 -30.947  1.00  0.00     0.188 HD
HETATM   28  C   UNL     1      -3.696  -0.987 -31.850  1.00  0.00     0.123 A 
ENDBRANCH  19  23
ENDBRANCH   2  17
TORSDOF 3
ENDMDL
MODEL 2
REMARK VINA RESULT:      -8.8      2.373      6.134
REMARK  3 active torsions:
REMARK  status: ('A' for Active; 'I' for Inactive)
REMARK    1  A    between atoms: C_9  and  C_10 
REMARK       I    between atoms: C_10  and  N_11 
REMARK    2  A    between atoms: N_11  and  C_12 
REMARK    3  A    between atoms: C_14  and  C_15 
ROOT
HETATM    1  C   UNL     1      -6.194   2.210 -32.080  1.00  0.00     0.277 C 
HETATM    2  N   UNL     1      -5.920   3.447 -32.602  1.00  0.00    -0.322 N 
HETATM    3  O   UNL     1      -7.307   1.999 -31.597  1.00  0.00    -0.266 OA
HETATM    4  H   UNL     1      -6.744   4.031 -32.496  1.00  0.00     0.169 HD
ENDROOT
BRANCH   1   5
HETATM    5  C   UNL     1      -5.231   1.047 -32.094  1.00  0.00     0.156 A 
HETATM    6  C   UNL     1      -5.431  -0.028 -33.095  1.00  0.00     0.016 A 
HETATM    7  C   UNL     1      -6.427   0.012 -34.079  1.00  0.00     0.015 A 
HETATM    8  C   UNL     1      -4.620  -1.156 -32.987  1.00  0.00     0.046 A 
HETATM    9  C   UNL     1      -6.620  -1.086 -34.924  1.00  0.00     0.001 A 
HETATM   10  C   UNL     1      -5.816  -2.219 -34.800  1.00  0.00     0.001 A 
HETATM   11  C   UNL     1      -4.810  -2.254 -33.837  1.00  0.00     0.018 A 
HETATM   12  C   UNL     1      -3.576  -1.190 -31.950  1.00  0.00     0.272 A 
HETATM   13  O   UNL     1      -2.804  -2.138 -31.849  1.00  0.00    -0.266 OA
HETATM   14  N   UNL     1      -3.515  -0.100 -31.113  1.00  0.00    -0.242 N 
HETATM   15  N   UNL     1      -4.341   0.984 -31.145  1.00  0.00    -0.166 NA
HETATM   16  H   UNL     1      -2.833  -0.130 -30.362  1.00  0.00     0.192 HD
ENDBRANCH   1   5
BRANCH   2  17
HETATM   17  C   UNL     1      -4.795   4.107 -33.126  1.00  0.00     0.035 A 
HETATM   18  C   UNL     1      -3.639   4.461 -32.429  1.00  0.00     0.042 A 
HETATM   19  C   UNL     1      -2.620   5.224 -33.041  1.00  0.00    -0.021 A 
HETATM   20  C   UNL     1      -2.760   5.576 -34.391  1.00  0.00     0.012 A 
HETATM   21  C   UNL     1      -3.887   5.193 -35.110  1.00  0.00     0.003 A 
HETATM   22  C   UNL     1      -4.896   4.470 -34.478  1.00  0.00     0.029 A 
BRANCH  19  23
HETATM   23  C   UNL     1      -1.448   5.687 -32.299  1.00  0.00     0.010 A 
HETATM   24  C   UNL     1      -0.706   5.064 -31.261  1.00  0.00     0.152 A 
HETATM   25  N   UNL     1       0.336   5.791 -30.850  1.00  0.00    -0.187 NA
HETATM   26  N   UNL     1       0.278   6.882 -31.626  1.00  0.00    -0.289 N 
HETATM   27  H   UNL     1       0.989   7.596 -31.507  1.00  0.00     0.188 HD
HETATM   28  C   UNL     1      -0.769   6.870 -32.504  1.00  0.00     0.123 A 
ENDBRANCH  19  23
ENDBRANCH   2  17
TORSDOF 3
ENDMDL
MODEL 3
REMARK VINA RESULT:      -8.7      2.549      3.307
REMARK  3 active torsions:
REMARK  status: ('A' for Active; 'I' for Inactive)
REMARK    1  A    between atoms: C_9  and  C_10 
REMARK       I    between atoms: C_10  and  N_11 
REMARK    2  A    between atoms: N_11  and  C_12 
REMARK    3  A    between atoms: C_14  and  C_15 
ROOT
HETATM    1  C   UNL     1      -6.379   4.441 -33.917  1.00  0.00     0.277 C 
HETATM    2  N   UNL     1      -6.627   3.132 -33.595  1.00  0.00    -0.322 N 
HETATM    3  O   UNL     1      -7.330   5.194 -34.130  1.00  0.00    -0.266 OA
HETATM    4  H   UNL     1      -7.632   2.988 -33.584  1.00  0.00     0.169 HD
ENDROOT
BRANCH   1   5
HETATM    5  C   UNL     1      -5.002   5.055 -33.986  1.00  0.00     0.156 A 
HETATM    6  C   UNL     1      -4.463   5.726 -32.779  1.00  0.00     0.016 A 
HETATM    7  C   UNL     1      -5.135   5.760 -31.551  1.00  0.00     0.015 A 
HETATM    8  C   UNL     1      -3.257   6.412 -32.918  1.00  0.00     0.046 A 
HETATM    9  C   UNL     1      -4.611   6.500 -30.486  1.00  0.00     0.001 A 
HETATM   10  C   UNL     1      -3.413   7.196 -30.636  1.00  0.00     0.001 A 
HETATM   11  C   UNL     1      -2.729   7.148 -31.850  1.00  0.00     0.018 A 
HETATM   12  C   UNL     1      -2.556   6.372 -34.212  1.00  0.00     0.272 A 
HETATM   13  O   UNL     1      -1.468   6.915 -34.368  1.00  0.00    -0.266 OA
HETATM   14  N   UNL     1      -3.188   5.689 -35.225  1.00  0.00    -0.242 N 
HETATM   15  N   UNL     1      -4.402   5.073 -35.142  1.00  0.00    -0.166 NA
HETATM   16  H   UNL     1      -2.743   5.693 -36.137  1.00  0.00     0.192 HD
ENDBRANCH   1   5
BRANCH   2  17
HETATM   17  C   UNL     1      -5.864   1.970 -33.390  1.00  0.00     0.035 A 
HETATM   18  C   UNL     1      -6.097   0.713 -33.950  1.00  0.00     0.042 A 
HETATM   19  C   UNL     1      -5.323  -0.409 -33.579  1.00  0.00    -0.021 A 
HETATM   20  C   UNL     1      -4.267  -0.230 -32.674  1.00  0.00     0.012 A 
HETATM   21  C   UNL     1      -3.996   1.026 -32.140  1.00  0.00     0.003 A 
HETATM   22  C   UNL     1      -4.793   2.112 -32.493  1.00  0.00     0.029 A 
BRANCH  19  23
HETATM   23  C   UNL     1      -5.615  -1.751 -34.081  1.00  0.00     0.010 A 
HETATM   24  C   UNL     1      -6.844  -2.345 -34.469  1.00  0.00     0.152 A 
HETATM   25  N   UNL     1      -6.706  -3.597 -34.914  1.00  0.00    -0.187 NA
HETATM   26  N   UNL     1      -5.387  -3.813 -34.825  1.00  0.00    -0.289 N 
HETATM   27  H   UNL     1      -5.026  -4.713 -35.124  1.00  0.00     0.188 HD
HETATM   28  C   UNL     1      -4.692  -2.746 -34.332  1.00  0.00     0.123 A 
ENDBRANCH  19  23
ENDBRANCH   2  17
TORSDOF 3
ENDMDL
MODEL 4
REMARK VINA RESULT:      -8.6      2.697      6.413
REMARK  3 active torsions:
REMARK  status: ('A' for Active; 'I' for Inactive)
REMARK    1  A    between atoms: C_9  and  C_10 
REMARK       I    between atoms: C_10  and  N_11 
REMARK    2  A    between atoms: N_11  and  C_12 
REMARK    3  A    between atoms: C_14  and  C_15 
ROOT
HETATM    1  C   UNL     1      -5.408   1.071 -30.545  1.00  0.00     0.277 C 
HETATM    2  N   UNL     1      -5.526   2.390 -30.898  1.00  0.00    -0.322 N 
HETATM    3  O   UNL     1      -5.792   0.714 -29.431  1.00  0.00    -0.266 OA
HETATM    4  H   UNL     1      -5.943   2.895 -30.121  1.00  0.00     0.169 HD
ENDROOT
BRANCH   1   5
HETATM    5  C   UNL     1      -4.876  -0.009 -31.456  1.00  0.00     0.156 A 
HETATM    6  C   UNL     1      -5.745  -0.510 -32.547  1.00  0.00     0.016 A 
HETATM    7  C   UNL     1      -7.013   0.016 -32.825  1.00  0.00     0.015 A 
HETATM    8  C   UNL     1      -5.286  -1.608 -33.273  1.00  0.00     0.046 A 
HETATM    9  C   UNL     1      -7.818  -0.576 -33.804  1.00  0.00     0.001 A 
HETATM   10  C   UNL     1      -7.359  -1.683 -34.515  1.00  0.00     0.001 A 
HETATM   11  C   UNL     1      -6.089  -2.197 -34.258  1.00  0.00     0.018 A 
HETATM   12  C   UNL     1      -3.952  -2.155 -32.975  1.00  0.00     0.272 A 
HETATM   13  O   UNL     1      -3.483  -3.086 -33.621  1.00  0.00    -0.266 OA
HETATM   14  N   UNL     1      -3.268  -1.560 -31.941  1.00  0.00    -0.242 N 
HETATM   15  N   UNL     1      -3.721  -0.536 -31.163  1.00  0.00    -0.166 NA
HETATM   16  H   UNL     1      -2.369  -1.957 -31.690  1.00  0.00     0.192 HD
ENDBRANCH   1   5
BRANCH   2  17
HETATM   17  C   UNL     1      -5.132   3.197 -31.979  1.00  0.00     0.035 A 
HETATM   18  C   UNL     1      -3.980   3.982 -32.054  1.00  0.00     0.042 A 
HETATM   19  C   UNL     1      -3.749   4.840 -33.153  1.00  0.00    -0.021 A 
HETATM   20  C   UNL     1      -4.673   4.848 -34.207  1.00  0.00     0.012 A 
HETATM   21  C   UNL     1      -5.803   4.038 -34.166  1.00  0.00     0.003 A 
HETATM   22  C   UNL     1      -6.030   3.226 -33.057  1.00  0.00     0.029 A 
BRANCH  19  23
HETATM   23  C   UNL     1      -2.598   5.741 -33.202  1.00  0.00     0.010 A 
HETATM   24  C   UNL     1      -2.240   6.731 -34.154  1.00  0.00     0.152 A 
HETATM   25  N   UNL     1      -1.119   7.384 -33.837  1.00  0.00    -0.187 NA
HETATM   26  N   UNL     1      -0.754   6.827 -32.674  1.00  0.00    -0.289 N 
HETATM   27  H   UNL     1       0.083   7.173 -32.217  1.00  0.00     0.188 HD
HETATM   28  C   UNL     1      -1.601   5.840 -32.254  1.00  0.00     0.123 A 
ENDBRANCH  19  23
ENDBRANCH   2  17
TORSDOF 3
ENDMDL
MODEL 5
REMARK VINA RESULT:      -8.6      1.858      2.453
REMARK  3 active torsions:
REMARK  status: ('A' for Active; 'I' for Inactive)
REMARK    1  A    between atoms: C_9  and  C_10 
REMARK       I    between atoms: C_10  and  N_11 
REMARK    2  A    between atoms: N_11  and  C_12 
REMARK    3  A    between atoms: C_14  and  C_15 
ROOT
HETATM    1  C   UNL     1      -6.181   4.732 -33.472  1.00  0.00     0.277 C 
HETATM    2  N   UNL     1      -6.827   3.543 -33.260  1.00  0.00    -0.322 N 
HETATM    3  O   UNL     1      -6.772   5.784 -33.228  1.00  0.00    -0.266 OA
HETATM    4  H   UNL     1      -7.759   3.740 -32.908  1.00  0.00     0.169 HD
ENDROOT
BRANCH   1   5
HETATM    5  C   UNL     1      -4.754   4.853 -33.950  1.00  0.00     0.156 A 
HETATM    6  C   UNL     1      -3.663   4.787 -32.949  1.00  0.00     0.016 A 
HETATM    7  C   UNL     1      -3.881   4.547 -31.586  1.00  0.00     0.015 A 
HETATM    8  C   UNL     1      -2.370   5.052 -33.399  1.00  0.00     0.046 A 
HETATM    9  C   UNL     1      -2.812   4.602 -30.685  1.00  0.00     0.001 A 
HETATM   10  C   UNL     1      -1.524   4.882 -31.140  1.00  0.00     0.001 A 
HETATM   11  C   UNL     1      -1.298   5.100 -32.498  1.00  0.00     0.018 A 
HETATM   12  C   UNL     1      -2.149   5.303 -34.832  1.00  0.00     0.272 A 
HETATM   13  O   UNL     1      -1.024   5.488 -35.284  1.00  0.00    -0.266 OA
HETATM   14  N   UNL     1      -3.271   5.311 -35.628  1.00  0.00    -0.242 N 
HETATM   15  N   UNL     1      -4.555   5.131 -35.206  1.00  0.00    -0.166 NA
HETATM   16  H   UNL     1      -3.142   5.531 -36.610  1.00  0.00     0.192 HD
ENDBRANCH   1   5
BRANCH   2  17
HETATM   17  C   UNL     1      -6.566   2.182 -33.499  1.00  0.00     0.035 A 
HETATM   18  C   UNL     1      -5.629   1.387 -32.837  1.00  0.00     0.042 A 
HETATM   19  C   UNL     1      -5.379   0.057 -33.244  1.00  0.00    -0.021 A 
HETATM   20  C   UNL     1      -6.134  -0.478 -34.297  1.00  0.00     0.012 A 
HETATM   21  C   UNL     1      -7.102   0.290 -34.938  1.00  0.00     0.003 A 
HETATM   22  C   UNL     1      -7.308   1.609 -34.543  1.00  0.00     0.029 A 
BRANCH  19  23
HETATM   23  C   UNL     1      -4.334  -0.758 -32.626  1.00  0.00     0.010 A 
HETATM   24  C   UNL     1      -4.036  -2.139 -32.765  1.00  0.00     0.152 A 
HETATM   25  N   UNL     1      -2.970  -2.520 -32.057  1.00  0.00    -0.187 NA
HETATM   26  N   UNL     1      -2.568  -1.386 -31.467  1.00  0.00    -0.289 N 
HETATM   27  H   UNL     1      -1.747  -1.418 -30.871  1.00  0.00     0.188 HD
HETATM   28  C   UNL     1      -3.349  -0.308 -31.771  1.00  0.00     0.123 A 
ENDBRANCH  19  23
ENDBRANCH   2  17
TORSDOF 3
ENDMDL
MODEL 6
REMARK VINA RESULT:      -8.6      2.091      4.467
REMARK  3 active torsions:
REMARK  status: ('A' for Active; 'I' for Inactive)
REMARK    1  A    between atoms: C_9  and  C_10 
REMARK       I    between atoms: C_10  and  N_11 
REMARK    2  A    between atoms: N_11  and  C_12 
REMARK    3  A    between atoms: C_14  and  C_15 
ROOT
HETATM    1  C   UNL     1      -3.333   0.195 -31.419  1.00  0.00     0.277 C 
HETATM    2  N   UNL     1      -3.652  -0.688 -32.417  1.00  0.00    -0.322 N 
HETATM    3  O   UNL     1      -2.228   0.116 -30.882  1.00  0.00    -0.266 OA
HETATM    4  H   UNL     1      -2.862  -1.310 -32.561  1.00  0.00     0.169 HD
ENDROOT
BRANCH   1   5
HETATM    5  C   UNL     1      -4.236   1.310 -30.949  1.00  0.00     0.156 A 
HETATM    6  C   UNL     1      -4.014   2.675 -31.483  1.00  0.00     0.016 A 
HETATM    7  C   UNL     1      -3.054   2.975 -32.457  1.00  0.00     0.015 A 
HETATM    8  C   UNL     1      -4.762   3.707 -30.919  1.00  0.00     0.046 A 
HETATM    9  C   UNL     1      -2.832   4.303 -32.837  1.00  0.00     0.001 A 
HETATM   10  C   UNL     1      -3.572   5.332 -32.258  1.00  0.00     0.001 A 
HETATM   11  C   UNL     1      -4.544   5.037 -31.303  1.00  0.00     0.018 A 
HETATM   12  C   UNL     1      -5.769   3.385 -29.895  1.00  0.00     0.272 A 
HETATM   13  O   UNL     1      -6.488   4.251 -29.408  1.00  0.00    -0.266 OA
HETATM   14  N   UNL     1      -5.859   2.063 -29.526  1.00  0.00    -0.242 N 
HETATM   15  N   UNL     1      -5.090   1.042 -30.003  1.00  0.00    -0.166 NA
HETATM   16  H   UNL     1      -6.513   1.831 -28.786  1.00  0.00     0.192 HD
ENDBRANCH   1   5
BRANCH   2  17
HETATM   17  C   UNL     1      -4.790  -0.997 -33.182  1.00  0.00     0.035 A 
HETATM   18  C   UNL     1      -5.978  -0.266 -33.237  1.00  0.00     0.042 A 
HETATM   19  C   UNL     1      -7.096  -0.740 -33.959  1.00  0.00    -0.021 A 
HETATM   20  C   UNL     1      -6.977  -1.940 -34.675  1.00  0.00     0.012 A 
HETATM   21  C   UNL     1      -5.785  -2.657 -34.664  1.00  0.00     0.003 A 
HETATM   22  C   UNL     1      -4.706  -2.190 -33.918  1.00  0.00     0.029 A 
BRANCH  19  23
HETATM   23  C   UNL     1      -8.378  -0.037 -33.948  1.00  0.00     0.010 A 
HETATM   24  C   UNL     1      -9.454  -0.090 -33.024  1.00  0.00     0.152 A 
HETATM   25  N   UNL     1     -10.458   0.733 -33.336  1.00  0.00    -0.187 NA
HETATM   26  N   UNL     1     -10.031   1.330 -34.458  1.00  0.00    -0.289 N 
HETATM   27  H   UNL     1     -10.630   2.024 -34.891  1.00  0.00     0.188 HD
HETATM   28  C   UNL     1      -8.799   0.903 -34.866  1.00  0.00     0.123 A 
ENDBRANCH  19  23
ENDBRANCH   2  17
TORSDOF 3
ENDMDL
MODEL 7
REMARK VINA RESULT:      -8.5      2.638      6.090
REMARK  3 active torsions:
REMARK  status: ('A' for Active; 'I' for Inactive)
REMARK    1  A    between atoms: C_9  and  C_10 
REMARK       I    between atoms: C_10  and  N_11 
REMARK    2  A    between atoms: N_11  and  C_12 
REMARK    3  A    between atoms: C_14  and  C_15 
ROOT
HETATM    1  C   UNL     1      -6.516   4.326 -33.780  1.00  0.00     0.277 C 
HETATM    2  N   UNL     1      -5.439   5.063 -34.198  1.00  0.00    -0.322 N 
HETATM    3  O   UNL     1      -7.640   4.634 -34.177  1.00  0.00    -0.266 OA
HETATM    4  H   UNL     1      -5.771   5.799 -34.814  1.00  0.00     0.169 HD
ENDROOT
BRANCH   1   5
HETATM    5  C   UNL     1      -6.421   3.112 -32.889  1.00  0.00     0.156 A 
HETATM    6  C   UNL     1      -6.596   1.770 -33.495  1.00  0.00     0.016 A 
HETATM    7  C   UNL     1      -6.773   1.564 -34.869  1.00  0.00     0.015 A 
HETATM    8  C   UNL     1      -6.654   0.682 -32.626  1.00  0.00     0.046 A 
HETATM    9  C   UNL     1      -7.034   0.278 -35.356  1.00  0.00     0.001 A 
HETATM   10  C   UNL     1      -7.106  -0.803 -34.480  1.00  0.00     0.001 A 
HETATM   11  C   UNL     1      -6.909  -0.606 -33.114  1.00  0.00     0.018 A 
HETATM   12  C   UNL     1      -6.466   0.908 -31.184  1.00  0.00     0.272 A 
HETATM   13  O   UNL     1      -6.456  -0.024 -30.386  1.00  0.00    -0.266 OA
HETATM   14  N   UNL     1      -6.298   2.214 -30.790  1.00  0.00    -0.242 N 
HETATM   15  N   UNL     1      -6.312   3.307 -31.606  1.00  0.00    -0.166 NA
HETATM   16  H   UNL     1      -6.217   2.392 -29.794  1.00  0.00     0.192 HD
ENDBRANCH   1   5
BRANCH   2  17
HETATM   17  C   UNL     1      -4.063   5.114 -33.912  1.00  0.00     0.035 A 
HETATM   18  C   UNL     1      -3.481   5.235 -32.650  1.00  0.00     0.042 A 
HETATM   19  C   UNL     1      -2.084   5.388 -32.499  1.00  0.00    -0.021 A 
HETATM   20  C   UNL     1      -1.276   5.359 -33.644  1.00  0.00     0.012 A 
HETATM   21  C   UNL     1      -1.839   5.195 -34.906  1.00  0.00     0.003 A 
HETATM   22  C   UNL     1      -3.221   5.081 -35.035  1.00  0.00     0.029 A 
BRANCH  19  23
HETATM   23  C   UNL     1      -1.467   5.614 -31.193  1.00  0.00     0.010 A 
HETATM   24  C   UNL     1      -0.236   5.149 -30.659  1.00  0.00     0.152 A 
HETATM   25  N   UNL     1       0.006   5.599 -29.426  1.00  0.00    -0.187 NA
HETATM   26  N   UNL     1      -1.062   6.365 -29.161  1.00  0.00    -0.289 N 
HETATM   27  H   UNL     1      -1.104   6.838 -28.264  1.00  0.00     0.188 HD
HETATM   28  C   UNL     1      -1.970   6.404 -30.180  1.00  0.00     0.123 A 
ENDBRANCH  19  23
ENDBRANCH   2  17
TORSDOF 3
ENDMDL
MODEL 8
REMARK VINA RESULT:      -8.4      1.909      2.383
REMARK  3 active torsions:
REMARK  status: ('A' for Active; 'I' for Inactive)
REMARK    1  A    between atoms: C_9  and  C_10 
REMARK       I    between atoms: C_10  and  N_11 
REMARK    2  A    between atoms: N_11  and  C_12 
REMARK    3  A    between atoms: C_14  and  C_15 
ROOT
HETATM    1  C   UNL     1      -7.026   1.988 -30.811  1.00  0.00     0.277 C 
HETATM    2  N   UNL     1      -7.659   1.023 -31.549  1.00  0.00    -0.322 N 
HETATM    3  O   UNL     1      -7.578   2.426 -29.802  1.00  0.00    -0.266 OA
HETATM    4  H   UNL     1      -8.548   0.811 -31.107  1.00  0.00     0.169 HD
ENDROOT
BRANCH   1   5
HETATM    5  C   UNL     1      -5.653   2.534 -31.122  1.00  0.00     0.156 A 
HETATM    6  C   UNL     1      -5.535   3.645 -32.096  1.00  0.00     0.016 A 
HETATM    7  C   UNL     1      -6.639   4.267 -32.693  1.00  0.00     0.015 A 
HETATM    8  C   UNL     1      -4.248   4.024 -32.475  1.00  0.00     0.046 A 
HETATM    9  C   UNL     1      -6.446   5.240 -33.680  1.00  0.00     0.001 A 
HETATM   10  C   UNL     1      -5.157   5.604 -34.065  1.00  0.00     0.001 A 
HETATM   11  C   UNL     1      -4.054   5.003 -33.459  1.00  0.00     0.018 A 
HETATM   12  C   UNL     1      -3.093   3.366 -31.844  1.00  0.00     0.272 A 
HETATM   13  O   UNL     1      -1.943   3.701 -32.105  1.00  0.00    -0.266 OA
HETATM   14  N   UNL     1      -3.380   2.364 -30.946  1.00  0.00    -0.242 N 
HETATM   15  N   UNL     1      -4.625   1.919 -30.611  1.00  0.00    -0.166 NA
HETATM   16  H   UNL     1      -2.595   1.866 -30.539  1.00  0.00     0.192 HD
ENDBRANCH   1   5
BRANCH   2  17
HETATM   17  C   UNL     1      -7.437   0.361 -32.769  1.00  0.00     0.035 A 
HETATM   18  C   UNL     1      -6.960  -0.939 -32.935  1.00  0.00     0.042 A 
HETATM   19  C   UNL     1      -6.671  -1.456 -34.218  1.00  0.00    -0.021 A 
HETATM   20  C   UNL     1      -6.930  -0.656 -35.340  1.00  0.00     0.012 A 
HETATM   21  C   UNL     1      -7.447   0.627 -35.192  1.00  0.00     0.003 A 
HETATM   22  C   UNL     1      -7.691   1.130 -33.916  1.00  0.00     0.029 A 
BRANCH  19  23
HETATM   23  C   UNL     1      -6.079  -2.780 -34.404  1.00  0.00     0.010 A 
HETATM   24  C   UNL     1      -6.665  -4.004 -34.820  1.00  0.00     0.152 A 
HETATM   25  N   UNL     1      -5.786  -5.006 -34.905  1.00  0.00    -0.187 NA
HETATM   26  N   UNL     1      -4.627  -4.431 -34.555  1.00  0.00    -0.289 N 
HETATM   27  H   UNL     1      -3.788  -5.002 -34.554  1.00  0.00     0.188 HD
HETATM   28  C   UNL     1      -4.748  -3.107 -34.243  1.00  0.00     0.123 A 
ENDBRANCH  19  23
ENDBRANCH   2  17
TORSDOF 3
ENDMDL
MODEL 9
REMARK VINA RESULT:      -8.3      3.541      5.243
REMARK  3 active torsions:
REMARK  status: ('A' for Active; 'I' for Inactive)
REMARK    1  A    between atoms: C_9  and  C_10 
REMARK       I    between atoms: C_10  and  N_11 
REMARK    2  A    between atoms: N_11  and  C_12 
REMARK    3  A    between atoms: C_14  and  C_15 
ROOT
HETATM    1  C   UNL     1      -1.980   6.975 -33.283  1.00  0.00     0.277 C 
HETATM    2  N   UNL     1      -2.696   5.819 -33.453  1.00  0.00    -0.322 N 
HETATM    3  O   UNL     1      -1.507   7.536 -34.272  1.00  0.00    -0.266 OA
HETATM    4  H   UNL     1      -2.720   5.599 -34.444  1.00  0.00     0.169 HD
ENDROOT
BRANCH   1   5
HETATM    5  C   UNL     1      -1.762   7.653 -31.952  1.00  0.00     0.156 A 
HETATM    6  C   UNL     1      -0.865   7.006 -30.964  1.00  0.00     0.016 A 
HETATM    7  C   UNL     1      -0.150   5.831 -31.227  1.00  0.00     0.015 A 
HETATM    8  C   UNL     1      -0.803   7.575 -29.693  1.00  0.00     0.046 A 
HETATM    9  C   UNL     1       0.597   5.222 -30.212  1.00  0.00     0.001 A 
HETATM   10  C   UNL     1       0.642   5.788 -28.939  1.00  0.00     0.001 A 
HETATM   11  C   UNL     1      -0.050   6.969 -28.678  1.00  0.00     0.018 A 
HETATM   12  C   UNL     1      -1.557   8.809 -29.424  1.00  0.00     0.272 A 
HETATM   13  O   UNL     1      -1.492   9.376 -28.339  1.00  0.00    -0.266 OA
HETATM   14  N   UNL     1      -2.328   9.288 -30.458  1.00  0.00    -0.242 N 
HETATM   15  N   UNL     1      -2.469   8.714 -31.687  1.00  0.00    -0.166 NA
HETATM   16  H   UNL     1      -2.893  10.111 -30.274  1.00  0.00     0.192 HD
ENDBRANCH   1   5
BRANCH   2  17
HETATM   17  C   UNL     1      -3.286   4.852 -32.622  1.00  0.00     0.035 A 
HETATM   18  C   UNL     1      -3.034   3.479 -32.635  1.00  0.00     0.042 A 
HETATM   19  C   UNL     1      -3.774   2.591 -31.823  1.00  0.00    -0.021 A 
HETATM   20  C   UNL     1      -4.737   3.119 -30.951  1.00  0.00     0.012 A 
HETATM   21  C   UNL     1      -4.969   4.490 -30.897  1.00  0.00     0.003 A 
HETATM   22  C   UNL     1      -4.252   5.344 -31.730  1.00  0.00     0.029 A 
BRANCH  19  23
HETATM   23  C   UNL     1      -3.592   1.142 -31.895  1.00  0.00     0.010 A 
HETATM   24  C   UNL     1      -3.995   0.207 -32.885  1.00  0.00     0.152 A 
HETATM   25  N   UNL     1      -3.612  -1.043 -32.614  1.00  0.00    -0.187 NA
HETATM   26  N   UNL     1      -2.952  -0.921 -31.455  1.00  0.00    -0.289 N 
HETATM   27  H   UNL     1      -2.546  -1.755 -31.042  1.00  0.00     0.188 HD
HETATM   28  C   UNL     1      -2.913   0.360 -30.982  1.00  0.00     0.123 A 
ENDBRANCH  19  23
ENDBRANCH   2  17
TORSDOF 3
ENDMDL
MODEL 10
REMARK VINA RESULT:      -8.2     15.823     17.808
REMARK  3 active torsions:
REMARK  status: ('A' for Active; 'I' for Inactive)
REMARK    1  A    between atoms: C_9  and  C_10 
REMARK       I    between atoms: C_10  and  N_11 
REMARK    2  A    between atoms: N_11  and  C_12 
REMARK    3  A    between atoms: C_14  and  C_15 
ROOT
HETATM    1  C   UNL     1      -4.519 -13.618 -36.500  1.00  0.00     0.277 C 
HETATM    2  N   UNL     1      -5.496 -12.789 -36.986  1.00  0.00    -0.322 N 
HETATM    3  O   UNL     1      -4.129 -13.467 -35.342  1.00  0.00    -0.266 OA
HETATM    4  H   UNL     1      -5.758 -12.137 -36.254  1.00  0.00     0.169 HD
ENDROOT
BRANCH   1   5
HETATM    5  C   UNL     1      -3.904 -14.757 -37.277  1.00  0.00     0.156 A 
HETATM    6  C   UNL     1      -2.670 -14.499 -38.057  1.00  0.00     0.016 A 
HETATM    7  C   UNL     1      -2.000 -13.268 -38.055  1.00  0.00     0.015 A 
HETATM    8  C   UNL     1      -2.213 -15.525 -38.882  1.00  0.00     0.046 A 
HETATM    9  C   UNL     1      -0.900 -13.068 -38.896  1.00  0.00     0.001 A 
HETATM   10  C   UNL     1      -0.458 -14.094 -39.730  1.00  0.00     0.001 A 
HETATM   11  C   UNL     1      -1.107 -15.327 -39.720  1.00  0.00     0.018 A 
HETATM   12  C   UNL     1      -2.922 -16.815 -38.879  1.00  0.00     0.272 A 
HETATM   13  O   UNL     1      -2.526 -17.765 -39.547  1.00  0.00    -0.266 OA
HETATM   14  N   UNL     1      -4.040 -16.892 -38.083  1.00  0.00    -0.242 N 
HETATM   15  N   UNL     1      -4.556 -15.883 -37.324  1.00  0.00    -0.166 NA
HETATM   16  H   UNL     1      -4.569 -17.758 -38.107  1.00  0.00     0.192 HD
ENDBRANCH   1   5
BRANCH   2  17
HETATM   17  C   UNL     1      -6.119 -12.563 -38.225  1.00  0.00     0.035 A 
HETATM   18  C   UNL     1      -7.478 -12.701 -38.510  1.00  0.00     0.042 A 
HETATM   19  C   UNL     1      -7.969 -12.553 -39.826  1.00  0.00    -0.021 A 
HETATM   20  C   UNL     1      -7.072 -12.205 -40.845  1.00  0.00     0.012 A 
HETATM   21  C   UNL     1      -5.721 -12.022 -40.568  1.00  0.00     0.003 A 
HETATM   22  C   UNL     1      -5.251 -12.206 -39.270  1.00  0.00     0.029 A 
BRANCH  19  23
HETATM   23  C   UNL     1      -9.373 -12.790 -40.159  1.00  0.00     0.010 A 
HETATM   24  C   UNL     1     -10.100 -14.002 -40.295  1.00  0.00     0.152 A 
HETATM   25  N   UNL     1     -11.391 -13.813 -40.578  1.00  0.00    -0.187 NA
HETATM   26  N   UNL     1     -11.507 -12.478 -40.616  1.00  0.00    -0.289 N 
HETATM   27  H   UNL     1     -12.421 -12.081 -40.807  1.00  0.00     0.188 HD
HETATM   28  C   UNL     1     -10.333 -11.823 -40.376  1.00  0.00     0.123 A 
ENDBRANCH  19  23
ENDBRANCH   2  17
TORSDOF 3
ENDMDL
