MODEL 1
REMARK VINA RESULT:      -9.6      0.000      0.000
REMARK  6 active torsions:
REMARK  status: ('A' for Active; 'I' for Inactive)
REMARK    1  A    between atoms: C_2  and  C_3 
REMARK    2  A    between atoms: C_6  and  N_7 
REMARK    3  A    between atoms: C_8  and  O_9 
REMARK    4  A    between atoms: C_8  and  C_10 
REMARK       I    between atoms: C_10  and  N_11 
REMARK    5  A    between atoms: N_11  and  C_12 
REMARK    6  A    between atoms: C_12  and  C_13 
ROOT
HETATM    1  N   UNL     1      -5.385   1.229 -32.535  1.00  0.00    -0.254 N 
HETATM    2  C   UNL     1      -5.892   2.474 -33.139  1.00  0.00     0.256 C 
HETATM    3  C   UNL     1      -4.888   3.599 -32.999  1.00  0.00     0.034 A 
HETATM    4  C   UNL     1      -4.086   3.600 -31.864  1.00  0.00     0.048 A 
HETATM    5  N   UNL     1      -4.165   2.516 -30.993  1.00  0.00    -0.308 N 
HETATM    6  C   UNL     1      -4.738   1.310 -31.305  1.00  0.00     0.330 C 
HETATM    7  O   UNL     1      -4.606   0.386 -30.504  1.00  0.00    -0.246 OA
HETATM    8  C   UNL     1      -4.794   4.673 -33.898  1.00  0.00     0.015 A 
HETATM    9  C   UNL     1      -3.899   5.715 -33.658  1.00  0.00     0.001 A 
HETATM   10  C   UNL     1      -3.107   5.705 -32.511  1.00  0.00     0.002 A 
HETATM   11  C   UNL     1      -3.206   4.649 -31.603  1.00  0.00     0.030 A 
HETATM   12  H   UNL     1      -3.603   2.508 -30.152  1.00  0.00     0.170 HD
ENDROOT
BRANCH   2  13
HETATM   13  O   UNL     1      -6.151   2.313 -34.538  1.00  0.00    -0.359 OA
HETATM   14  H   UNL     1      -5.745   3.081 -34.973  1.00  0.00     0.213 HD
ENDBRANCH   2  13
BRANCH   2  15
HETATM   15  C   UNL     1      -7.265   2.936 -32.458  1.00  0.00     0.279 C 
HETATM   16  N   UNL     1      -8.370   3.083 -33.281  1.00  0.00    -0.352 N 
HETATM   17  H   UNL     1      -8.196   3.307 -34.252  1.00  0.00     0.162 HD
HETATM   18  O   UNL     1      -7.351   3.120 -31.241  1.00  0.00    -0.268 OA
BRANCH  16  19
HETATM   19  C   UNL     1      -9.644   3.477 -32.723  1.00  0.00     0.161 C 
BRANCH  19  20
HETATM   20  C   UNL     1     -10.796   2.550 -33.041  1.00  0.00    -0.038 A 
HETATM   21  C   UNL     1     -12.100   3.076 -32.957  1.00  0.00     0.048 A 
HETATM   22  C   UNL     1     -13.170   2.240 -33.201  1.00  0.00     0.105 A 
HETATM   23  C   UNL     1     -12.994   0.918 -33.524  1.00  0.00     0.105 A 
HETATM   24  O   UNL     1     -14.482   2.592 -33.146  1.00  0.00    -0.323 OA
HETATM   25  O   UNL     1     -14.173   0.269 -33.717  1.00  0.00    -0.323 OA
HETATM   26  C   UNL     1     -11.740   0.360 -33.618  1.00  0.00     0.040 A 
HETATM   27  C   UNL     1     -15.113   1.331 -33.454  1.00  0.00     0.352 A 
HETATM   28  C   UNL     1     -10.633   1.182 -33.365  1.00  0.00     0.012 A 
ENDBRANCH  19  20
ENDBRANCH  16  19
ENDBRANCH   2  15
BRANCH   1  29
HETATM   29  C   UNL     1      -5.694  -0.042 -33.109  1.00  0.00     0.043 A 
HETATM   30  C   UNL     1      -4.707  -0.874 -33.646  1.00  0.00     0.030 A 
HETATM   31  C   UNL     1      -5.047  -2.100 -34.235  1.00  0.00     0.009 A 
HETATM   32  C   UNL     1      -6.383  -2.506 -34.324  1.00  0.00    -0.058 A 
HETATM   33  C   UNL     1      -7.374  -1.660 -33.820  1.00  0.00     0.009 A 
HETATM   34  C   UNL     1      -7.032  -0.445 -33.225  1.00  0.00     0.030 A 
BRANCH  32  35
HETATM   35  C   UNL     1      -6.757  -3.813 -34.975  1.00  0.00     0.034 C 
HETATM   36  C   UNL     1      -5.636  -4.840 -34.899  1.00  0.00     0.010 C 
ENDBRANCH  32  35
ENDBRANCH   1  29
TORSDOF 6
ENDMDL
MODEL 2
REMARK VINA RESULT:      -9.5      3.067      7.595
REMARK  6 active torsions:
REMARK  status: ('A' for Active; 'I' for Inactive)
REMARK    1  A    between atoms: C_2  and  C_3 
REMARK    2  A    between atoms: C_6  and  N_7 
REMARK    3  A    between atoms: C_8  and  O_9 
REMARK    4  A    between atoms: C_8  and  C_10 
REMARK       I    between atoms: C_10  and  N_11 
REMARK    5  A    between atoms: N_11  and  C_12 
REMARK    6  A    between atoms: C_12  and  C_13 
ROOT
HETATM    1  N   UNL     1      -5.216   3.438 -31.388  1.00  0.00    -0.254 N 
HETATM    2  C   UNL     1      -5.519   2.285 -32.255  1.00  0.00     0.256 C 
HETATM    3  C   UNL     1      -7.013   2.083 -32.393  1.00  0.00     0.034 A 
HETATM    4  C   UNL     1      -7.806   2.417 -31.301  1.00  0.00     0.048 A 
HETATM    5  N   UNL     1      -7.202   3.024 -30.203  1.00  0.00    -0.308 N 
HETATM    6  C   UNL     1      -5.956   3.596 -30.220  1.00  0.00     0.330 C 
HETATM    7  O   UNL     1      -5.603   4.234 -29.229  1.00  0.00    -0.246 OA
HETATM    8  C   UNL     1      -7.618   1.496 -33.516  1.00  0.00     0.015 A 
HETATM    9  C   UNL     1      -8.993   1.267 -33.536  1.00  0.00     0.001 A 
HETATM   10  C   UNL     1      -9.772   1.601 -32.430  1.00  0.00     0.002 A 
HETATM   11  C   UNL     1      -9.177   2.169 -31.302  1.00  0.00     0.030 A 
HETATM   12  H   UNL     1      -7.760   3.257 -29.391  1.00  0.00     0.170 HD
ENDROOT
BRANCH   2  13
HETATM   13  O   UNL     1      -4.996   2.468 -33.575  1.00  0.00    -0.359 OA
HETATM   14  H   UNL     1      -4.495   3.300 -33.548  1.00  0.00     0.213 HD
ENDBRANCH   2  13
BRANCH   2  15
HETATM   15  C   UNL     1      -4.878   0.937 -31.678  1.00  0.00     0.279 C 
HETATM   16  N   UNL     1      -3.871   0.339 -32.417  1.00  0.00    -0.352 N 
HETATM   17  H   UNL     1      -3.873   0.502 -33.416  1.00  0.00     0.162 HD
HETATM   18  O   UNL     1      -5.239   0.462 -30.597  1.00  0.00    -0.268 OA
BRANCH  16  19
HETATM   19  C   UNL     1      -3.238  -0.869 -31.939  1.00  0.00     0.161 C 
BRANCH  19  20
HETATM   20  C   UNL     1      -3.652  -2.135 -32.657  1.00  0.00    -0.038 A 
HETATM   21  C   UNL     1      -4.645  -2.027 -33.652  1.00  0.00     0.048 A 
HETATM   22  C   UNL     1      -5.070  -3.172 -34.292  1.00  0.00     0.105 A 
HETATM   23  C   UNL     1      -4.551  -4.405 -33.987  1.00  0.00     0.105 A 
HETATM   24  O   UNL     1      -6.025  -3.234 -35.258  1.00  0.00    -0.323 OA
HETATM   25  O   UNL     1      -5.110  -5.401 -34.724  1.00  0.00    -0.323 OA
HETATM   26  C   UNL     1      -3.580  -4.560 -33.024  1.00  0.00     0.040 A 
HETATM   27  C   UNL     1      -6.060  -4.654 -35.512  1.00  0.00     0.352 A 
HETATM   28  C   UNL     1      -3.135  -3.415 -32.348  1.00  0.00     0.012 A 
ENDBRANCH  19  20
ENDBRANCH  16  19
ENDBRANCH   2  15
BRANCH   1  29
HETATM   29  C   UNL     1      -4.086   4.273 -31.649  1.00  0.00     0.043 A 
HETATM   30  C   UNL     1      -2.776   3.842 -31.421  1.00  0.00     0.030 A 
HETATM   31  C   UNL     1      -1.691   4.698 -31.652  1.00  0.00     0.009 A 
HETATM   32  C   UNL     1      -1.894   6.012 -32.088  1.00  0.00    -0.058 A 
HETATM   33  C   UNL     1      -3.204   6.457 -32.281  1.00  0.00     0.009 A 
HETATM   34  C   UNL     1      -4.283   5.599 -32.061  1.00  0.00     0.030 A 
BRANCH  32  35
HETATM   35  C   UNL     1      -0.732   6.945 -32.317  1.00  0.00     0.034 C 
HETATM   36  C   UNL     1       0.376   6.751 -31.292  1.00  0.00     0.010 C 
ENDBRANCH  32  35
ENDBRANCH   1  29
TORSDOF 6
ENDMDL
MODEL 3
REMARK VINA RESULT:      -9.5      1.912      2.483
REMARK  6 active torsions:
REMARK  status: ('A' for Active; 'I' for Inactive)
REMARK    1  A    between atoms: C_2  and  C_3 
REMARK    2  A    between atoms: C_6  and  N_7 
REMARK    3  A    between atoms: C_8  and  O_9 
REMARK    4  A    between atoms: C_8  and  C_10 
REMARK       I    between atoms: C_10  and  N_11 
REMARK    5  A    between atoms: N_11  and  C_12 
REMARK    6  A    between atoms: C_12  and  C_13 
ROOT
HETATM    1  N   UNL     1      -7.236   1.512 -32.389  1.00  0.00    -0.254 N 
HETATM    2  C   UNL     1      -6.879   2.882 -32.797  1.00  0.00     0.256 C 
HETATM    3  C   UNL     1      -6.650   3.770 -31.592  1.00  0.00     0.034 A 
HETATM    4  C   UNL     1      -7.408   3.510 -30.455  1.00  0.00     0.048 A 
HETATM    5  N   UNL     1      -8.232   2.387 -30.449  1.00  0.00    -0.308 N 
HETATM    6  C   UNL     1      -8.140   1.351 -31.342  1.00  0.00     0.330 C 
HETATM    7  O   UNL     1      -8.823   0.350 -31.134  1.00  0.00    -0.246 OA
HETATM    8  C   UNL     1      -5.795   4.883 -31.597  1.00  0.00     0.015 A 
HETATM    9  C   UNL     1      -5.699   5.702 -30.473  1.00  0.00     0.001 A 
HETATM   10  C   UNL     1      -6.470   5.431 -29.344  1.00  0.00     0.002 A 
HETATM   11  C   UNL     1      -7.336   4.337 -29.336  1.00  0.00     0.030 A 
HETATM   12  H   UNL     1      -8.805   2.193 -29.638  1.00  0.00     0.170 HD
ENDROOT
BRANCH   2  13
HETATM   13  O   UNL     1      -5.674   2.903 -33.570  1.00  0.00    -0.359 OA
HETATM   14  H   UNL     1      -5.803   2.253 -34.281  1.00  0.00     0.213 HD
ENDBRANCH   2  13
BRANCH   2  15
HETATM   15  C   UNL     1      -8.026   3.540 -33.699  1.00  0.00     0.279 C 
HETATM   16  N   UNL     1      -9.218   2.846 -33.826  1.00  0.00    -0.352 N 
HETATM   17  H   UNL     1      -9.179   1.840 -33.726  1.00  0.00     0.162 HD
HETATM   18  O   UNL     1      -7.873   4.642 -34.234  1.00  0.00    -0.268 OA
BRANCH  16  19
HETATM   19  C   UNL     1     -10.300   3.397 -34.610  1.00  0.00     0.161 C 
BRANCH  19  20
HETATM   20  C   UNL     1     -11.665   2.816 -34.314  1.00  0.00    -0.038 A 
HETATM   21  C   UNL     1     -12.371   3.337 -33.211  1.00  0.00     0.048 A 
HETATM   22  C   UNL     1     -13.599   2.796 -32.894  1.00  0.00     0.105 A 
HETATM   23  C   UNL     1     -14.147   1.771 -33.624  1.00  0.00     0.105 A 
HETATM   24  O   UNL     1     -14.392   3.177 -31.857  1.00  0.00    -0.323 OA
HETATM   25  O   UNL     1     -15.356   1.379 -33.143  1.00  0.00    -0.323 OA
HETATM   26  C   UNL     1     -13.495   1.231 -34.709  1.00  0.00     0.040 A 
HETATM   27  C   UNL     1     -15.495   2.259 -32.008  1.00  0.00     0.352 A 
HETATM   28  C   UNL     1     -12.240   1.753 -35.049  1.00  0.00     0.012 A 
ENDBRANCH  19  20
ENDBRANCH  16  19
ENDBRANCH   2  15
BRANCH   1  29
HETATM   29  C   UNL     1      -6.802   0.384 -33.151  1.00  0.00     0.043 A 
HETATM   30  C   UNL     1      -7.468  -0.030 -34.309  1.00  0.00     0.030 A 
HETATM   31  C   UNL     1      -7.040  -1.163 -35.014  1.00  0.00     0.009 A 
HETATM   32  C   UNL     1      -5.955  -1.921 -34.562  1.00  0.00    -0.058 A 
HETATM   33  C   UNL     1      -5.311  -1.531 -33.385  1.00  0.00     0.009 A 
HETATM   34  C   UNL     1      -5.733  -0.396 -32.690  1.00  0.00     0.030 A 
BRANCH  32  35
HETATM   35  C   UNL     1      -5.502  -3.153 -35.303  1.00  0.00     0.034 C 
HETATM   36  C   UNL     1      -6.455  -4.325 -35.113  1.00  0.00     0.010 C 
ENDBRANCH  32  35
ENDBRANCH   1  29
TORSDOF 6
ENDMDL
MODEL 4
REMARK VINA RESULT:      -9.3      2.507      7.501
REMARK  6 active torsions:
REMARK  status: ('A' for Active; 'I' for Inactive)
REMARK    1  A    between atoms: C_2  and  C_3 
REMARK    2  A    between atoms: C_6  and  N_7 
REMARK    3  A    between atoms: C_8  and  O_9 
REMARK    4  A    between atoms: C_8  and  C_10 
REMARK       I    between atoms: C_10  and  N_11 
REMARK    5  A    between atoms: N_11  and  C_12 
REMARK    6  A    between atoms: C_12  and  C_13 
ROOT
HETATM    1  N   UNL     1     -10.029   2.623 -33.135  1.00  0.00    -0.254 N 
HETATM    2  C   UNL     1      -9.082   1.759 -32.407  1.00  0.00     0.256 C 
HETATM    3  C   UNL     1      -7.921   2.560 -31.858  1.00  0.00     0.034 A 
HETATM    4  C   UNL     1      -7.502   3.662 -32.595  1.00  0.00     0.048 A 
HETATM    5  N   UNL     1      -8.241   4.032 -33.716  1.00  0.00    -0.308 N 
HETATM    6  C   UNL     1      -9.512   3.595 -33.987  1.00  0.00     0.330 C 
HETATM    7  O   UNL     1     -10.111   4.116 -34.926  1.00  0.00    -0.246 OA
HETATM    8  C   UNL     1      -7.200   2.197 -30.710  1.00  0.00     0.015 A 
HETATM    9  C   UNL     1      -6.089   2.941 -30.312  1.00  0.00     0.001 A 
HETATM   10  C   UNL     1      -5.677   4.038 -31.067  1.00  0.00     0.002 A 
HETATM   11  C   UNL     1      -6.379   4.396 -32.218  1.00  0.00     0.030 A 
HETATM   12  H   UNL     1      -7.939   4.820 -34.276  1.00  0.00     0.170 HD
ENDROOT
BRANCH   2  13
HETATM   13  O   UNL     1      -9.710   1.112 -31.295  1.00  0.00    -0.359 OA
HETATM   14  H   UNL     1     -10.459   0.615 -31.666  1.00  0.00     0.213 HD
ENDBRANCH   2  13
BRANCH   2  15
HETATM   15  C   UNL     1      -8.499   0.607 -33.352  1.00  0.00     0.279 C 
HETATM   16  N   UNL     1      -7.416   0.925 -34.156  1.00  0.00    -0.352 N 
HETATM   17  H   UNL     1      -7.314   1.893 -34.430  1.00  0.00     0.162 HD
HETATM   18  O   UNL     1      -8.968  -0.534 -33.343  1.00  0.00    -0.268 OA
BRANCH  16  19
HETATM   19  C   UNL     1      -6.830  -0.078 -35.016  1.00  0.00     0.161 C 
BRANCH  19  20
HETATM   20  C   UNL     1      -5.807  -0.972 -34.351  1.00  0.00    -0.038 A 
HETATM   21  C   UNL     1      -5.711  -2.304 -34.803  1.00  0.00     0.048 A 
HETATM   22  C   UNL     1      -4.815  -3.151 -34.185  1.00  0.00     0.105 A 
HETATM   23  C   UNL     1      -4.018  -2.729 -33.150  1.00  0.00     0.105 A 
HETATM   24  O   UNL     1      -4.617  -4.460 -34.493  1.00  0.00    -0.323 OA
HETATM   25  O   UNL     1      -3.214  -3.718 -32.677  1.00  0.00    -0.323 OA
HETATM   26  C   UNL     1      -4.076  -1.438 -32.676  1.00  0.00     0.040 A 
HETATM   27  C   UNL     1      -3.615  -4.819 -33.519  1.00  0.00     0.352 A 
HETATM   28  C   UNL     1      -4.985  -0.557 -33.277  1.00  0.00     0.012 A 
ENDBRANCH  19  20
ENDBRANCH  16  19
ENDBRANCH   2  15
BRANCH   1  29
HETATM   29  C   UNL     1     -11.433   2.363 -33.101  1.00  0.00     0.043 A 
HETATM   30  C   UNL     1     -12.005   1.282 -33.779  1.00  0.00     0.030 A 
HETATM   31  C   UNL     1     -13.391   1.075 -33.757  1.00  0.00     0.009 A 
HETATM   32  C   UNL     1     -14.236   1.959 -33.079  1.00  0.00    -0.058 A 
HETATM   33  C   UNL     1     -13.671   3.061 -32.431  1.00  0.00     0.009 A 
HETATM   34  C   UNL     1     -12.290   3.259 -32.446  1.00  0.00     0.030 A 
BRANCH  32  35
HETATM   35  C   UNL     1     -15.730   1.755 -33.068  1.00  0.00     0.034 C 
HETATM   36  C   UNL     1     -16.417   2.561 -31.975  1.00  0.00     0.010 C 
ENDBRANCH  32  35
ENDBRANCH   1  29
TORSDOF 6
ENDMDL
MODEL 5
REMARK VINA RESULT:      -9.3      3.282      6.777
REMARK  6 active torsions:
REMARK  status: ('A' for Active; 'I' for Inactive)
REMARK    1  A    between atoms: C_2  and  C_3 
REMARK    2  A    between atoms: C_6  and  N_7 
REMARK    3  A    between atoms: C_8  and  O_9 
REMARK    4  A    between atoms: C_8  and  C_10 
REMARK       I    between atoms: C_10  and  N_11 
REMARK    5  A    between atoms: N_11  and  C_12 
REMARK    6  A    between atoms: C_12  and  C_13 
ROOT
HETATM    1  N   UNL     1      -4.950   4.786 -33.419  1.00  0.00    -0.254 N 
HETATM    2  C   UNL     1      -4.379   4.819 -32.061  1.00  0.00     0.256 C 
HETATM    3  C   UNL     1      -3.568   6.079 -31.839  1.00  0.00     0.034 A 
HETATM    4  C   UNL     1      -2.899   6.608 -32.937  1.00  0.00     0.048 A 
HETATM    5  N   UNL     1      -3.109   6.029 -34.186  1.00  0.00    -0.308 N 
HETATM    6  C   UNL     1      -4.143   5.178 -34.483  1.00  0.00     0.330 C 
HETATM    7  O   UNL     1      -4.305   4.859 -35.660  1.00  0.00    -0.246 OA
HETATM    8  C   UNL     1      -3.385   6.674 -30.581  1.00  0.00     0.015 A 
HETATM    9  C   UNL     1      -2.555   7.787 -30.443  1.00  0.00     0.001 A 
HETATM   10  C   UNL     1      -1.887   8.301 -31.553  1.00  0.00     0.002 A 
HETATM   11  C   UNL     1      -2.050   7.705 -32.804  1.00  0.00     0.030 A 
HETATM   12  H   UNL     1      -2.617   6.389 -34.994  1.00  0.00     0.170 HD
ENDROOT
BRANCH   2  13
HETATM   13  O   UNL     1      -5.401   4.796 -31.059  1.00  0.00    -0.359 OA
HETATM   14  H   UNL     1      -5.683   3.868 -30.990  1.00  0.00     0.213 HD
ENDBRANCH   2  13
BRANCH   2  15
HETATM   15  C   UNL     1      -3.432   3.556 -31.795  1.00  0.00     0.279 C 
HETATM   16  N   UNL     1      -4.039   2.370 -31.415  1.00  0.00    -0.352 N 
HETATM   17  H   UNL     1      -4.924   2.439 -30.931  1.00  0.00     0.162 HD
HETATM   18  O   UNL     1      -2.210   3.620 -31.957  1.00  0.00    -0.268 OA
BRANCH  16  19
HETATM   19  C   UNL     1      -3.240   1.188 -31.181  1.00  0.00     0.161 C 
BRANCH  19  20
HETATM   20  C   UNL     1      -3.651  -0.029 -31.980  1.00  0.00    -0.038 A 
HETATM   21  C   UNL     1      -3.074  -1.266 -31.628  1.00  0.00     0.048 A 
HETATM   22  C   UNL     1      -3.399  -2.384 -32.367  1.00  0.00     0.105 A 
HETATM   23  C   UNL     1      -4.268  -2.321 -33.428  1.00  0.00     0.105 A 
HETATM   24  O   UNL     1      -2.918  -3.639 -32.164  1.00  0.00    -0.323 OA
HETATM   25  O   UNL     1      -4.448  -3.529 -34.025  1.00  0.00    -0.323 OA
HETATM   26  C   UNL     1      -4.857  -1.136 -33.807  1.00  0.00     0.040 A 
HETATM   27  C   UNL     1      -3.571  -4.356 -33.232  1.00  0.00     0.352 A 
HETATM   28  C   UNL     1      -4.537   0.020 -33.081  1.00  0.00     0.012 A 
ENDBRANCH  19  20
ENDBRANCH  16  19
ENDBRANCH   2  15
BRANCH   1  29
HETATM   29  C   UNL     1      -6.236   4.210 -33.659  1.00  0.00     0.043 A 
HETATM   30  C   UNL     1      -7.404   4.979 -33.665  1.00  0.00     0.030 A 
HETATM   31  C   UNL     1      -8.654   4.378 -33.867  1.00  0.00     0.009 A 
HETATM   32  C   UNL     1      -8.765   2.994 -34.039  1.00  0.00    -0.058 A 
HETATM   33  C   UNL     1      -7.603   2.220 -33.996  1.00  0.00     0.009 A 
HETATM   34  C   UNL     1      -6.358   2.821 -33.806  1.00  0.00     0.030 A 
BRANCH  32  35
HETATM   35  C   UNL     1     -10.109   2.340 -34.235  1.00  0.00     0.034 C 
HETATM   36  C   UNL     1     -10.297   1.124 -33.336  1.00  0.00     0.010 C 
ENDBRANCH  32  35
ENDBRANCH   1  29
TORSDOF 6
ENDMDL
MODEL 6
REMARK VINA RESULT:      -9.2      2.458      7.084
REMARK  6 active torsions:
REMARK  status: ('A' for Active; 'I' for Inactive)
REMARK    1  A    between atoms: C_2  and  C_3 
REMARK    2  A    between atoms: C_6  and  N_7 
REMARK    3  A    between atoms: C_8  and  O_9 
REMARK    4  A    between atoms: C_8  and  C_10 
REMARK       I    between atoms: C_10  and  N_11 
REMARK    5  A    between atoms: N_11  and  C_12 
REMARK    6  A    between atoms: C_12  and  C_13 
ROOT
HETATM    1  N   UNL     1      -6.931   3.254 -31.867  1.00  0.00    -0.254 N 
HETATM    2  C   UNL     1      -7.976   3.106 -32.896  1.00  0.00     0.256 C 
HETATM    3  C   UNL     1      -9.328   3.540 -32.369  1.00  0.00     0.034 A 
HETATM    4  C   UNL     1      -9.583   3.330 -31.019  1.00  0.00     0.048 A 
HETATM    5  N   UNL     1      -8.552   2.853 -30.214  1.00  0.00    -0.308 N 
HETATM    6  C   UNL     1      -7.227   2.856 -30.566  1.00  0.00     0.330 C 
HETATM    7  O   UNL     1      -6.403   2.550 -29.706  1.00  0.00    -0.246 OA
HETATM    8  C   UNL     1     -10.352   4.049 -33.183  1.00  0.00     0.015 A 
HETATM    9  C   UNL     1     -11.600   4.350 -32.638  1.00  0.00     0.001 A 
HETATM   10  C   UNL     1     -11.842   4.127 -31.284  1.00  0.00     0.002 A 
HETATM   11  C   UNL     1     -10.835   3.606 -30.471  1.00  0.00     0.030 A 
HETATM   12  H   UNL     1      -8.725   2.675 -29.233  1.00  0.00     0.170 HD
ENDROOT
BRANCH   2  13
HETATM   13  O   UNL     1      -7.696   3.909 -34.048  1.00  0.00    -0.359 OA
HETATM   14  H   UNL     1      -7.116   3.369 -34.612  1.00  0.00     0.213 HD
ENDBRANCH   2  13
BRANCH   2  15
HETATM   15  C   UNL     1      -8.092   1.590 -33.397  1.00  0.00     0.279 C 
HETATM   16  N   UNL     1      -7.269   1.196 -34.439  1.00  0.00    -0.352 N 
HETATM   17  H   UNL     1      -6.969   1.912 -35.086  1.00  0.00     0.162 HD
HETATM   18  O   UNL     1      -8.858   0.789 -32.854  1.00  0.00    -0.268 OA
BRANCH  16  19
HETATM   19  C   UNL     1      -7.312  -0.166 -34.922  1.00  0.00     0.161 C 
BRANCH  19  20
HETATM   20  C   UNL     1      -6.192  -1.055 -34.428  1.00  0.00    -0.038 A 
HETATM   21  C   UNL     1      -6.213  -2.409 -34.818  1.00  0.00     0.048 A 
HETATM   22  C   UNL     1      -5.227  -3.251 -34.347  1.00  0.00     0.105 A 
HETATM   23  C   UNL     1      -4.231  -2.802 -33.516  1.00  0.00     0.105 A 
HETATM   24  O   UNL     1      -5.119  -4.579 -34.619  1.00  0.00    -0.323 OA
HETATM   25  O   UNL     1      -3.367  -3.789 -33.161  1.00  0.00    -0.323 OA
HETATM   26  C   UNL     1      -4.170  -1.489 -33.109  1.00  0.00     0.040 A 
HETATM   27  C   UNL     1      -3.949  -4.918 -33.846  1.00  0.00     0.352 A 
HETATM   28  C   UNL     1      -5.165  -0.612 -33.563  1.00  0.00     0.012 A 
ENDBRANCH  19  20
ENDBRANCH  16  19
ENDBRANCH   2  15
BRANCH   1  29
HETATM   29  C   UNL     1      -5.601   3.634 -32.223  1.00  0.00     0.043 A 
HETATM   30  C   UNL     1      -4.585   2.692 -32.413  1.00  0.00     0.030 A 
HETATM   31  C   UNL     1      -3.281   3.099 -32.726  1.00  0.00     0.009 A 
HETATM   32  C   UNL     1      -2.959   4.457 -32.828  1.00  0.00    -0.058 A 
HETATM   33  C   UNL     1      -3.964   5.401 -32.602  1.00  0.00     0.009 A 
HETATM   34  C   UNL     1      -5.264   4.993 -32.301  1.00  0.00     0.030 A 
BRANCH  32  35
HETATM   35  C   UNL     1      -1.553   4.902 -33.142  1.00  0.00     0.034 C 
HETATM   36  C   UNL     1      -1.421   5.439 -34.561  1.00  0.00     0.010 C 
ENDBRANCH  32  35
ENDBRANCH   1  29
TORSDOF 6
ENDMDL
MODEL 7
REMARK VINA RESULT:      -9.0      1.869      5.766
REMARK  6 active torsions:
REMARK  status: ('A' for Active; 'I' for Inactive)
REMARK    1  A    between atoms: C_2  and  C_3 
REMARK    2  A    between atoms: C_6  and  N_7 
REMARK    3  A    between atoms: C_8  and  O_9 
REMARK    4  A    between atoms: C_8  and  C_10 
REMARK       I    between atoms: C_10  and  N_11 
REMARK    5  A    between atoms: N_11  and  C_12 
REMARK    6  A    between atoms: C_12  and  C_13 
ROOT
HETATM    1  N   UNL     1      -4.977   3.203 -32.895  1.00  0.00    -0.254 N 
HETATM    2  C   UNL     1      -5.303   1.967 -32.160  1.00  0.00     0.256 C 
HETATM    3  C   UNL     1      -5.752   0.872 -33.103  1.00  0.00     0.034 A 
HETATM    4  C   UNL     1      -6.444   1.258 -34.246  1.00  0.00     0.048 A 
HETATM    5  N   UNL     1      -6.575   2.618 -34.516  1.00  0.00    -0.308 N 
HETATM    6  C   UNL     1      -5.829   3.603 -33.921  1.00  0.00     0.330 C 
HETATM    7  O   UNL     1      -5.934   4.747 -34.359  1.00  0.00    -0.246 OA
HETATM    8  C   UNL     1      -5.590  -0.497 -32.838  1.00  0.00     0.015 A 
HETATM    9  C   UNL     1      -6.104  -1.450 -33.717  1.00  0.00     0.001 A 
HETATM   10  C   UNL     1      -6.801  -1.046 -34.855  1.00  0.00     0.002 A 
HETATM   11  C   UNL     1      -6.982   0.313 -35.117  1.00  0.00     0.030 A 
HETATM   12  H   UNL     1      -7.091   2.918 -35.333  1.00  0.00     0.170 HD
ENDROOT
BRANCH   2  13
HETATM   13  O   UNL     1      -4.169   1.467 -31.444  1.00  0.00    -0.359 OA
HETATM   14  H   UNL     1      -4.254   1.813 -30.539  1.00  0.00     0.213 HD
ENDBRANCH   2  13
BRANCH   2  15
HETATM   15  C   UNL     1      -6.464   2.217 -31.086  1.00  0.00     0.279 C 
HETATM   16  N   UNL     1      -7.395   3.204 -31.367  1.00  0.00    -0.352 N 
HETATM   17  H   UNL     1      -7.095   3.965 -31.962  1.00  0.00     0.162 HD
HETATM   18  O   UNL     1      -6.553   1.534 -30.062  1.00  0.00    -0.268 OA
BRANCH  16  19
HETATM   19  C   UNL     1      -8.479   3.463 -30.447  1.00  0.00     0.161 C 
BRANCH  19  20
HETATM   20  C   UNL     1      -9.855   3.496 -31.074  1.00  0.00    -0.038 A 
HETATM   21  C   UNL     1     -10.016   2.876 -32.329  1.00  0.00     0.048 A 
HETATM   22  C   UNL     1     -11.251   2.929 -32.942  1.00  0.00     0.105 A 
HETATM   23  C   UNL     1     -12.319   3.564 -32.360  1.00  0.00     0.105 A 
HETATM   24  O   UNL     1     -11.560   2.396 -34.154  1.00  0.00    -0.323 OA
HETATM   25  O   UNL     1     -13.439   3.508 -33.129  1.00  0.00    -0.323 OA
HETATM   26  C   UNL     1     -12.210   4.182 -31.135  1.00  0.00     0.040 A 
HETATM   27  C   UNL     1     -12.944   2.785 -34.275  1.00  0.00     0.352 A 
HETATM   28  C   UNL     1     -10.964   4.155 -30.493  1.00  0.00     0.012 A 
ENDBRANCH  19  20
ENDBRANCH  16  19
ENDBRANCH   2  15
BRANCH   1  29
HETATM   29  C   UNL     1      -3.916   4.055 -32.460  1.00  0.00     0.043 A 
HETATM   30  C   UNL     1      -4.079   4.968 -31.414  1.00  0.00     0.030 A 
HETATM   31  C   UNL     1      -3.030   5.817 -31.035  1.00  0.00     0.009 A 
HETATM   32  C   UNL     1      -1.806   5.790 -31.713  1.00  0.00    -0.058 A 
HETATM   33  C   UNL     1      -1.653   4.904 -32.782  1.00  0.00     0.009 A 
HETATM   34  C   UNL     1      -2.696   4.052 -33.151  1.00  0.00     0.030 A 
BRANCH  32  35
HETATM   35  C   UNL     1      -0.680   6.715 -31.325  1.00  0.00     0.034 C 
HETATM   36  C   UNL     1       0.580   5.958 -30.929  1.00  0.00     0.010 C 
ENDBRANCH  32  35
ENDBRANCH   1  29
TORSDOF 6
ENDMDL
MODEL 8
REMARK VINA RESULT:      -8.9      3.869      7.732
REMARK  6 active torsions:
REMARK  status: ('A' for Active; 'I' for Inactive)
REMARK    1  A    between atoms: C_2  and  C_3 
REMARK    2  A    between atoms: C_6  and  N_7 
REMARK    3  A    between atoms: C_8  and  O_9 
REMARK    4  A    between atoms: C_8  and  C_10 
REMARK       I    between atoms: C_10  and  N_11 
REMARK    5  A    between atoms: N_11  and  C_12 
REMARK    6  A    between atoms: C_12  and  C_13 
ROOT
HETATM    1  N   UNL     1      -4.719   3.297 -32.963  1.00  0.00    -0.254 N 
HETATM    2  C   UNL     1      -4.919   2.044 -32.213  1.00  0.00     0.256 C 
HETATM    3  C   UNL     1      -5.510   0.966 -33.097  1.00  0.00     0.034 A 
HETATM    4  C   UNL     1      -6.376   1.372 -34.106  1.00  0.00     0.048 A 
HETATM    5  N   UNL     1      -6.553   2.736 -34.321  1.00  0.00    -0.308 N 
HETATM    6  C   UNL     1      -5.725   3.713 -33.832  1.00  0.00     0.330 C 
HETATM    7  O   UNL     1      -5.902   4.866 -34.221  1.00  0.00    -0.246 OA
HETATM    8  C   UNL     1      -5.303  -0.407 -32.891  1.00  0.00     0.015 A 
HETATM    9  C   UNL     1      -5.948  -1.345 -33.698  1.00  0.00     0.001 A 
HETATM   10  C   UNL     1      -6.819  -0.921 -34.700  1.00  0.00     0.002 A 
HETATM   11  C   UNL     1      -7.044   0.442 -34.900  1.00  0.00     0.030 A 
HETATM   12  H   UNL     1      -7.195   3.050 -35.038  1.00  0.00     0.170 HD
ENDROOT
BRANCH   2  13
HETATM   13  O   UNL     1      -3.684   1.537 -31.698  1.00  0.00    -0.359 OA
HETATM   14  H   UNL     1      -3.574   0.656 -32.095  1.00  0.00     0.213 HD
ENDBRANCH   2  13
BRANCH   2  15
HETATM   15  C   UNL     1      -5.895   2.263 -30.963  1.00  0.00     0.279 C 
HETATM   16  N   UNL     1      -6.674   3.409 -30.951  1.00  0.00    -0.352 N 
HETATM   17  H   UNL     1      -6.320   4.212 -31.453  1.00  0.00     0.162 HD
HETATM   18  O   UNL     1      -5.980   1.428 -30.058  1.00  0.00    -0.268 OA
BRANCH  16  19
HETATM   19  C   UNL     1      -7.589   3.653 -29.859  1.00  0.00     0.161 C 
BRANCH  19  20
HETATM   20  C   UNL     1      -7.416   4.986 -29.166  1.00  0.00    -0.038 A 
HETATM   21  C   UNL     1      -6.143   5.290 -28.644  1.00  0.00     0.048 A 
HETATM   22  C   UNL     1      -5.969   6.481 -27.971  1.00  0.00     0.105 A 
HETATM   23  C   UNL     1      -6.999   7.372 -27.800  1.00  0.00     0.105 A 
HETATM   24  O   UNL     1      -4.811   6.910 -27.399  1.00  0.00    -0.323 OA
HETATM   25  O   UNL     1      -6.621   8.476 -27.104  1.00  0.00    -0.323 OA
HETATM   26  C   UNL     1      -8.259   7.118 -28.293  1.00  0.00     0.040 A 
HETATM   27  C   UNL     1      -5.238   8.166 -26.833  1.00  0.00     0.352 A 
HETATM   28  C   UNL     1      -8.469   5.911 -28.973  1.00  0.00     0.012 A 
ENDBRANCH  19  20
ENDBRANCH  16  19
ENDBRANCH   2  15
BRANCH   1  29
HETATM   29  C   UNL     1      -3.605   4.147 -32.685  1.00  0.00     0.043 A 
HETATM   30  C   UNL     1      -3.546   4.941 -31.536  1.00  0.00     0.030 A 
HETATM   31  C   UNL     1      -2.456   5.793 -31.309  1.00  0.00     0.009 A 
HETATM   32  C   UNL     1      -1.416   5.889 -32.241  1.00  0.00    -0.058 A 
HETATM   33  C   UNL     1      -1.491   5.125 -33.408  1.00  0.00     0.009 A 
HETATM   34  C   UNL     1      -2.572   4.269 -33.626  1.00  0.00     0.030 A 
BRANCH  32  35
HETATM   35  C   UNL     1      -0.252   6.819 -32.014  1.00  0.00     0.034 C 
HETATM   36  C   UNL     1       0.373   6.638 -30.637  1.00  0.00     0.010 C 
ENDBRANCH  32  35
ENDBRANCH   1  29
TORSDOF 6
ENDMDL
MODEL 9
REMARK VINA RESULT:      -8.8      3.866      7.384
REMARK  6 active torsions:
REMARK  status: ('A' for Active; 'I' for Inactive)
REMARK    1  A    between atoms: C_2  and  C_3 
REMARK    2  A    between atoms: C_6  and  N_7 
REMARK    3  A    between atoms: C_8  and  O_9 
REMARK    4  A    between atoms: C_8  and  C_10 
REMARK       I    between atoms: C_10  and  N_11 
REMARK    5  A    between atoms: N_11  and  C_12 
REMARK    6  A    between atoms: C_12  and  C_13 
ROOT
HETATM    1  N   UNL     1      -4.767   3.358 -33.065  1.00  0.00    -0.254 N 
HETATM    2  C   UNL     1      -4.898   2.104 -32.303  1.00  0.00     0.256 C 
HETATM    3  C   UNL     1      -5.462   0.995 -33.166  1.00  0.00     0.034 A 
HETATM    4  C   UNL     1      -6.367   1.357 -34.158  1.00  0.00     0.048 A 
HETATM    5  N   UNL     1      -6.606   2.712 -34.377  1.00  0.00    -0.308 N 
HETATM    6  C   UNL     1      -5.808   3.726 -33.913  1.00  0.00     0.330 C 
HETATM    7  O   UNL     1      -6.042   4.867 -34.306  1.00  0.00    -0.246 OA
HETATM    8  C   UNL     1      -5.194  -0.366 -32.956  1.00  0.00     0.015 A 
HETATM    9  C   UNL     1      -5.817  -1.336 -33.742  1.00  0.00     0.001 A 
HETATM   10  C   UNL     1      -6.727  -0.956 -34.727  1.00  0.00     0.002 A 
HETATM   11  C   UNL     1      -7.013   0.395 -34.931  1.00  0.00     0.030 A 
HETATM   12  H   UNL     1      -7.275   2.994 -35.082  1.00  0.00     0.170 HD
ENDROOT
BRANCH   2  13
HETATM   13  O   UNL     1      -3.631   1.652 -31.813  1.00  0.00    -0.359 OA
HETATM   14  H   UNL     1      -3.017   2.394 -31.941  1.00  0.00     0.213 HD
ENDBRANCH   2  13
BRANCH   2  15
HETATM   15  C   UNL     1      -5.853   2.291 -31.032  1.00  0.00     0.279 C 
HETATM   16  N   UNL     1      -6.733   3.361 -31.045  1.00  0.00    -0.352 N 
HETATM   17  H   UNL     1      -6.469   4.169 -31.592  1.00  0.00     0.162 HD
HETATM   18  O   UNL     1      -5.836   1.494 -30.090  1.00  0.00    -0.268 OA
BRANCH  16  19
HETATM   19  C   UNL     1      -7.636   3.571 -29.936  1.00  0.00     0.161 C 
BRANCH  19  20
HETATM   20  C   UNL     1      -7.422   4.860 -29.173  1.00  0.00    -0.038 A 
HETATM   21  C   UNL     1      -8.530   5.715 -29.010  1.00  0.00     0.048 A 
HETATM   22  C   UNL     1      -8.351   6.916 -28.356  1.00  0.00     0.105 A 
HETATM   23  C   UNL     1      -7.129   7.293 -27.858  1.00  0.00     0.105 A 
HETATM   24  O   UNL     1      -9.313   7.851 -28.133  1.00  0.00    -0.323 OA
HETATM   25  O   UNL     1      -7.165   8.511 -27.257  1.00  0.00    -0.323 OA
HETATM   26  C   UNL     1      -6.019   6.490 -27.992  1.00  0.00     0.040 A 
HETATM   27  C   UNL     1      -8.549   8.869 -27.455  1.00  0.00     0.352 A 
HETATM   28  C   UNL     1      -6.167   5.269 -28.663  1.00  0.00     0.012 A 
ENDBRANCH  19  20
ENDBRANCH  16  19
ENDBRANCH   2  15
BRANCH   1  29
HETATM   29  C   UNL     1      -3.683   4.256 -32.818  1.00  0.00     0.043 A 
HETATM   30  C   UNL     1      -2.538   4.276 -33.619  1.00  0.00     0.030 A 
HETATM   31  C   UNL     1      -1.476   5.143 -33.329  1.00  0.00     0.009 A 
HETATM   32  C   UNL     1      -1.525   5.988 -32.215  1.00  0.00    -0.058 A 
HETATM   33  C   UNL     1      -2.653   5.944 -31.391  1.00  0.00     0.009 A 
HETATM   34  C   UNL     1      -3.714   5.087 -31.689  1.00  0.00     0.030 A 
BRANCH  32  35
HETATM   35  C   UNL     1      -0.377   6.908 -31.884  1.00  0.00     0.034 C 
HETATM   36  C   UNL     1       0.587   6.291 -30.880  1.00  0.00     0.010 C 
ENDBRANCH  32  35
ENDBRANCH   1  29
TORSDOF 6
ENDMDL
MODEL 10
REMARK VINA RESULT:      -8.6      2.663      7.837
REMARK  6 active torsions:
REMARK  status: ('A' for Active; 'I' for Inactive)
REMARK    1  A    between atoms: C_2  and  C_3 
REMARK    2  A    between atoms: C_6  and  N_7 
REMARK    3  A    between atoms: C_8  and  O_9 
REMARK    4  A    between atoms: C_8  and  C_10 
REMARK       I    between atoms: C_10  and  N_11 
REMARK    5  A    between atoms: N_11  and  C_12 
REMARK    6  A    between atoms: C_12  and  C_13 
ROOT
HETATM    1  N   UNL     1      -8.260   1.879 -32.522  1.00  0.00    -0.254 N 
HETATM    2  C   UNL     1      -7.036   1.792 -33.339  1.00  0.00     0.256 C 
HETATM    3  C   UNL     1      -5.963   0.991 -32.634  1.00  0.00     0.034 A 
HETATM    4  C   UNL     1      -5.922   1.062 -31.246  1.00  0.00     0.048 A 
HETATM    5  N   UNL     1      -6.933   1.758 -30.587  1.00  0.00    -0.308 N 
HETATM    6  C   UNL     1      -8.124   2.123 -31.158  1.00  0.00     0.330 C 
HETATM    7  O   UNL     1      -8.992   2.596 -30.426  1.00  0.00    -0.246 OA
HETATM    8  C   UNL     1      -4.965   0.268 -33.306  1.00  0.00     0.015 A 
HETATM    9  C   UNL     1      -3.959  -0.379 -32.587  1.00  0.00     0.001 A 
HETATM   10  C   UNL     1      -3.930  -0.291 -31.196  1.00  0.00     0.002 A 
HETATM   11  C   UNL     1      -4.908   0.440 -30.521  1.00  0.00     0.030 A 
HETATM   12  H   UNL     1      -6.909   1.837 -29.578  1.00  0.00     0.170 HD
ENDROOT
BRANCH   2  13
HETATM   13  O   UNL     1      -7.286   1.148 -34.593  1.00  0.00    -0.359 OA
HETATM   14  H   UNL     1      -7.404   0.206 -34.388  1.00  0.00     0.213 HD
ENDBRANCH   2  13
BRANCH   2  15
HETATM   15  C   UNL     1      -6.449   3.245 -33.667  1.00  0.00     0.279 C 
HETATM   16  N   UNL     1      -5.127   3.491 -33.334  1.00  0.00    -0.352 N 
HETATM   17  H   UNL     1      -4.737   2.958 -32.568  1.00  0.00     0.162 HD
HETATM   18  O   UNL     1      -7.133   4.106 -34.228  1.00  0.00    -0.268 OA
BRANCH  16  19
HETATM   19  C   UNL     1      -4.533   4.777 -33.623  1.00  0.00     0.161 C 
BRANCH  19  20
HETATM   20  C   UNL     1      -3.570   5.287 -32.573  1.00  0.00    -0.038 A 
HETATM   21  C   UNL     1      -2.303   4.675 -32.496  1.00  0.00     0.048 A 
HETATM   22  C   UNL     1      -1.423   5.093 -31.520  1.00  0.00     0.105 A 
HETATM   23  C   UNL     1      -1.749   6.086 -30.630  1.00  0.00     0.105 A 
HETATM   24  O   UNL     1      -0.176   4.594 -31.307  1.00  0.00    -0.323 OA
HETATM   25  O   UNL     1      -0.748   6.341 -29.746  1.00  0.00    -0.323 OA
HETATM   26  C   UNL     1      -2.974   6.712 -30.667  1.00  0.00     0.040 A 
HETATM   27  C   UNL     1       0.238   5.376 -30.168  1.00  0.00     0.352 A 
HETATM   28  C   UNL     1      -3.894   6.301 -31.641  1.00  0.00     0.012 A 
ENDBRANCH  19  20
ENDBRANCH  16  19
ENDBRANCH   2  15
BRANCH   1  29
HETATM   29  C   UNL     1      -9.551   1.883 -33.134  1.00  0.00     0.043 A 
HETATM   30  C   UNL     1     -10.126   3.049 -33.648  1.00  0.00     0.030 A 
HETATM   31  C   UNL     1     -11.410   3.027 -34.209  1.00  0.00     0.009 A 
HETATM   32  C   UNL     1     -12.156   1.845 -34.243  1.00  0.00    -0.058 A 
HETATM   33  C   UNL     1     -11.599   0.686 -33.697  1.00  0.00     0.009 A 
HETATM   34  C   UNL     1     -10.315   0.708 -33.149  1.00  0.00     0.030 A 
BRANCH  32  35
HETATM   35  C   UNL     1     -13.547   1.818 -34.826  1.00  0.00     0.034 C 
HETATM   36  C   UNL     1     -14.399   0.702 -34.238  1.00  0.00     0.010 C 
ENDBRANCH  32  35
ENDBRANCH   1  29
TORSDOF 6
ENDMDL
