MODEL 1
REMARK VINA RESULT:      -9.6      0.000      0.000
REMARK  8 active torsions:
REMARK  status: ('A' for Active; 'I' for Inactive)
REMARK    1  A    between atoms: C_2  and  O_3 
REMARK    2  A    between atoms: O_3  and  C_4 
REMARK    3  A    between atoms: C_4  and  C_5 
REMARK    4  A    between atoms: N_7  and  C_9 
REMARK    5  A    between atoms: C_9  and  C_10 
REMARK       I    between atoms: C_10  and  N_11 
REMARK    6  A    between atoms: N_11  and  C_12 
REMARK    7  A    between atoms: C_20  and  C_21 
REMARK       I    between atoms: C_21  and  N_22 
REMARK    8  A    between atoms: N_22  and  C_23 
ROOT
HETATM    1  C   UNL     1      -4.855  -0.345 -33.098  1.00  0.00     0.093 C 
HETATM    2  S   UNL     1      -3.694  -1.559 -32.864  1.00  0.00    -0.075 SA
HETATM    3  C   UNL     1      -4.607  -2.684 -33.731  1.00  0.00    -0.008 C 
HETATM    4  C   UNL     1      -5.788  -2.158 -34.228  1.00  0.00    -0.026 C 
HETATM    5  C   UNL     1      -6.753  -3.059 -34.959  1.00  0.00     0.041 C 
HETATM    6  C   UNL     1      -6.473  -4.550 -34.717  1.00  0.00     0.005 C 
HETATM    7  C   UNL     1      -4.984  -4.868 -34.880  1.00  0.00     0.005 C 
HETATM    8  C   UNL     1      -4.144  -4.107 -33.850  1.00  0.00     0.047 C 
HETATM    9  C   UNL     1      -5.897  -0.728 -33.944  1.00  0.00     0.073 C 
ENDROOT
BRANCH   1  10
HETATM   10  N   UNL     1      -4.646   0.914 -32.542  1.00  0.00    -0.319 N 
HETATM   11  C   UNL     1      -5.390   1.437 -31.510  1.00  0.00     0.248 C 
HETATM   12  O   UNL     1      -6.422   0.977 -31.012  1.00  0.00    -0.271 OA
HETATM   13  H   UNL     1      -4.112   1.546 -33.144  1.00  0.00     0.169 HD
BRANCH  11  14
HETATM   14  C   UNL     1      -4.869   2.755 -30.933  1.00  0.00     0.337 C 
BRANCH  14  15
HETATM   15  N   UNL     1      -4.770   3.784 -32.074  1.00  0.00    -0.062 N 
HETATM   16  C   UNL     1      -3.354   3.916 -32.608  1.00  0.00     0.249 C 
HETATM   17  C   UNL     1      -3.272   5.133 -33.527  1.00  0.00     0.111 C 
HETATM   18  C   UNL     1      -4.313   5.040 -34.646  1.00  0.00     0.018 C 
HETATM   19  C   UNL     1      -5.719   4.807 -34.093  1.00  0.00     0.029 C 
HETATM   20  C   UNL     1      -5.785   3.606 -33.157  1.00  0.00     0.235 C 
HETATM   21  H   UNL     1      -4.962   4.677 -31.580  1.00  0.00     0.280 HD
BRANCH  17  22
HETATM   22  C   UNL     1      -1.868   5.207 -34.085  1.00  0.00     0.264 C 
HETATM   23  O   UNL     1      -1.607   5.097 -35.274  1.00  0.00    -0.265 OA
BRANCH  22  24
HETATM   24  O   UNL     1      -0.970   5.383 -33.083  1.00  0.00    -0.322 OA
BRANCH  24  25
HETATM   25  C   UNL     1      -0.795   6.730 -32.613  1.00  0.00     0.174 C 
HETATM   26  C   UNL     1       0.181   6.749 -31.452  1.00  0.00     0.034 C 
ENDBRANCH  24  25
ENDBRANCH  22  24
ENDBRANCH  17  22
ENDBRANCH  14  15
ENDBRANCH  11  14
ENDBRANCH   1  10
BRANCH   9  27
HETATM   27  C   UNL     1      -6.924   0.266 -34.345  1.00  0.00     0.259 C 
HETATM   28  N   UNL     1      -8.082   0.268 -33.595  1.00  0.00    -0.323 N 
HETATM   29  H   UNL     1      -8.166  -0.437 -32.884  1.00  0.00     0.169 HD
HETATM   30  O   UNL     1      -6.715   0.994 -35.317  1.00  0.00    -0.267 OA
BRANCH  28  31
HETATM   31  C   UNL     1      -9.203   1.117 -33.710  1.00  0.00     0.035 A 
HETATM   32  C   UNL     1      -9.136   2.478 -34.014  1.00  0.00     0.031 A 
HETATM   33  C   UNL     1     -10.309   3.241 -34.107  1.00  0.00     0.026 A 
HETATM   34  C   UNL     1     -11.549   2.648 -33.886  1.00  0.00     0.034 A 
HETATM   35 CL   UNL     1     -12.983   3.589 -33.996  1.00  0.00    -0.084 Cl
HETATM   36  C   UNL     1     -11.630   1.295 -33.576  1.00  0.00     0.026 A 
HETATM   37  C   UNL     1     -10.461   0.533 -33.493  1.00  0.00     0.031 A 
ENDBRANCH  28  31
ENDBRANCH   9  27
TORSDOF 8
ENDMDL
MODEL 2
REMARK VINA RESULT:      -9.4      3.195      8.037
REMARK  8 active torsions:
REMARK  status: ('A' for Active; 'I' for Inactive)
REMARK    1  A    between atoms: C_2  and  O_3 
REMARK    2  A    between atoms: O_3  and  C_4 
REMARK    3  A    between atoms: C_4  and  C_5 
REMARK    4  A    between atoms: N_7  and  C_9 
REMARK    5  A    between atoms: C_9  and  C_10 
REMARK       I    between atoms: C_10  and  N_11 
REMARK    6  A    between atoms: N_11  and  C_12 
REMARK    7  A    between atoms: C_20  and  C_21 
REMARK       I    between atoms: C_21  and  N_22 
REMARK    8  A    between atoms: N_22  and  C_23 
ROOT
HETATM    1  C   UNL     1      -6.363   4.358 -32.066  1.00  0.00     0.093 C 
HETATM    2  S   UNL     1      -5.949   5.992 -32.247  1.00  0.00    -0.075 SA
HETATM    3  C   UNL     1      -4.322   5.617 -32.498  1.00  0.00    -0.008 C 
HETATM    4  C   UNL     1      -4.069   4.254 -32.470  1.00  0.00    -0.026 C 
HETATM    5  C   UNL     1      -2.649   3.761 -32.599  1.00  0.00     0.041 C 
HETATM    6  C   UNL     1      -1.611   4.866 -32.354  1.00  0.00     0.005 C 
HETATM    7  C   UNL     1      -1.964   6.140 -33.127  1.00  0.00     0.005 C 
HETATM    8  C   UNL     1      -3.307   6.710 -32.662  1.00  0.00     0.047 C 
HETATM    9  C   UNL     1      -5.302   3.485 -32.317  1.00  0.00     0.073 C 
ENDROOT
BRANCH   1  10
HETATM   10  N   UNL     1      -7.684   4.014 -31.794  1.00  0.00    -0.319 N 
HETATM   11  C   UNL     1      -8.151   3.663 -30.549  1.00  0.00     0.248 C 
HETATM   12  O   UNL     1      -7.494   3.449 -29.526  1.00  0.00    -0.271 OA
HETATM   13  H   UNL     1      -8.217   3.743 -32.624  1.00  0.00     0.169 HD
BRANCH  11  14
HETATM   14  C   UNL     1      -9.670   3.507 -30.443  1.00  0.00     0.337 C 
BRANCH  14  15
HETATM   15  N   UNL     1     -10.119   2.408 -31.423  1.00  0.00    -0.062 N 
HETATM   16  C   UNL     1     -10.700   2.981 -32.704  1.00  0.00     0.249 C 
HETATM   17  C   UNL     1     -11.373   1.864 -33.498  1.00  0.00     0.111 C 
HETATM   18  C   UNL     1     -10.393   0.718 -33.761  1.00  0.00     0.018 C 
HETATM   19  C   UNL     1      -9.744   0.219 -32.470  1.00  0.00     0.029 C 
HETATM   20  C   UNL     1      -9.097   1.346 -31.672  1.00  0.00     0.235 C 
HETATM   21  H   UNL     1     -10.924   1.985 -30.921  1.00  0.00     0.280 HD
BRANCH  17  22
HETATM   22  C   UNL     1     -11.892   2.454 -34.791  1.00  0.00     0.264 C 
HETATM   23  O   UNL     1     -11.301   3.316 -35.425  1.00  0.00    -0.265 OA
BRANCH  22  24
HETATM   24  O   UNL     1     -13.093   1.909 -35.111  1.00  0.00    -0.322 OA
BRANCH  24  25
HETATM   25  C   UNL     1     -14.024   1.740 -34.028  1.00  0.00     0.174 C 
HETATM   26  C   UNL     1     -14.991   0.616 -34.351  1.00  0.00     0.034 C 
ENDBRANCH  24  25
ENDBRANCH  22  24
ENDBRANCH  17  22
ENDBRANCH  14  15
ENDBRANCH  11  14
ENDBRANCH   1  10
BRANCH   9  27
HETATM   27  C   UNL     1      -5.539   2.019 -32.321  1.00  0.00     0.259 C 
HETATM   28  N   UNL     1      -5.581   1.421 -33.564  1.00  0.00    -0.323 N 
HETATM   29  H   UNL     1      -5.511   2.026 -34.363  1.00  0.00     0.169 HD
HETATM   30  O   UNL     1      -5.715   1.432 -31.253  1.00  0.00    -0.267 OA
BRANCH  28  31
HETATM   31  C   UNL     1      -5.744   0.056 -33.878  1.00  0.00     0.035 A 
HETATM   32  C   UNL     1      -4.812  -0.941 -33.582  1.00  0.00     0.031 A 
HETATM   33  C   UNL     1      -5.065  -2.274 -33.934  1.00  0.00     0.026 A 
HETATM   34  C   UNL     1      -6.244  -2.612 -34.592  1.00  0.00     0.034 A 
HETATM   35 CL   UNL     1      -6.546  -4.247 -35.027  1.00  0.00    -0.084 Cl
HETATM   36  C   UNL     1      -7.179  -1.629 -34.900  1.00  0.00     0.026 A 
HETATM   37  C   UNL     1      -6.930  -0.301 -34.539  1.00  0.00     0.031 A 
ENDBRANCH  28  31
ENDBRANCH   9  27
TORSDOF 8
ENDMDL
MODEL 3
REMARK VINA RESULT:      -9.4      3.075      5.804
REMARK  8 active torsions:
REMARK  status: ('A' for Active; 'I' for Inactive)
REMARK    1  A    between atoms: C_2  and  O_3 
REMARK    2  A    between atoms: O_3  and  C_4 
REMARK    3  A    between atoms: C_4  and  C_5 
REMARK    4  A    between atoms: N_7  and  C_9 
REMARK    5  A    between atoms: C_9  and  C_10 
REMARK       I    between atoms: C_10  and  N_11 
REMARK    6  A    between atoms: N_11  and  C_12 
REMARK    7  A    between atoms: C_20  and  C_21 
REMARK       I    between atoms: C_21  and  N_22 
REMARK    8  A    between atoms: N_22  and  C_23 
ROOT
HETATM    1  C   UNL     1      -9.539   3.605 -32.515  1.00  0.00     0.093 C 
HETATM    2  S   UNL     1     -10.966   4.513 -32.650  1.00  0.00    -0.075 SA
HETATM    3  C   UNL     1     -11.845   3.169 -33.171  1.00  0.00    -0.008 C 
HETATM    4  C   UNL     1     -11.083   2.012 -33.231  1.00  0.00    -0.026 C 
HETATM    5  C   UNL     1     -11.705   0.741 -33.754  1.00  0.00     0.041 C 
HETATM    6  C   UNL     1     -13.009   0.990 -34.526  1.00  0.00     0.005 C 
HETATM    7  C   UNL     1     -13.936   1.938 -33.757  1.00  0.00     0.005 C 
HETATM    8  C   UNL     1     -13.285   3.310 -33.570  1.00  0.00     0.047 C 
HETATM    9  C   UNL     1      -9.726   2.240 -32.739  1.00  0.00     0.073 C 
ENDROOT
BRANCH   1  10
HETATM   10  N   UNL     1      -8.365   4.236 -32.114  1.00  0.00    -0.319 N 
HETATM   11  C   UNL     1      -7.553   4.964 -32.951  1.00  0.00     0.248 C 
HETATM   12  O   UNL     1      -7.626   5.064 -34.179  1.00  0.00    -0.271 OA
HETATM   13  H   UNL     1      -7.984   3.873 -31.236  1.00  0.00     0.169 HD
BRANCH  11  14
HETATM   14  C   UNL     1      -6.418   5.724 -32.259  1.00  0.00     0.337 C 
BRANCH  14  15
HETATM   15  N   UNL     1      -5.076   5.150 -32.749  1.00  0.00    -0.062 N 
HETATM   16  C   UNL     1      -3.979   6.199 -32.784  1.00  0.00     0.249 C 
HETATM   17  C   UNL     1      -2.770   5.642 -33.533  1.00  0.00     0.111 C 
HETATM   18  C   UNL     1      -2.302   4.326 -32.906  1.00  0.00     0.018 C 
HETATM   19  C   UNL     1      -3.443   3.317 -32.788  1.00  0.00     0.029 C 
HETATM   20  C   UNL     1      -4.654   3.890 -32.061  1.00  0.00     0.235 C 
HETATM   21  H   UNL     1      -5.282   4.933 -33.744  1.00  0.00     0.280 HD
BRANCH  17  22
HETATM   22  C   UNL     1      -1.676   6.687 -33.504  1.00  0.00     0.264 C 
HETATM   23  O   UNL     1      -1.643   7.651 -34.256  1.00  0.00    -0.265 OA
BRANCH  22  24
HETATM   24  O   UNL     1      -0.753   6.380 -32.559  1.00  0.00    -0.322 OA
BRANCH  24  25
HETATM   25  C   UNL     1      -0.636   7.300 -31.460  1.00  0.00     0.174 C 
HETATM   26  C   UNL     1       0.470   6.847 -30.525  1.00  0.00     0.034 C 
ENDBRANCH  24  25
ENDBRANCH  22  24
ENDBRANCH  17  22
ENDBRANCH  14  15
ENDBRANCH  11  14
ENDBRANCH   1  10
BRANCH   9  27
HETATM   27  C   UNL     1      -8.596   1.299 -32.535  1.00  0.00     0.259 C 
HETATM   28  N   UNL     1      -8.172   0.618 -33.657  1.00  0.00    -0.323 N 
HETATM   29  H   UNL     1      -8.695   0.763 -34.503  1.00  0.00     0.169 HD
HETATM   30  O   UNL     1      -8.129   1.150 -31.404  1.00  0.00    -0.267 OA
BRANCH  28  31
HETATM   31  C   UNL     1      -7.106  -0.298 -33.780  1.00  0.00     0.035 A 
HETATM   32  C   UNL     1      -5.785  -0.027 -33.418  1.00  0.00     0.031 A 
HETATM   33  C   UNL     1      -4.793  -1.005 -33.577  1.00  0.00     0.026 A 
HETATM   34  C   UNL     1      -5.116  -2.250 -34.108  1.00  0.00     0.034 A 
HETATM   35 CL   UNL     1      -3.894  -3.443 -34.307  1.00  0.00    -0.084 Cl
HETATM   36  C   UNL     1      -6.426  -2.532 -34.480  1.00  0.00     0.026 A 
HETATM   37  C   UNL     1      -7.417  -1.560 -34.312  1.00  0.00     0.031 A 
ENDBRANCH  28  31
ENDBRANCH   9  27
TORSDOF 8
ENDMDL
MODEL 4
REMARK VINA RESULT:      -9.3      3.146      5.845
REMARK  8 active torsions:
REMARK  status: ('A' for Active; 'I' for Inactive)
REMARK    1  A    between atoms: C_2  and  O_3 
REMARK    2  A    between atoms: O_3  and  C_4 
REMARK    3  A    between atoms: C_4  and  C_5 
REMARK    4  A    between atoms: N_7  and  C_9 
REMARK    5  A    between atoms: C_9  and  C_10 
REMARK       I    between atoms: C_10  and  N_11 
REMARK    6  A    between atoms: N_11  and  C_12 
REMARK    7  A    between atoms: C_20  and  C_21 
REMARK       I    between atoms: C_21  and  N_22 
REMARK    8  A    between atoms: N_22  and  C_23 
ROOT
HETATM    1  C   UNL     1      -7.274   3.277 -33.595  1.00  0.00     0.093 C 
HETATM    2  S   UNL     1      -8.207   4.662 -33.886  1.00  0.00    -0.075 SA
HETATM    3  C   UNL     1      -9.609   3.747 -34.105  1.00  0.00    -0.008 C 
HETATM    4  C   UNL     1      -9.400   2.387 -33.941  1.00  0.00    -0.026 C 
HETATM    5  C   UNL     1     -10.539   1.427 -34.181  1.00  0.00     0.041 C 
HETATM    6  C   UNL     1     -11.698   2.063 -34.963  1.00  0.00     0.005 C 
HETATM    7  C   UNL     1     -12.069   3.433 -34.388  1.00  0.00     0.005 C 
HETATM    8  C   UNL     1     -10.897   4.411 -34.497  1.00  0.00     0.047 C 
HETATM    9  C   UNL     1      -8.026   2.103 -33.531  1.00  0.00     0.073 C 
ENDROOT
BRANCH   1  10
HETATM   10  N   UNL     1      -5.909   3.413 -33.352  1.00  0.00    -0.319 N 
HETATM   11  C   UNL     1      -5.364   3.644 -32.111  1.00  0.00     0.248 C 
HETATM   12  O   UNL     1      -5.955   3.911 -31.061  1.00  0.00    -0.271 OA
HETATM   13  H   UNL     1      -5.364   3.636 -34.189  1.00  0.00     0.169 HD
BRANCH  11  14
HETATM   14  C   UNL     1      -3.836   3.572 -32.047  1.00  0.00     0.337 C 
BRANCH  14  15
HETATM   15  N   UNL     1      -3.257   4.810 -32.755  1.00  0.00    -0.062 N 
HETATM   16  C   UNL     1      -2.931   5.929 -31.782  1.00  0.00     0.249 C 
HETATM   17  C   UNL     1      -2.632   7.208 -32.563  1.00  0.00     0.111 C 
HETATM   18  C   UNL     1      -1.514   6.973 -33.583  1.00  0.00     0.018 C 
HETATM   19  C   UNL     1      -1.816   5.780 -34.490  1.00  0.00     0.029 C 
HETATM   20  C   UNL     1      -2.137   4.516 -33.701  1.00  0.00     0.235 C 
HETATM   21  H   UNL     1      -4.073   5.150 -33.301  1.00  0.00     0.280 HD
BRANCH  17  22
HETATM   22  C   UNL     1      -2.258   8.288 -31.572  1.00  0.00     0.264 C 
HETATM   23  O   UNL     1      -2.060   9.453 -31.885  1.00  0.00    -0.265 OA
BRANCH  22  24
HETATM   24  O   UNL     1      -2.153   7.767 -30.323  1.00  0.00    -0.322 OA
BRANCH  24  25
HETATM   25  C   UNL     1      -0.946   8.073 -29.604  1.00  0.00     0.174 C 
HETATM   26  C   UNL     1       0.148   7.097 -29.995  1.00  0.00     0.034 C 
ENDBRANCH  24  25
ENDBRANCH  22  24
ENDBRANCH  17  22
ENDBRANCH  14  15
ENDBRANCH  11  14
ENDBRANCH   1  10
BRANCH   9  27
HETATM   27  C   UNL     1      -7.368   0.825 -33.160  1.00  0.00     0.259 C 
HETATM   28  N   UNL     1      -6.609   0.231 -34.148  1.00  0.00    -0.323 N 
HETATM   29  H   UNL     1      -6.612   0.672 -35.051  1.00  0.00     0.169 HD
HETATM   30  O   UNL     1      -7.551   0.354 -32.036  1.00  0.00    -0.267 OA
BRANCH  28  31
HETATM   31  C   UNL     1      -5.841  -0.949 -34.077  1.00  0.00     0.035 A 
HETATM   32  C   UNL     1      -4.656  -1.080 -33.350  1.00  0.00     0.031 A 
HETATM   33  C   UNL     1      -3.963  -2.298 -33.340  1.00  0.00     0.026 A 
HETATM   34  C   UNL     1      -4.445  -3.384 -34.064  1.00  0.00     0.034 A 
HETATM   35 CL   UNL     1      -3.587  -4.874 -34.054  1.00  0.00    -0.084 Cl
HETATM   36  C   UNL     1      -5.620  -3.268 -34.799  1.00  0.00     0.026 A 
HETATM   37  C   UNL     1      -6.317  -2.055 -34.800  1.00  0.00     0.031 A 
ENDBRANCH  28  31
ENDBRANCH   9  27
TORSDOF 8
ENDMDL
MODEL 5
REMARK VINA RESULT:      -8.8      1.718      2.476
REMARK  8 active torsions:
REMARK  status: ('A' for Active; 'I' for Inactive)
REMARK    1  A    between atoms: C_2  and  O_3 
REMARK    2  A    between atoms: O_3  and  C_4 
REMARK    3  A    between atoms: C_4  and  C_5 
REMARK    4  A    between atoms: N_7  and  C_9 
REMARK    5  A    between atoms: C_9  and  C_10 
REMARK       I    between atoms: C_10  and  N_11 
REMARK    6  A    between atoms: N_11  and  C_12 
REMARK    7  A    between atoms: C_20  and  C_21 
REMARK       I    between atoms: C_21  and  N_22 
REMARK    8  A    between atoms: N_22  and  C_23 
ROOT
HETATM    1  C   UNL     1      -5.184   0.235 -32.921  1.00  0.00     0.093 C 
HETATM    2  S   UNL     1      -3.908  -0.746 -33.453  1.00  0.00    -0.075 SA
HETATM    3  C   UNL     1      -4.972  -1.915 -34.046  1.00  0.00    -0.008 C 
HETATM    4  C   UNL     1      -6.304  -1.575 -33.872  1.00  0.00    -0.026 C 
HETATM    5  C   UNL     1      -7.379  -2.552 -34.279  1.00  0.00     0.041 C 
HETATM    6  C   UNL     1      -6.842  -3.977 -34.480  1.00  0.00     0.005 C 
HETATM    7  C   UNL     1      -5.565  -3.974 -35.327  1.00  0.00     0.005 C 
HETATM    8  C   UNL     1      -4.447  -3.194 -34.631  1.00  0.00     0.047 C 
HETATM    9  C   UNL     1      -6.443  -0.239 -33.294  1.00  0.00     0.073 C 
ENDROOT
BRANCH   1  10
HETATM   10  N   UNL     1      -4.898   1.433 -32.272  1.00  0.00    -0.319 N 
HETATM   11  C   UNL     1      -5.167   2.677 -32.791  1.00  0.00     0.248 C 
HETATM   12  O   UNL     1      -5.552   2.956 -33.931  1.00  0.00    -0.271 OA
HETATM   13  H   UNL     1      -4.202   1.341 -31.527  1.00  0.00     0.169 HD
BRANCH  11  14
HETATM   14  C   UNL     1      -4.943   3.848 -31.830  1.00  0.00     0.337 C 
BRANCH  14  15
HETATM   15  N   UNL     1      -3.868   4.773 -32.429  1.00  0.00    -0.062 N 
HETATM   16  C   UNL     1      -3.699   6.053 -31.630  1.00  0.00     0.249 C 
HETATM   17  C   UNL     1      -2.836   7.034 -32.421  1.00  0.00     0.111 C 
HETATM   18  C   UNL     1      -1.496   6.397 -32.798  1.00  0.00     0.018 C 
HETATM   19  C   UNL     1      -1.685   5.061 -33.515  1.00  0.00     0.029 C 
HETATM   20  C   UNL     1      -2.567   4.098 -32.729  1.00  0.00     0.235 C 
HETATM   21  H   UNL     1      -4.306   5.064 -33.325  1.00  0.00     0.280 HD
BRANCH  17  22
HETATM   22  C   UNL     1      -2.640   8.274 -31.578  1.00  0.00     0.264 C 
HETATM   23  O   UNL     1      -3.492   9.142 -31.445  1.00  0.00    -0.265 OA
BRANCH  22  24
HETATM   24  O   UNL     1      -1.399   8.283 -31.031  1.00  0.00    -0.322 OA
BRANCH  24  25
HETATM   25  C   UNL     1      -1.329   8.113 -29.605  1.00  0.00     0.174 C 
HETATM   26  C   UNL     1      -0.032   7.420 -29.231  1.00  0.00     0.034 C 
ENDBRANCH  24  25
ENDBRANCH  22  24
ENDBRANCH  17  22
ENDBRANCH  14  15
ENDBRANCH  11  14
ENDBRANCH   1  10
BRANCH   9  27
HETATM   27  C   UNL     1      -7.651   0.575 -33.009  1.00  0.00     0.259 C 
HETATM   28  N   UNL     1      -8.255   1.155 -34.105  1.00  0.00    -0.323 N 
HETATM   29  H   UNL     1      -7.801   1.036 -34.993  1.00  0.00     0.169 HD
HETATM   30  O   UNL     1      -8.024   0.717 -31.843  1.00  0.00    -0.267 OA
BRANCH  28  31
HETATM   31  C   UNL     1      -9.429   1.937 -34.151  1.00  0.00     0.035 A 
HETATM   32  C   UNL     1     -10.718   1.421 -34.286  1.00  0.00     0.031 A 
HETATM   33  C   UNL     1     -11.825   2.281 -34.321  1.00  0.00     0.026 A 
HETATM   34  C   UNL     1     -11.644   3.658 -34.232  1.00  0.00     0.034 A 
HETATM   35 CL   UNL     1     -13.004   4.709 -34.282  1.00  0.00    -0.084 Cl
HETATM   36  C   UNL     1     -10.365   4.188 -34.104  1.00  0.00     0.026 A 
HETATM   37  C   UNL     1      -9.262   3.329 -34.059  1.00  0.00     0.031 A 
ENDBRANCH  28  31
ENDBRANCH   9  27
TORSDOF 8
ENDMDL
MODEL 6
REMARK VINA RESULT:      -8.7      3.206      7.582
REMARK  8 active torsions:
REMARK  status: ('A' for Active; 'I' for Inactive)
REMARK    1  A    between atoms: C_2  and  O_3 
REMARK    2  A    between atoms: O_3  and  C_4 
REMARK    3  A    between atoms: C_4  and  C_5 
REMARK    4  A    between atoms: N_7  and  C_9 
REMARK    5  A    between atoms: C_9  and  C_10 
REMARK       I    between atoms: C_10  and  N_11 
REMARK    6  A    between atoms: N_11  and  C_12 
REMARK    7  A    between atoms: C_20  and  C_21 
REMARK       I    between atoms: C_21  and  N_22 
REMARK    8  A    between atoms: N_22  and  C_23 
ROOT
HETATM    1  C   UNL     1      -6.047   4.632 -31.539  1.00  0.00     0.093 C 
HETATM    2  S   UNL     1      -5.392   5.991 -30.763  1.00  0.00    -0.075 SA
HETATM    3  C   UNL     1      -3.873   5.728 -31.451  1.00  0.00    -0.008 C 
HETATM    4  C   UNL     1      -3.841   4.627 -32.292  1.00  0.00    -0.026 C 
HETATM    5  C   UNL     1      -2.535   4.213 -32.923  1.00  0.00     0.041 C 
HETATM    6  C   UNL     1      -1.316   4.846 -32.235  1.00  0.00     0.005 C 
HETATM    7  C   UNL     1      -1.521   6.347 -32.013  1.00  0.00     0.005 C 
HETATM    8  C   UNL     1      -2.712   6.607 -31.087  1.00  0.00     0.047 C 
HETATM    9  C   UNL     1      -5.166   4.025 -32.434  1.00  0.00     0.073 C 
ENDROOT
BRANCH   1  10
HETATM   10  N   UNL     1      -7.380   4.296 -31.316  1.00  0.00    -0.319 N 
HETATM   11  C   UNL     1      -7.795   3.318 -30.444  1.00  0.00     0.248 C 
HETATM   12  O   UNL     1      -7.100   2.495 -29.841  1.00  0.00    -0.271 OA
HETATM   13  H   UNL     1      -8.011   4.605 -32.060  1.00  0.00     0.169 HD
BRANCH  11  14
HETATM   14  C   UNL     1      -9.308   3.245 -30.218  1.00  0.00     0.337 C 
BRANCH  14  15
HETATM   15  N   UNL     1      -9.933   2.418 -31.356  1.00  0.00    -0.062 N 
HETATM   16  C   UNL     1     -10.448   3.291 -32.487  1.00  0.00     0.249 C 
HETATM   17  C   UNL     1     -11.295   2.444 -33.435  1.00  0.00     0.111 C 
HETATM   18  C   UNL     1     -10.500   1.237 -33.941  1.00  0.00     0.018 C 
HETATM   19  C   UNL     1      -9.906   0.426 -32.790  1.00  0.00     0.029 C 
HETATM   20  C   UNL     1      -9.084   1.285 -31.836  1.00  0.00     0.235 C 
HETATM   21  H   UNL     1     -10.782   2.028 -30.901  1.00  0.00     0.280 HD
BRANCH  17  22
HETATM   22  C   UNL     1     -11.746   3.326 -34.577  1.00  0.00     0.264 C 
HETATM   23  O   UNL     1     -12.568   2.980 -35.414  1.00  0.00    -0.265 OA
BRANCH  22  24
HETATM   24  O   UNL     1     -11.095   4.516 -34.542  1.00  0.00    -0.322 OA
BRANCH  24  25
HETATM   25  C   UNL     1     -11.664   5.578 -35.326  1.00  0.00     0.174 C 
HETATM   26  C   UNL     1     -10.600   6.612 -35.645  1.00  0.00     0.034 C 
ENDBRANCH  24  25
ENDBRANCH  22  24
ENDBRANCH  17  22
ENDBRANCH  14  15
ENDBRANCH  11  14
ENDBRANCH   1  10
BRANCH   9  27
HETATM   27  C   UNL     1      -5.635   2.900 -33.282  1.00  0.00     0.259 C 
HETATM   28  N   UNL     1      -5.189   1.646 -32.916  1.00  0.00    -0.323 N 
HETATM   29  H   UNL     1      -4.538   1.599 -32.151  1.00  0.00     0.169 HD
HETATM   30  O   UNL     1      -6.348   3.134 -34.259  1.00  0.00    -0.267 OA
BRANCH  28  31
HETATM   31  C   UNL     1      -5.498   0.398 -33.496  1.00  0.00     0.035 A 
HETATM   32  C   UNL     1      -6.574   0.170 -34.355  1.00  0.00     0.031 A 
HETATM   33  C   UNL     1      -6.799  -1.108 -34.884  1.00  0.00     0.026 A 
HETATM   34  C   UNL     1      -5.956  -2.163 -34.548  1.00  0.00     0.034 A 
HETATM   35 CL   UNL     1      -6.240  -3.731 -35.194  1.00  0.00    -0.084 Cl
HETATM   36  C   UNL     1      -4.883  -1.953 -33.688  1.00  0.00     0.026 A 
HETATM   37  C   UNL     1      -4.653  -0.675 -33.169  1.00  0.00     0.031 A 
ENDBRANCH  28  31
ENDBRANCH   9  27
TORSDOF 8
ENDMDL
MODEL 7
REMARK VINA RESULT:      -8.6      3.156      8.109
REMARK  8 active torsions:
REMARK  status: ('A' for Active; 'I' for Inactive)
REMARK    1  A    between atoms: C_2  and  O_3 
REMARK    2  A    between atoms: O_3  and  C_4 
REMARK    3  A    between atoms: C_4  and  C_5 
REMARK    4  A    between atoms: N_7  and  C_9 
REMARK    5  A    between atoms: C_9  and  C_10 
REMARK       I    between atoms: C_10  and  N_11 
REMARK    6  A    between atoms: N_11  and  C_12 
REMARK    7  A    between atoms: C_20  and  C_21 
REMARK       I    between atoms: C_21  and  N_22 
REMARK    8  A    between atoms: N_22  and  C_23 
ROOT
HETATM    1  C   UNL     1      -5.232   5.378 -31.296  1.00  0.00     0.093 C 
HETATM    2  S   UNL     1      -4.558   6.734 -30.533  1.00  0.00    -0.075 SA
HETATM    3  C   UNL     1      -3.014   6.367 -31.108  1.00  0.00    -0.008 C 
HETATM    4  C   UNL     1      -2.985   5.231 -31.900  1.00  0.00    -0.026 C 
HETATM    5  C   UNL     1      -1.664   4.725 -32.426  1.00  0.00     0.041 C 
HETATM    6  C   UNL     1      -0.461   5.326 -31.684  1.00  0.00     0.005 C 
HETATM    7  C   UNL     1      -0.601   6.844 -31.537  1.00  0.00     0.005 C 
HETATM    8  C   UNL     1      -1.834   7.202 -30.703  1.00  0.00     0.047 C 
HETATM    9  C   UNL     1      -4.327   4.689 -32.106  1.00  0.00     0.073 C 
ENDROOT
BRANCH   1  10
HETATM   10  N   UNL     1      -6.592   5.119 -31.150  1.00  0.00    -0.319 N 
HETATM   11  C   UNL     1      -7.106   4.094 -30.390  1.00  0.00     0.248 C 
HETATM   12  O   UNL     1      -6.492   3.171 -29.848  1.00  0.00    -0.271 OA
HETATM   13  H   UNL     1      -7.171   5.541 -31.880  1.00  0.00     0.169 HD
BRANCH  11  14
HETATM   14  C   UNL     1      -8.628   4.109 -30.220  1.00  0.00     0.337 C 
BRANCH  14  15
HETATM   15  N   UNL     1      -9.276   3.918 -31.603  1.00  0.00    -0.062 N 
HETATM   16  C   UNL     1      -9.862   2.528 -31.777  1.00  0.00     0.249 C 
HETATM   17  C   UNL     1     -10.232   2.314 -33.244  1.00  0.00     0.111 C 
HETATM   18  C   UNL     1     -11.179   3.414 -33.731  1.00  0.00     0.018 C 
HETATM   19  C   UNL     1     -10.616   4.809 -33.457  1.00  0.00     0.029 C 
HETATM   20  C   UNL     1     -10.227   5.003 -31.996  1.00  0.00     0.235 C 
HETATM   21  H   UNL     1      -8.453   3.951 -32.236  1.00  0.00     0.280 HD
BRANCH  17  22
HETATM   22  C   UNL     1     -10.862   0.945 -33.375  1.00  0.00     0.264 C 
HETATM   23  O   UNL     1     -10.389  -0.066 -32.878  1.00  0.00    -0.265 OA
BRANCH  22  24
HETATM   24  O   UNL     1     -11.986   1.013 -34.132  1.00  0.00    -0.322 OA
BRANCH  24  25
HETATM   25  C   UNL     1     -13.089   0.193 -33.709  1.00  0.00     0.174 C 
HETATM   26  C   UNL     1     -14.387   0.749 -34.265  1.00  0.00     0.034 C 
ENDBRANCH  24  25
ENDBRANCH  22  24
ENDBRANCH  17  22
ENDBRANCH  14  15
ENDBRANCH  11  14
ENDBRANCH   1  10
BRANCH   9  27
HETATM   27  C   UNL     1      -4.799   3.553 -32.937  1.00  0.00     0.259 C 
HETATM   28  N   UNL     1      -4.765   2.313 -32.333  1.00  0.00    -0.323 N 
HETATM   29  H   UNL     1      -4.370   2.266 -31.411  1.00  0.00     0.169 HD
HETATM   30  O   UNL     1      -5.154   3.759 -34.099  1.00  0.00    -0.267 OA
BRANCH  28  31
HETATM   31  C   UNL     1      -5.186   1.070 -32.851  1.00  0.00     0.035 A 
HETATM   32  C   UNL     1      -4.346  -0.024 -33.062  1.00  0.00     0.031 A 
HETATM   33  C   UNL     1      -4.859  -1.221 -33.582  1.00  0.00     0.026 A 
HETATM   34  C   UNL     1      -6.210  -1.323 -33.902  1.00  0.00     0.034 A 
HETATM   35 CL   UNL     1      -6.832  -2.790 -34.544  1.00  0.00    -0.084 Cl
HETATM   36  C   UNL     1      -7.058  -0.238 -33.704  1.00  0.00     0.026 A 
HETATM   37  C   UNL     1      -6.547   0.952 -33.176  1.00  0.00     0.031 A 
ENDBRANCH  28  31
ENDBRANCH   9  27
TORSDOF 8
ENDMDL
MODEL 8
REMARK VINA RESULT:      -8.4      3.432      6.308
REMARK  8 active torsions:
REMARK  status: ('A' for Active; 'I' for Inactive)
REMARK    1  A    between atoms: C_2  and  O_3 
REMARK    2  A    between atoms: O_3  and  C_4 
REMARK    3  A    between atoms: C_4  and  C_5 
REMARK    4  A    between atoms: N_7  and  C_9 
REMARK    5  A    between atoms: C_9  and  C_10 
REMARK       I    between atoms: C_10  and  N_11 
REMARK    6  A    between atoms: N_11  and  C_12 
REMARK    7  A    between atoms: C_20  and  C_21 
REMARK       I    between atoms: C_21  and  N_22 
REMARK    8  A    between atoms: N_22  and  C_23 
ROOT
HETATM    1  C   UNL     1     -10.504   3.712 -32.703  1.00  0.00     0.093 C 
HETATM    2  S   UNL     1     -12.012   4.254 -32.150  1.00  0.00    -0.075 SA
HETATM    3  C   UNL     1     -12.801   2.906 -32.792  1.00  0.00    -0.008 C 
HETATM    4  C   UNL     1     -11.938   2.017 -33.413  1.00  0.00    -0.026 C 
HETATM    5  C   UNL     1     -12.499   0.800 -34.107  1.00  0.00     0.041 C 
HETATM    6  C   UNL     1     -14.008   0.908 -34.368  1.00  0.00     0.005 C 
HETATM    7  C   UNL     1     -14.755   1.388 -33.120  1.00  0.00     0.005 C 
HETATM    8  C   UNL     1     -14.295   2.789 -32.710  1.00  0.00     0.047 C 
HETATM    9  C   UNL     1     -10.545   2.439 -33.274  1.00  0.00     0.073 C 
ENDROOT
BRANCH   1  10
HETATM   10  N   UNL     1      -9.373   4.490 -32.471  1.00  0.00    -0.319 N 
HETATM   11  C   UNL     1      -8.818   5.344 -33.395  1.00  0.00     0.248 C 
HETATM   12  O   UNL     1      -9.111   5.462 -34.588  1.00  0.00    -0.271 OA
HETATM   13  H   UNL     1      -8.803   4.163 -31.686  1.00  0.00     0.169 HD
BRANCH  11  14
HETATM   14  C   UNL     1      -7.693   6.237 -32.865  1.00  0.00     0.337 C 
BRANCH  14  15
HETATM   15  N   UNL     1      -6.910   5.455 -31.795  1.00  0.00    -0.062 N 
HETATM   16  C   UNL     1      -5.497   5.125 -32.242  1.00  0.00     0.249 C 
HETATM   17  C   UNL     1      -4.879   4.122 -31.269  1.00  0.00     0.111 C 
HETATM   18  C   UNL     1      -4.931   4.656 -29.835  1.00  0.00     0.018 C 
HETATM   19  C   UNL     1      -6.346   5.075 -29.436  1.00  0.00     0.029 C 
HETATM   20  C   UNL     1      -6.962   6.056 -30.427  1.00  0.00     0.235 C 
HETATM   21  H   UNL     1      -7.413   4.546 -31.779  1.00  0.00     0.280 HD
BRANCH  17  22
HETATM   22  C   UNL     1      -3.457   3.856 -31.708  1.00  0.00     0.264 C 
HETATM   23  O   UNL     1      -2.804   2.892 -31.336  1.00  0.00    -0.265 OA
BRANCH  22  24
HETATM   24  O   UNL     1      -3.025   4.842 -32.535  1.00  0.00    -0.322 OA
BRANCH  24  25
HETATM   25  C   UNL     1      -2.099   4.451 -33.564  1.00  0.00     0.174 C 
HETATM   26  C   UNL     1      -2.376   5.236 -34.832  1.00  0.00     0.034 C 
ENDBRANCH  24  25
ENDBRANCH  22  24
ENDBRANCH  17  22
ENDBRANCH  14  15
ENDBRANCH  11  14
ENDBRANCH   1  10
BRANCH   9  27
HETATM   27  C   UNL     1      -9.284   1.777 -33.692  1.00  0.00     0.259 C 
HETATM   28  N   UNL     1      -8.840   0.759 -32.873  1.00  0.00    -0.323 N 
HETATM   29  H   UNL     1      -9.365   0.588 -32.034  1.00  0.00     0.169 HD
HETATM   30  O   UNL     1      -8.694   2.178 -34.697  1.00  0.00    -0.267 OA
BRANCH  28  31
HETATM   31  C   UNL     1      -7.711  -0.071 -33.035  1.00  0.00     0.035 A 
HETATM   32  C   UNL     1      -7.555  -1.002 -34.063  1.00  0.00     0.031 A 
HETATM   33  C   UNL     1      -6.393  -1.783 -34.141  1.00  0.00     0.026 A 
HETATM   34  C   UNL     1      -5.390  -1.643 -33.186  1.00  0.00     0.034 A 
HETATM   35 CL   UNL     1      -3.971  -2.607 -33.282  1.00  0.00    -0.084 Cl
HETATM   36  C   UNL     1      -5.535  -0.725 -32.151  1.00  0.00     0.026 A 
HETATM   37  C   UNL     1      -6.690   0.061 -32.081  1.00  0.00     0.031 A 
ENDBRANCH  28  31
ENDBRANCH   9  27
TORSDOF 8
ENDMDL
MODEL 9
REMARK VINA RESULT:      -8.3      3.534      8.307
REMARK  8 active torsions:
REMARK  status: ('A' for Active; 'I' for Inactive)
REMARK    1  A    between atoms: C_2  and  O_3 
REMARK    2  A    between atoms: O_3  and  C_4 
REMARK    3  A    between atoms: C_4  and  C_5 
REMARK    4  A    between atoms: N_7  and  C_9 
REMARK    5  A    between atoms: C_9  and  C_10 
REMARK       I    between atoms: C_10  and  N_11 
REMARK    6  A    between atoms: N_11  and  C_12 
REMARK    7  A    between atoms: C_20  and  C_21 
REMARK       I    between atoms: C_21  and  N_22 
REMARK    8  A    between atoms: N_22  and  C_23 
ROOT
HETATM    1  C   UNL     1      -7.622   2.548 -32.617  1.00  0.00     0.093 C 
HETATM    2  S   UNL     1      -7.846   4.199 -32.932  1.00  0.00    -0.075 SA
HETATM    3  C   UNL     1      -6.182   4.481 -32.965  1.00  0.00    -0.008 C 
HETATM    4  C   UNL     1      -5.432   3.334 -32.762  1.00  0.00    -0.026 C 
HETATM    5  C   UNL     1      -3.929   3.434 -32.684  1.00  0.00     0.041 C 
HETATM    6  C   UNL     1      -3.439   4.871 -32.453  1.00  0.00     0.005 C 
HETATM    7  C   UNL     1      -4.141   5.854 -33.394  1.00  0.00     0.005 C 
HETATM    8  C   UNL     1      -5.651   5.874 -33.141  1.00  0.00     0.047 C 
HETATM    9  C   UNL     1      -6.284   2.151 -32.657  1.00  0.00     0.073 C 
ENDROOT
BRANCH   1  10
HETATM   10  N   UNL     1      -8.735   1.728 -32.451  1.00  0.00    -0.319 N 
HETATM   11  C   UNL     1      -9.170   0.815 -33.383  1.00  0.00     0.248 C 
HETATM   12  O   UNL     1      -8.770   0.666 -34.541  1.00  0.00    -0.271 OA
HETATM   13  H   UNL     1      -9.384   2.058 -31.732  1.00  0.00     0.169 HD
BRANCH  11  14
HETATM   14  C   UNL     1     -10.298  -0.108 -32.914  1.00  0.00     0.337 C 
BRANCH  14  15
HETATM   15  N   UNL     1     -11.645   0.573 -33.219  1.00  0.00    -0.062 N 
HETATM   16  C   UNL     1     -11.520   1.646 -34.285  1.00  0.00     0.249 C 
HETATM   17  C   UNL     1     -12.810   2.462 -34.337  1.00  0.00     0.111 C 
HETATM   18  C   UNL     1     -14.020   1.550 -34.562  1.00  0.00     0.018 C 
HETATM   19  C   UNL     1     -14.074   0.417 -33.538  1.00  0.00     0.029 C 
HETATM   20  C   UNL     1     -12.773  -0.375 -33.477  1.00  0.00     0.235 C 
HETATM   21  H   UNL     1     -11.835   1.084 -32.335  1.00  0.00     0.280 HD
BRANCH  17  22
HETATM   22  C   UNL     1     -12.676   3.485 -35.443  1.00  0.00     0.264 C 
HETATM   23  O   UNL     1     -12.251   3.221 -36.558  1.00  0.00    -0.265 OA
BRANCH  22  24
HETATM   24  O   UNL     1     -13.066   4.709 -35.005  1.00  0.00    -0.322 OA
BRANCH  24  25
HETATM   25  C   UNL     1     -12.712   5.044 -33.652  1.00  0.00     0.174 C 
HETATM   26  C   UNL     1     -11.868   6.305 -33.638  1.00  0.00     0.034 C 
ENDBRANCH  24  25
ENDBRANCH  22  24
ENDBRANCH  17  22
ENDBRANCH  14  15
ENDBRANCH  11  14
ENDBRANCH   1  10
BRANCH   9  27
HETATM   27  C   UNL     1      -5.938   0.713 -32.524  1.00  0.00     0.259 C 
HETATM   28  N   UNL     1      -5.791   0.019 -33.708  1.00  0.00    -0.323 N 
HETATM   29  H   UNL     1      -5.989   0.519 -34.557  1.00  0.00     0.169 HD
HETATM   30  O   UNL     1      -5.835   0.216 -31.401  1.00  0.00    -0.267 OA
BRANCH  28  31
HETATM   31  C   UNL     1      -5.427  -1.330 -33.897  1.00  0.00     0.035 A 
HETATM   32  C   UNL     1      -6.148  -2.244 -34.667  1.00  0.00     0.031 A 
HETATM   33  C   UNL     1      -5.704  -3.567 -34.797  1.00  0.00     0.026 A 
HETATM   34  C   UNL     1      -4.544  -3.982 -34.149  1.00  0.00     0.034 A 
HETATM   35 CL   UNL     1      -4.006  -5.608 -34.306  1.00  0.00    -0.084 Cl
HETATM   36  C   UNL     1      -3.818  -3.085 -33.372  1.00  0.00     0.026 A 
HETATM   37  C   UNL     1      -4.257  -1.763 -33.252  1.00  0.00     0.031 A 
ENDBRANCH  28  31
ENDBRANCH   9  27
TORSDOF 8
ENDMDL
MODEL 10
REMARK VINA RESULT:      -8.2      3.138      5.963
REMARK  8 active torsions:
REMARK  status: ('A' for Active; 'I' for Inactive)
REMARK    1  A    between atoms: C_2  and  O_3 
REMARK    2  A    between atoms: O_3  and  C_4 
REMARK    3  A    between atoms: C_4  and  C_5 
REMARK    4  A    between atoms: N_7  and  C_9 
REMARK    5  A    between atoms: C_9  and  C_10 
REMARK       I    between atoms: C_10  and  N_11 
REMARK    6  A    between atoms: N_11  and  C_12 
REMARK    7  A    between atoms: C_20  and  C_21 
REMARK       I    between atoms: C_21  and  N_22 
REMARK    8  A    between atoms: N_22  and  C_23 
ROOT
HETATM    1  C   UNL     1      -9.178   3.504 -32.318  1.00  0.00     0.093 C 
HETATM    2  S   UNL     1     -10.459   4.593 -32.542  1.00  0.00    -0.075 SA
HETATM    3  C   UNL     1     -11.299   3.499 -33.517  1.00  0.00    -0.008 C 
HETATM    4  C   UNL     1     -10.638   2.290 -33.670  1.00  0.00    -0.026 C 
HETATM    5  C   UNL     1     -11.222   1.236 -34.577  1.00  0.00     0.041 C 
HETATM    6  C   UNL     1     -12.291   1.795 -35.528  1.00  0.00     0.005 C 
HETATM    7  C   UNL     1     -13.291   2.681 -34.779  1.00  0.00     0.005 C 
HETATM    8  C   UNL     1     -12.593   3.897 -34.164  1.00  0.00     0.047 C 
HETATM    9  C   UNL     1      -9.416   2.245 -32.870  1.00  0.00     0.073 C 
ENDROOT
BRANCH   1  10
HETATM   10  N   UNL     1      -8.081   3.891 -31.553  1.00  0.00    -0.319 N 
HETATM   11  C   UNL     1      -8.165   4.376 -30.269  1.00  0.00     0.248 C 
HETATM   12  O   UNL     1      -9.182   4.687 -29.642  1.00  0.00    -0.271 OA
HETATM   13  H   UNL     1      -7.241   4.081 -32.106  1.00  0.00     0.169 HD
BRANCH  11  14
HETATM   14  C   UNL     1      -6.825   4.561 -29.552  1.00  0.00     0.337 C 
BRANCH  14  15
HETATM   15  N   UNL     1      -5.716   3.940 -30.421  1.00  0.00    -0.062 N 
HETATM   16  C   UNL     1      -4.503   4.846 -30.540  1.00  0.00     0.249 C 
HETATM   17  C   UNL     1      -3.573   4.306 -31.624  1.00  0.00     0.111 C 
HETATM   18  C   UNL     1      -3.192   2.851 -31.337  1.00  0.00     0.018 C 
HETATM   19  C   UNL     1      -4.425   1.974 -31.122  1.00  0.00     0.029 C 
HETATM   20  C   UNL     1      -5.359   2.534 -30.056  1.00  0.00     0.235 C 
HETATM   21  H   UNL     1      -6.153   3.939 -31.363  1.00  0.00     0.280 HD
BRANCH  17  22
HETATM   22  C   UNL     1      -2.351   5.195 -31.681  1.00  0.00     0.264 C 
HETATM   23  O   UNL     1      -2.214   6.199 -30.997  1.00  0.00    -0.265 OA
BRANCH  22  24
HETATM   24  O   UNL     1      -1.471   4.731 -32.603  1.00  0.00    -0.322 OA
BRANCH  24  25
HETATM   25  C   UNL     1      -1.205   5.595 -33.722  1.00  0.00     0.174 C 
HETATM   26  C   UNL     1      -1.877   5.047 -34.967  1.00  0.00     0.034 C 
ENDBRANCH  24  25
ENDBRANCH  22  24
ENDBRANCH  17  22
ENDBRANCH  14  15
ENDBRANCH  11  14
ENDBRANCH   1  10
BRANCH   9  27
HETATM   27  C   UNL     1      -8.441   1.147 -32.648  1.00  0.00     0.259 C 
HETATM   28  N   UNL     1      -8.013   0.486 -33.782  1.00  0.00    -0.323 N 
HETATM   29  H   UNL     1      -8.436   0.755 -34.653  1.00  0.00     0.169 HD
HETATM   30  O   UNL     1      -8.099   0.864 -31.499  1.00  0.00    -0.267 OA
BRANCH  28  31
HETATM   31  C   UNL     1      -7.069  -0.556 -33.888  1.00  0.00     0.035 A 
HETATM   32  C   UNL     1      -7.305  -1.775 -34.527  1.00  0.00     0.031 A 
HETATM   33  C   UNL     1      -6.302  -2.751 -34.583  1.00  0.00     0.026 A 
HETATM   34  C   UNL     1      -5.064  -2.517 -33.991  1.00  0.00     0.034 A 
HETATM   35 CL   UNL     1      -3.838  -3.721 -34.056  1.00  0.00    -0.084 Cl
HETATM   36  C   UNL     1      -4.816  -1.311 -33.344  1.00  0.00     0.026 A 
HETATM   37  C   UNL     1      -5.815  -0.333 -33.298  1.00  0.00     0.031 A 
ENDBRANCH  28  31
ENDBRANCH   9  27
TORSDOF 8
ENDMDL
