MODEL 1
REMARK VINA RESULT:      -8.7      0.000      0.000
REMARK  6 active torsions:
REMARK  status: ('A' for Active; 'I' for Inactive)
REMARK    1  A    between atoms: C_2  and  C_3 
REMARK    2  A    between atoms: C_7  and  C_8 
REMARK       I    between atoms: C_8  and  N_9 
REMARK    3  A    between atoms: N_9  and  C_10 
REMARK    4  A    between atoms: C_10  and  C_11 
REMARK    5  A    between atoms: C_11  and  N_12 
REMARK       I    between atoms: N_12  and  C_13 
REMARK    6  A    between atoms: C_13  and  C_14 
ROOT
HETATM    1  C   UNL     1      -3.301   3.388 -32.362  1.00  0.00     0.142 C 
ENDROOT
BRANCH   1   2
HETATM    2  N   UNL     1      -2.280   3.783 -31.419  1.00  0.00    -0.354 N 
HETATM    3  C   UNL     1      -1.431   4.845 -31.640  1.00  0.00     0.272 C 
HETATM    4  O   UNL     1      -1.429   5.503 -32.675  1.00  0.00    -0.266 OA
HETATM    5  H   UNL     1      -2.228   3.361 -30.494  1.00  0.00     0.162 HD
BRANCH   3   6
HETATM    6  C   UNL     1      -0.544   5.129 -30.502  1.00  0.00     0.146 A 
HETATM    7  N   UNL     1       0.419   4.268 -30.110  1.00  0.00    -0.169 NA
HETATM    8  N   UNL     1       0.990   4.873 -29.056  1.00  0.00    -0.281 N 
HETATM    9  C   UNL     1       0.438   6.085 -28.743  1.00  0.00     0.033 A 
HETATM   10  H   UNL     1       1.758   4.399 -28.591  1.00  0.00     0.189 HD
HETATM   11  C   UNL     1      -0.562   6.278 -29.673  1.00  0.00     0.066 A 
BRANCH   9  12
HETATM   12  C   UNL     1       0.929   6.917 -27.600  1.00  0.00     0.029 C 
HETATM   13  C   UNL     1      -0.082   6.928 -26.452  1.00  0.00     0.016 C 
HETATM   14  C   UNL     1       1.240   8.342 -28.059  1.00  0.00     0.016 C 
ENDBRANCH   9  12
ENDBRANCH   3   6
ENDBRANCH   1   2
BRANCH   1  15
HETATM   15  C   UNL     1      -4.433   2.595 -31.697  1.00  0.00     0.142 C 
BRANCH  15  16
HETATM   16  N   UNL     1      -4.830   1.428 -32.467  1.00  0.00    -0.355 N 
HETATM   17  C   UNL     1      -4.299   0.184 -32.207  1.00  0.00     0.251 C 
HETATM   18  O   UNL     1      -3.463  -0.021 -31.335  1.00  0.00    -0.268 OA
HETATM   19  H   UNL     1      -5.356   1.594 -33.314  1.00  0.00     0.162 HD
BRANCH  17  20
HETATM   20  C   UNL     1      -4.766  -0.937 -33.071  1.00  0.00     0.033 A 
HETATM   21  C   UNL     1      -4.018  -2.122 -33.080  1.00  0.00     0.042 A 
HETATM   22  C   UNL     1      -4.422  -3.207 -33.863  1.00  0.00     0.056 A 
HETATM   23 CL   UNL     1      -3.447  -4.633 -33.829  1.00  0.00    -0.083 Cl
HETATM   24  C   UNL     1      -5.584  -3.115 -34.638  1.00  0.00     0.055 A 
HETATM   25 CL   UNL     1      -6.145  -4.413 -35.630  1.00  0.00    -0.083 Cl
HETATM   26  C   UNL     1      -6.339  -1.938 -34.620  1.00  0.00     0.026 A 
HETATM   27  C   UNL     1      -5.936  -0.853 -33.836  1.00  0.00     0.019 A 
ENDBRANCH  17  20
ENDBRANCH  15  16
ENDBRANCH   1  15
TORSDOF 6
ENDMDL
MODEL 2
REMARK VINA RESULT:      -8.7      2.292      3.234
REMARK  6 active torsions:
REMARK  status: ('A' for Active; 'I' for Inactive)
REMARK    1  A    between atoms: C_2  and  C_3 
REMARK    2  A    between atoms: C_7  and  C_8 
REMARK       I    between atoms: C_8  and  N_9 
REMARK    3  A    between atoms: N_9  and  C_10 
REMARK    4  A    between atoms: C_10  and  C_11 
REMARK    5  A    between atoms: C_11  and  N_12 
REMARK       I    between atoms: N_12  and  C_13 
REMARK    6  A    between atoms: C_13  and  C_14 
ROOT
HETATM    1  C   UNL     1      -6.150   3.905 -34.246  1.00  0.00     0.142 C 
ENDROOT
BRANCH   1   2
HETATM    2  N   UNL     1      -4.951   3.986 -33.444  1.00  0.00    -0.354 N 
HETATM    3  C   UNL     1      -3.921   4.856 -33.728  1.00  0.00     0.272 C 
HETATM    4  O   UNL     1      -3.909   5.589 -34.713  1.00  0.00    -0.266 OA
HETATM    5  H   UNL     1      -4.872   3.481 -32.564  1.00  0.00     0.162 HD
BRANCH   3   6
HETATM    6  C   UNL     1      -2.849   4.840 -32.721  1.00  0.00     0.146 A 
HETATM    7  N   UNL     1      -3.019   4.287 -31.501  1.00  0.00    -0.169 NA
HETATM    8  N   UNL     1      -1.841   4.480 -30.888  1.00  0.00    -0.281 N 
HETATM    9  C   UNL     1      -0.916   5.139 -31.651  1.00  0.00     0.033 A 
HETATM   10  H   UNL     1      -1.733   4.136 -29.939  1.00  0.00     0.189 HD
HETATM   11  C   UNL     1      -1.547   5.382 -32.853  1.00  0.00     0.066 A 
BRANCH   9  12
HETATM   12  C   UNL     1       0.458   5.455 -31.149  1.00  0.00     0.029 C 
HETATM   13  C   UNL     1       0.691   4.850 -29.764  1.00  0.00     0.016 C 
HETATM   14  C   UNL     1       0.693   6.966 -31.125  1.00  0.00     0.016 C 
ENDBRANCH   9  12
ENDBRANCH   3   6
ENDBRANCH   1   2
BRANCH   1  15
HETATM   15  C   UNL     1      -7.056   2.742 -33.824  1.00  0.00     0.142 C 
BRANCH  15  16
HETATM   16  N   UNL     1      -6.351   1.472 -33.765  1.00  0.00    -0.355 N 
HETATM   17  C   UNL     1      -6.827   0.358 -34.420  1.00  0.00     0.251 C 
HETATM   18  O   UNL     1      -7.861   0.355 -35.077  1.00  0.00    -0.268 OA
HETATM   19  H   UNL     1      -5.617   1.387 -33.077  1.00  0.00     0.162 HD
BRANCH  17  20
HETATM   20  C   UNL     1      -6.032  -0.895 -34.274  1.00  0.00     0.033 A 
HETATM   21  C   UNL     1      -6.520  -2.062 -34.877  1.00  0.00     0.042 A 
HETATM   22  C   UNL     1      -5.805  -3.259 -34.781  1.00  0.00     0.056 A 
HETATM   23 CL   UNL     1      -6.470  -4.659 -35.544  1.00  0.00    -0.083 Cl
HETATM   24  C   UNL     1      -4.591  -3.293 -34.085  1.00  0.00     0.055 A 
HETATM   25 CL   UNL     1      -3.652  -4.734 -33.924  1.00  0.00    -0.083 Cl
HETATM   26  C   UNL     1      -4.096  -2.126 -33.494  1.00  0.00     0.026 A 
HETATM   27  C   UNL     1      -4.810  -0.928 -33.592  1.00  0.00     0.019 A 
ENDBRANCH  17  20
ENDBRANCH  15  16
ENDBRANCH   1  15
TORSDOF 6
ENDMDL
MODEL 3
REMARK VINA RESULT:      -8.7      3.700      4.672
REMARK  6 active torsions:
REMARK  status: ('A' for Active; 'I' for Inactive)
REMARK    1  A    between atoms: C_2  and  C_3 
REMARK    2  A    between atoms: C_7  and  C_8 
REMARK       I    between atoms: C_8  and  N_9 
REMARK    3  A    between atoms: N_9  and  C_10 
REMARK    4  A    between atoms: C_10  and  C_11 
REMARK    5  A    between atoms: C_11  and  N_12 
REMARK       I    between atoms: N_12  and  C_13 
REMARK    6  A    between atoms: C_13  and  C_14 
ROOT
HETATM    1  C   UNL     1      -7.675   3.075 -32.374  1.00  0.00     0.142 C 
ENDROOT
BRANCH   1   2
HETATM    2  N   UNL     1      -6.409   3.563 -32.868  1.00  0.00    -0.354 N 
HETATM    3  C   UNL     1      -6.309   4.604 -33.765  1.00  0.00     0.272 C 
HETATM    4  O   UNL     1      -7.283   5.161 -34.263  1.00  0.00    -0.266 OA
HETATM    5  H   UNL     1      -5.529   3.232 -32.477  1.00  0.00     0.162 HD
BRANCH   3   6
HETATM    6  C   UNL     1      -4.921   5.000 -34.047  1.00  0.00     0.146 A 
HETATM    7  N   UNL     1      -4.449   5.112 -35.307  1.00  0.00    -0.169 NA
HETATM    8  N   UNL     1      -3.167   5.477 -35.144  1.00  0.00    -0.281 N 
HETATM    9  C   UNL     1      -2.784   5.600 -33.837  1.00  0.00     0.033 A 
HETATM   10  H   UNL     1      -2.602   5.624 -35.975  1.00  0.00     0.189 HD
HETATM   11  C   UNL     1      -3.910   5.299 -33.100  1.00  0.00     0.066 A 
BRANCH   9  12
HETATM   12  C   UNL     1      -1.395   5.993 -33.443  1.00  0.00     0.029 C 
HETATM   13  C   UNL     1      -0.910   5.175 -32.244  1.00  0.00     0.016 C 
HETATM   14  C   UNL     1      -1.318   7.490 -33.141  1.00  0.00     0.016 C 
ENDBRANCH   9  12
ENDBRANCH   3   6
ENDBRANCH   1   2
BRANCH   1  15
HETATM   15  C   UNL     1      -8.229   1.925 -33.225  1.00  0.00     0.142 C 
BRANCH  15  16
HETATM   16  N   UNL     1      -7.381   0.746 -33.199  1.00  0.00    -0.355 N 
HETATM   17  C   UNL     1      -6.826   0.237 -34.352  1.00  0.00     0.251 C 
HETATM   18  O   UNL     1      -7.013   0.725 -35.460  1.00  0.00    -0.268 OA
HETATM   19  H   UNL     1      -7.373   0.206 -32.344  1.00  0.00     0.162 HD
BRANCH  17  20
HETATM   20  C   UNL     1      -5.989  -0.988 -34.208  1.00  0.00     0.033 A 
HETATM   21  C   UNL     1      -6.422  -2.164 -34.836  1.00  0.00     0.042 A 
HETATM   22  C   UNL     1      -5.664  -3.335 -34.742  1.00  0.00     0.056 A 
HETATM   23 CL   UNL     1      -6.263  -4.748 -35.537  1.00  0.00    -0.083 Cl
HETATM   24  C   UNL     1      -4.463  -3.335 -34.023  1.00  0.00     0.055 A 
HETATM   25 CL   UNL     1      -3.475  -4.742 -33.864  1.00  0.00    -0.083 Cl
HETATM   26  C   UNL     1      -4.023  -2.159 -33.407  1.00  0.00     0.026 A 
HETATM   27  C   UNL     1      -4.779  -0.987 -33.502  1.00  0.00     0.019 A 
ENDBRANCH  17  20
ENDBRANCH  15  16
ENDBRANCH   1  15
TORSDOF 6
ENDMDL
MODEL 4
REMARK VINA RESULT:      -8.4      5.054      8.354
REMARK  6 active torsions:
REMARK  status: ('A' for Active; 'I' for Inactive)
REMARK    1  A    between atoms: C_2  and  C_3 
REMARK    2  A    between atoms: C_7  and  C_8 
REMARK       I    between atoms: C_8  and  N_9 
REMARK    3  A    between atoms: N_9  and  C_10 
REMARK    4  A    between atoms: C_10  and  C_11 
REMARK    5  A    between atoms: C_11  and  N_12 
REMARK       I    between atoms: N_12  and  C_13 
REMARK    6  A    between atoms: C_13  and  C_14 
ROOT
HETATM    1  C   UNL     1      -6.444   1.965 -29.865  1.00  0.00     0.142 C 
ENDROOT
BRANCH   1   2
HETATM    2  N   UNL     1      -7.618   1.512 -30.575  1.00  0.00    -0.354 N 
HETATM    3  C   UNL     1      -8.177   2.217 -31.618  1.00  0.00     0.272 C 
HETATM    4  O   UNL     1      -7.764   3.311 -31.991  1.00  0.00    -0.266 OA
HETATM    5  H   UNL     1      -8.010   0.589 -30.407  1.00  0.00     0.162 HD
BRANCH   3   6
HETATM    6  C   UNL     1      -9.301   1.518 -32.259  1.00  0.00     0.146 A 
HETATM    7  N   UNL     1      -9.491   0.189 -32.121  1.00  0.00    -0.169 NA
HETATM    8  N   UNL     1     -10.591  -0.061 -32.849  1.00  0.00    -0.281 N 
HETATM    9  C   UNL     1     -11.120   1.044 -33.458  1.00  0.00     0.033 A 
HETATM   10  H   UNL     1     -10.931  -1.017 -32.891  1.00  0.00     0.189 HD
HETATM   11  C   UNL     1     -10.300   2.089 -33.086  1.00  0.00     0.066 A 
BRANCH   9  12
HETATM   12  C   UNL     1     -12.343   0.977 -34.317  1.00  0.00     0.029 C 
HETATM   13  C   UNL     1     -12.931   2.371 -34.549  1.00  0.00     0.016 C 
HETATM   14  C   UNL     1     -13.389   0.046 -33.702  1.00  0.00     0.016 C 
ENDBRANCH   9  12
ENDBRANCH   3   6
ENDBRANCH   1   2
BRANCH   1  15
HETATM   15  C   UNL     1      -5.169   1.252 -30.333  1.00  0.00     0.142 C 
BRANCH  15  16
HETATM   16  N   UNL     1      -5.441   0.140 -31.227  1.00  0.00    -0.355 N 
HETATM   17  C   UNL     1      -4.729  -0.032 -32.394  1.00  0.00     0.251 C 
HETATM   18  O   UNL     1      -3.843   0.731 -32.759  1.00  0.00    -0.268 OA
HETATM   19  H   UNL     1      -6.289  -0.384 -31.063  1.00  0.00     0.162 HD
BRANCH  17  20
HETATM   20  C   UNL     1      -5.107  -1.197 -33.243  1.00  0.00     0.033 A 
HETATM   21  C   UNL     1      -4.228  -2.288 -33.299  1.00  0.00     0.042 A 
HETATM   22  C   UNL     1      -4.543  -3.410 -34.070  1.00  0.00     0.056 A 
HETATM   23 CL   UNL     1      -3.409  -4.714 -34.097  1.00  0.00    -0.083 Cl
HETATM   24  C   UNL     1      -5.745  -3.451 -34.786  1.00  0.00     0.055 A 
HETATM   25 CL   UNL     1      -6.202  -4.802 -35.760  1.00  0.00    -0.083 Cl
HETATM   26  C   UNL     1      -6.629  -2.369 -34.721  1.00  0.00     0.026 A 
HETATM   27  C   UNL     1      -6.316  -1.247 -33.949  1.00  0.00     0.019 A 
ENDBRANCH  17  20
ENDBRANCH  15  16
ENDBRANCH   1  15
TORSDOF 6
ENDMDL
MODEL 5
REMARK VINA RESULT:      -8.1      3.196      4.251
REMARK  6 active torsions:
REMARK  status: ('A' for Active; 'I' for Inactive)
REMARK    1  A    between atoms: C_2  and  C_3 
REMARK    2  A    between atoms: C_7  and  C_8 
REMARK       I    between atoms: C_8  and  N_9 
REMARK    3  A    between atoms: N_9  and  C_10 
REMARK    4  A    between atoms: C_10  and  C_11 
REMARK    5  A    between atoms: C_11  and  N_12 
REMARK       I    between atoms: N_12  and  C_13 
REMARK    6  A    between atoms: C_13  and  C_14 
ROOT
HETATM    1  C   UNL     1      -7.483   2.392 -30.700  1.00  0.00     0.142 C 
ENDROOT
BRANCH   1   2
HETATM    2  N   UNL     1      -6.419   3.282 -31.104  1.00  0.00    -0.354 N 
HETATM    3  C   UNL     1      -5.092   2.911 -31.093  1.00  0.00     0.272 C 
HETATM    4  O   UNL     1      -4.699   1.822 -30.686  1.00  0.00    -0.266 OA
HETATM    5  H   UNL     1      -6.621   4.185 -31.527  1.00  0.00     0.162 HD
BRANCH   3   6
HETATM    6  C   UNL     1      -4.195   3.939 -31.642  1.00  0.00     0.146 A 
HETATM    7  N   UNL     1      -4.520   5.249 -31.642  1.00  0.00    -0.169 NA
HETATM    8  N   UNL     1      -3.468   5.847 -32.225  1.00  0.00    -0.281 N 
HETATM    9  C   UNL     1      -2.479   4.983 -32.610  1.00  0.00     0.033 A 
HETATM   10  H   UNL     1      -3.490   6.856 -32.334  1.00  0.00     0.189 HD
HETATM   11  C   UNL     1      -2.925   3.733 -32.237  1.00  0.00     0.066 A 
BRANCH   9  12
HETATM   12  C   UNL     1      -1.225   5.449 -33.281  1.00  0.00     0.029 C 
HETATM   13  C   UNL     1      -0.851   6.862 -32.829  1.00  0.00     0.016 C 
HETATM   14  C   UNL     1      -1.368   5.389 -34.802  1.00  0.00     0.016 C 
ENDBRANCH   9  12
ENDBRANCH   3   6
ENDBRANCH   1   2
BRANCH   1  15
HETATM   15  C   UNL     1      -8.035   1.574 -31.874  1.00  0.00     0.142 C 
BRANCH  15  16
HETATM   16  N   UNL     1      -7.250   0.383 -32.150  1.00  0.00    -0.355 N 
HETATM   17  C   UNL     1      -6.493   0.273 -33.296  1.00  0.00     0.251 C 
HETATM   18  O   UNL     1      -6.439   1.148 -34.151  1.00  0.00    -0.268 OA
HETATM   19  H   UNL     1      -7.430  -0.428 -31.575  1.00  0.00     0.162 HD
BRANCH  17  20
HETATM   20  C   UNL     1      -5.743  -1.001 -33.483  1.00  0.00     0.033 A 
HETATM   21  C   UNL     1      -6.309  -1.988 -34.302  1.00  0.00     0.042 A 
HETATM   22  C   UNL     1      -5.637  -3.195 -34.521  1.00  0.00     0.056 A 
HETATM   23 CL   UNL     1      -6.398  -4.367 -35.537  1.00  0.00    -0.083 Cl
HETATM   24  C   UNL     1      -4.391  -3.419 -33.925  1.00  0.00     0.055 A 
HETATM   25 CL   UNL     1      -3.503  -4.883 -34.149  1.00  0.00    -0.083 Cl
HETATM   26  C   UNL     1      -3.819  -2.430 -33.118  1.00  0.00     0.026 A 
HETATM   27  C   UNL     1      -4.488  -1.222 -32.901  1.00  0.00     0.019 A 
ENDBRANCH  17  20
ENDBRANCH  15  16
ENDBRANCH   1  15
TORSDOF 6
ENDMDL
MODEL 6
REMARK VINA RESULT:      -7.8      4.750      8.509
REMARK  6 active torsions:
REMARK  status: ('A' for Active; 'I' for Inactive)
REMARK    1  A    between atoms: C_2  and  C_3 
REMARK    2  A    between atoms: C_7  and  C_8 
REMARK       I    between atoms: C_8  and  N_9 
REMARK    3  A    between atoms: N_9  and  C_10 
REMARK    4  A    between atoms: C_10  and  C_11 
REMARK    5  A    between atoms: C_11  and  N_12 
REMARK       I    between atoms: N_12  and  C_13 
REMARK    6  A    between atoms: C_13  and  C_14 
ROOT
HETATM    1  C   UNL     1      -6.261   3.125 -31.544  1.00  0.00     0.142 C 
ENDROOT
BRANCH   1   2
HETATM    2  N   UNL     1      -7.484   2.636 -32.138  1.00  0.00    -0.354 N 
HETATM    3  C   UNL     1      -8.016   1.401 -31.839  1.00  0.00     0.272 C 
HETATM    4  O   UNL     1      -7.469   0.592 -31.095  1.00  0.00    -0.266 OA
HETATM    5  H   UNL     1      -8.065   3.239 -32.715  1.00  0.00     0.162 HD
BRANCH   3   6
HETATM    6  C   UNL     1      -9.318   1.157 -32.479  1.00  0.00     0.146 A 
HETATM    7  N   UNL     1      -9.934  -0.043 -32.416  1.00  0.00    -0.169 NA
HETATM    8  N   UNL     1     -11.066   0.134 -33.116  1.00  0.00    -0.281 N 
HETATM    9  C   UNL     1     -11.210   1.392 -33.635  1.00  0.00     0.033 A 
HETATM   10  H   UNL     1     -11.702  -0.652 -33.204  1.00  0.00     0.189 HD
HETATM   11  C   UNL     1     -10.085   2.080 -33.231  1.00  0.00     0.066 A 
BRANCH   9  12
HETATM   12  C   UNL     1     -12.400   1.791 -34.450  1.00  0.00     0.029 C 
HETATM   13  C   UNL     1     -12.994   3.109 -33.948  1.00  0.00     0.016 C 
HETATM   14  C   UNL     1     -13.457   0.686 -34.445  1.00  0.00     0.016 C 
ENDBRANCH   9  12
ENDBRANCH   3   6
ENDBRANCH   1   2
BRANCH   1  15
HETATM   15  C   UNL     1      -5.027   2.787 -32.390  1.00  0.00     0.142 C 
BRANCH  15  16
HETATM   16  N   UNL     1      -4.896   1.365 -32.655  1.00  0.00    -0.355 N 
HETATM   17  C   UNL     1      -3.880   0.623 -32.095  1.00  0.00     0.251 C 
HETATM   18  O   UNL     1      -3.025   1.101 -31.360  1.00  0.00    -0.268 OA
HETATM   19  H   UNL     1      -5.454   0.985 -33.407  1.00  0.00     0.162 HD
BRANCH  17  20
HETATM   20  C   UNL     1      -3.833  -0.824 -32.451  1.00  0.00     0.033 A 
HETATM   21  C   UNL     1      -4.563  -1.255 -33.567  1.00  0.00     0.042 A 
HETATM   22  C   UNL     1      -4.541  -2.600 -33.950  1.00  0.00     0.056 A 
HETATM   23 CL   UNL     1      -5.470  -3.060 -35.332  1.00  0.00    -0.083 Cl
HETATM   24  C   UNL     1      -3.780  -3.521 -33.221  1.00  0.00     0.055 A 
HETATM   25 CL   UNL     1      -3.703  -5.197 -33.633  1.00  0.00    -0.083 Cl
HETATM   26  C   UNL     1      -3.040  -3.090 -32.115  1.00  0.00     0.026 A 
HETATM   27  C   UNL     1      -3.061  -1.746 -31.733  1.00  0.00     0.019 A 
ENDBRANCH  17  20
ENDBRANCH  15  16
ENDBRANCH   1  15
TORSDOF 6
ENDMDL
MODEL 7
REMARK VINA RESULT:      -7.8      3.599      4.978
REMARK  6 active torsions:
REMARK  status: ('A' for Active; 'I' for Inactive)
REMARK    1  A    between atoms: C_2  and  C_3 
REMARK    2  A    between atoms: C_7  and  C_8 
REMARK       I    between atoms: C_8  and  N_9 
REMARK    3  A    between atoms: N_9  and  C_10 
REMARK    4  A    between atoms: C_10  and  C_11 
REMARK    5  A    between atoms: C_11  and  N_12 
REMARK       I    between atoms: N_12  and  C_13 
REMARK    6  A    between atoms: C_13  and  C_14 
ROOT
HETATM    1  C   UNL     1      -8.752   2.618 -32.854  1.00  0.00     0.142 C 
ENDROOT
BRANCH   1   2
HETATM    2  N   UNL     1      -7.396   3.109 -32.766  1.00  0.00    -0.354 N 
HETATM    3  C   UNL     1      -6.968   4.239 -33.428  1.00  0.00     0.272 C 
HETATM    4  O   UNL     1      -7.680   4.886 -34.190  1.00  0.00    -0.266 OA
HETATM    5  H   UNL     1      -6.731   2.701 -32.113  1.00  0.00     0.162 HD
BRANCH   3   6
HETATM    6  C   UNL     1      -5.580   4.610 -33.110  1.00  0.00     0.146 A 
HETATM    7  N   UNL     1      -5.126   4.671 -31.841  1.00  0.00    -0.169 NA
HETATM    8  N   UNL     1      -3.844   5.047 -31.969  1.00  0.00    -0.281 N 
HETATM    9  C   UNL     1      -3.446   5.238 -33.265  1.00  0.00     0.033 A 
HETATM   10  H   UNL     1      -3.290   5.157 -31.126  1.00  0.00     0.189 HD
HETATM   11  C   UNL     1      -4.559   4.956 -34.030  1.00  0.00     0.066 A 
BRANCH   9  12
HETATM   12  C   UNL     1      -2.056   5.662 -33.621  1.00  0.00     0.029 C 
HETATM   13  C   UNL     1      -1.637   5.090 -34.977  1.00  0.00     0.016 C 
HETATM   14  C   UNL     1      -1.066   5.250 -32.532  1.00  0.00     0.016 C 
ENDBRANCH   9  12
ENDBRANCH   3   6
ENDBRANCH   1   2
BRANCH   1  15
HETATM   15  C   UNL     1      -8.901   1.501 -33.894  1.00  0.00     0.142 C 
BRANCH  15  16
HETATM   16  N   UNL     1      -7.952   0.419 -33.699  1.00  0.00    -0.355 N 
HETATM   17  C   UNL     1      -7.063   0.059 -34.688  1.00  0.00     0.251 C 
HETATM   18  O   UNL     1      -7.018   0.606 -35.783  1.00  0.00    -0.268 OA
HETATM   19  H   UNL     1      -8.096  -0.180 -32.898  1.00  0.00     0.162 HD
BRANCH  17  20
HETATM   20  C   UNL     1      -6.147  -1.078 -34.384  1.00  0.00     0.033 A 
HETATM   21  C   UNL     1      -5.111  -0.866 -33.465  1.00  0.00     0.042 A 
HETATM   22  C   UNL     1      -4.235  -1.904 -33.137  1.00  0.00     0.056 A 
HETATM   23 CL   UNL     1      -2.976  -1.568 -32.001  1.00  0.00    -0.083 Cl
HETATM   24  C   UNL     1      -4.395  -3.166 -33.723  1.00  0.00     0.055 A 
HETATM   25 CL   UNL     1      -3.353  -4.496 -33.366  1.00  0.00    -0.083 Cl
HETATM   26  C   UNL     1      -5.437  -3.383 -34.629  1.00  0.00     0.026 A 
HETATM   27  C   UNL     1      -6.315  -2.345 -34.957  1.00  0.00     0.019 A 
ENDBRANCH  17  20
ENDBRANCH  15  16
ENDBRANCH   1  15
TORSDOF 6
ENDMDL
MODEL 8
REMARK VINA RESULT:      -7.7      2.364      3.453
REMARK  6 active torsions:
REMARK  status: ('A' for Active; 'I' for Inactive)
REMARK    1  A    between atoms: C_2  and  C_3 
REMARK    2  A    between atoms: C_7  and  C_8 
REMARK       I    between atoms: C_8  and  N_9 
REMARK    3  A    between atoms: N_9  and  C_10 
REMARK    4  A    between atoms: C_10  and  C_11 
REMARK    5  A    between atoms: C_11  and  N_12 
REMARK       I    between atoms: N_12  and  C_13 
REMARK    6  A    between atoms: C_13  and  C_14 
ROOT
HETATM    1  C   UNL     1      -7.095   3.212 -32.731  1.00  0.00     0.142 C 
ENDROOT
BRANCH   1   2
HETATM    2  N   UNL     1      -5.857   3.867 -32.375  1.00  0.00    -0.354 N 
HETATM    3  C   UNL     1      -4.812   3.206 -31.768  1.00  0.00     0.272 C 
HETATM    4  O   UNL     1      -4.866   2.028 -31.426  1.00  0.00    -0.266 OA
HETATM    5  H   UNL     1      -5.664   4.821 -32.669  1.00  0.00     0.162 HD
BRANCH   3   6
HETATM    6  C   UNL     1      -3.615   4.042 -31.594  1.00  0.00     0.146 A 
HETATM    7  N   UNL     1      -2.409   3.516 -31.289  1.00  0.00    -0.169 NA
HETATM    8  N   UNL     1      -1.598   4.582 -31.208  1.00  0.00    -0.281 N 
HETATM    9  C   UNL     1      -2.223   5.777 -31.439  1.00  0.00     0.033 A 
HETATM   10  H   UNL     1      -0.620   4.424 -30.987  1.00  0.00     0.189 HD
HETATM   11  C   UNL     1      -3.539   5.454 -31.697  1.00  0.00     0.066 A 
BRANCH   9  12
HETATM   12  C   UNL     1      -1.495   7.084 -31.391  1.00  0.00     0.029 C 
HETATM   13  C   UNL     1       0.011   6.883 -31.565  1.00  0.00     0.016 C 
HETATM   14  C   UNL     1      -1.794   7.825 -30.088  1.00  0.00     0.016 C 
ENDBRANCH   9  12
ENDBRANCH   3   6
ENDBRANCH   1   2
BRANCH   1  15
HETATM   15  C   UNL     1      -7.006   2.493 -34.082  1.00  0.00     0.142 C 
BRANCH  15  16
HETATM   16  N   UNL     1      -6.252   1.253 -34.012  1.00  0.00    -0.355 N 
HETATM   17  C   UNL     1      -6.813   0.052 -34.387  1.00  0.00     0.251 C 
HETATM   18  O   UNL     1      -7.966  -0.056 -34.787  1.00  0.00    -0.268 OA
HETATM   19  H   UNL     1      -5.380   1.274 -33.502  1.00  0.00     0.162 HD
BRANCH  17  20
HETATM   20  C   UNL     1      -5.953  -1.159 -34.256  1.00  0.00     0.033 A 
HETATM   21  C   UNL     1      -4.945  -1.152 -33.282  1.00  0.00     0.042 A 
HETATM   22  C   UNL     1      -4.121  -2.269 -33.111  1.00  0.00     0.056 A 
HETATM   23 CL   UNL     1      -2.896  -2.187 -31.895  1.00  0.00    -0.083 Cl
HETATM   24  C   UNL     1      -4.306  -3.403 -33.910  1.00  0.00     0.055 A 
HETATM   25 CL   UNL     1      -3.328  -4.818 -33.756  1.00  0.00    -0.083 Cl
HETATM   26  C   UNL     1      -5.319  -3.416 -34.873  1.00  0.00     0.026 A 
HETATM   27  C   UNL     1      -6.145  -2.300 -35.045  1.00  0.00     0.019 A 
ENDBRANCH  17  20
ENDBRANCH  15  16
ENDBRANCH   1  15
TORSDOF 6
ENDMDL
MODEL 9
REMARK VINA RESULT:      -7.6      7.082     10.659
REMARK  6 active torsions:
REMARK  status: ('A' for Active; 'I' for Inactive)
REMARK    1  A    between atoms: C_2  and  C_3 
REMARK    2  A    between atoms: C_7  and  C_8 
REMARK       I    between atoms: C_8  and  N_9 
REMARK    3  A    between atoms: N_9  and  C_10 
REMARK    4  A    between atoms: C_10  and  C_11 
REMARK    5  A    between atoms: C_11  and  N_12 
REMARK       I    between atoms: N_12  and  C_13 
REMARK    6  A    between atoms: C_13  and  C_14 
ROOT
HETATM    1  C   UNL     1      -9.825   1.725 -32.885  1.00  0.00     0.142 C 
ENDROOT
BRANCH   1   2
HETATM    2  N   UNL     1     -11.258   1.848 -32.739  1.00  0.00    -0.354 N 
HETATM    3  C   UNL     1     -11.916   3.054 -32.836  1.00  0.00     0.272 C 
HETATM    4  O   UNL     1     -11.341   4.127 -32.993  1.00  0.00    -0.266 OA
HETATM    5  H   UNL     1     -11.852   1.025 -32.677  1.00  0.00     0.162 HD
BRANCH   3   6
HETATM    6  C   UNL     1     -13.379   2.928 -32.760  1.00  0.00     0.146 A 
HETATM    7  N   UNL     1     -14.048   1.939 -33.392  1.00  0.00    -0.169 NA
HETATM    8  N   UNL     1     -15.336   2.171 -33.092  1.00  0.00    -0.281 N 
HETATM    9  C   UNL     1     -15.534   3.269 -32.299  1.00  0.00     0.033 A 
HETATM   10  H   UNL     1     -16.036   1.538 -33.465  1.00  0.00     0.189 HD
HETATM   11  C   UNL     1     -14.274   3.779 -32.065  1.00  0.00     0.066 A 
BRANCH   9  12
HETATM   12  C   UNL     1     -16.897   3.700 -31.855  1.00  0.00     0.029 C 
HETATM   13  C   UNL     1     -17.988   2.916 -32.585  1.00  0.00     0.016 C 
HETATM   14  C   UNL     1     -17.084   5.204 -32.060  1.00  0.00     0.016 C 
ENDBRANCH   9  12
ENDBRANCH   3   6
ENDBRANCH   1   2
BRANCH   1  15
HETATM   15  C   UNL     1      -9.424   1.182 -34.261  1.00  0.00     0.142 C 
BRANCH  15  16
HETATM   16  N   UNL     1      -8.467   0.092 -34.180  1.00  0.00    -0.355 N 
HETATM   17  C   UNL     1      -7.116   0.310 -34.339  1.00  0.00     0.251 C 
HETATM   18  O   UNL     1      -6.637   1.414 -34.567  1.00  0.00    -0.268 OA
HETATM   19  H   UNL     1      -8.839  -0.848 -34.197  1.00  0.00     0.162 HD
BRANCH  17  20
HETATM   20  C   UNL     1      -6.230  -0.885 -34.254  1.00  0.00     0.033 A 
HETATM   21  C   UNL     1      -6.676  -2.083 -34.829  1.00  0.00     0.042 A 
HETATM   22  C   UNL     1      -5.875  -3.228 -34.787  1.00  0.00     0.056 A 
HETATM   23 CL   UNL     1      -6.494  -4.670 -35.511  1.00  0.00    -0.083 Cl
HETATM   24  C   UNL     1      -4.618  -3.179 -34.175  1.00  0.00     0.055 A 
HETATM   25 CL   UNL     1      -3.573  -4.552 -34.086  1.00  0.00    -0.083 Cl
HETATM   26  C   UNL     1      -4.165  -1.981 -33.613  1.00  0.00     0.026 A 
HETATM   27  C   UNL     1      -4.964  -0.835 -33.655  1.00  0.00     0.019 A 
ENDBRANCH  17  20
ENDBRANCH  15  16
ENDBRANCH   1  15
TORSDOF 6
ENDMDL
MODEL 10
REMARK VINA RESULT:      -7.4      4.615      8.115
REMARK  6 active torsions:
REMARK  status: ('A' for Active; 'I' for Inactive)
REMARK    1  A    between atoms: C_2  and  C_3 
REMARK    2  A    between atoms: C_7  and  C_8 
REMARK       I    between atoms: C_8  and  N_9 
REMARK    3  A    between atoms: N_9  and  C_10 
REMARK    4  A    between atoms: C_10  and  C_11 
REMARK    5  A    between atoms: C_11  and  N_12 
REMARK       I    between atoms: N_12  and  C_13 
REMARK    6  A    between atoms: C_13  and  C_14 
ROOT
HETATM    1  C   UNL     1      -3.518   2.592 -31.858  1.00  0.00     0.142 C 
ENDROOT
BRANCH   1   2
HETATM    2  N   UNL     1      -3.708   1.257 -32.377  1.00  0.00    -0.354 N 
HETATM    3  C   UNL     1      -3.139   0.144 -31.798  1.00  0.00     0.272 C 
HETATM    4  O   UNL     1      -2.378   0.198 -30.836  1.00  0.00    -0.266 OA
HETATM    5  H   UNL     1      -4.372   1.074 -33.126  1.00  0.00     0.162 HD
BRANCH   3   6
HETATM    6  C   UNL     1      -3.552  -1.118 -32.429  1.00  0.00     0.146 A 
HETATM    7  N   UNL     1      -3.085  -2.315 -32.014  1.00  0.00    -0.169 NA
HETATM    8  N   UNL     1      -3.679  -3.199 -32.831  1.00  0.00    -0.281 N 
HETATM    9  C   UNL     1      -4.505  -2.630 -33.761  1.00  0.00     0.033 A 
HETATM   10  H   UNL     1      -3.474  -4.184 -32.700  1.00  0.00     0.189 HD
HETATM   11  C   UNL     1      -4.444  -1.274 -33.519  1.00  0.00     0.066 A 
BRANCH   9  12
HETATM   12  C   UNL     1      -5.258  -3.444 -34.768  1.00  0.00     0.029 C 
HETATM   13  C   UNL     1      -6.745  -3.084 -34.765  1.00  0.00     0.016 C 
HETATM   14  C   UNL     1      -5.063  -4.938 -34.514  1.00  0.00     0.016 C 
ENDBRANCH   9  12
ENDBRANCH   3   6
ENDBRANCH   1   2
BRANCH   1  15
HETATM   15  C   UNL     1      -4.230   3.653 -32.706  1.00  0.00     0.142 C 
BRANCH  15  16
HETATM   16  N   UNL     1      -5.538   3.221 -33.168  1.00  0.00    -0.355 N 
HETATM   17  C   UNL     1      -6.694   3.663 -32.564  1.00  0.00     0.251 C 
HETATM   18  O   UNL     1      -6.701   4.427 -31.606  1.00  0.00    -0.268 OA
HETATM   19  H   UNL     1      -5.562   2.444 -33.814  1.00  0.00     0.162 HD
BRANCH  17  20
HETATM   20  C   UNL     1      -7.978   3.139 -33.111  1.00  0.00     0.033 A 
HETATM   21  C   UNL     1      -8.386   1.855 -32.726  1.00  0.00     0.042 A 
HETATM   22  C   UNL     1      -9.590   1.325 -33.200  1.00  0.00     0.056 A 
HETATM   23 CL   UNL     1     -10.026  -0.267 -32.689  1.00  0.00    -0.083 Cl
HETATM   24  C   UNL     1     -10.396   2.081 -34.059  1.00  0.00     0.055 A 
HETATM   25 CL   UNL     1     -11.894   1.493 -34.685  1.00  0.00    -0.083 Cl
HETATM   26  C   UNL     1      -9.996   3.367 -34.434  1.00  0.00     0.026 A 
HETATM   27  C   UNL     1      -8.794   3.899 -33.958  1.00  0.00     0.019 A 
ENDBRANCH  17  20
ENDBRANCH  15  16
ENDBRANCH   1  15
TORSDOF 6
ENDMDL
