MODEL 1
REMARK VINA RESULT:      -9.1      0.000      0.000
REMARK  2 active torsions:
REMARK  status: ('A' for Active; 'I' for Inactive)
REMARK    1  A    between atoms: C_2  and  N_3 
REMARK    2  A    between atoms: N_3  and  C_4 
ROOT
HETATM    1  C   UNL     1      -7.669   2.479 -33.305  1.00  0.00     0.143 A 
HETATM    2  N   UNL     1      -6.662   3.388 -33.307  1.00  0.00    -0.223 NA
HETATM    3  C   UNL     1      -6.891   4.638 -33.724  1.00  0.00     0.236 A 
HETATM    4  N   UNL     1      -8.039   5.140 -34.166  1.00  0.00    -0.234 NA
HETATM    5  C   UNL     1      -9.028   4.234 -34.162  1.00  0.00     0.114 A 
HETATM    6  C   UNL     1      -8.950   2.906 -33.752  1.00  0.00     0.053 A 
HETATM    7  S   UNL     1     -10.576   4.683 -34.710  1.00  0.00    -0.073 SA
HETATM    8  C   UNL     1     -11.187   3.126 -34.441  1.00  0.00    -0.008 A 
HETATM    9  C   UNL     1     -10.248   2.262 -33.900  1.00  0.00    -0.028 A 
HETATM   10  C   UNL     1     -10.607   0.833 -33.595  1.00  0.00     0.041 C 
HETATM   11  C   UNL     1     -12.120   0.567 -33.655  1.00  0.00     0.005 C 
HETATM   12  C   UNL     1     -12.786   1.265 -34.844  1.00  0.00     0.005 C 
HETATM   13  C   UNL     1     -12.612   2.786 -34.756  1.00  0.00     0.047 C 
ENDROOT
BRANCH   1  14
HETATM   14  N   UNL     1      -7.427   1.180 -32.834  1.00  0.00    -0.340 N 
HETATM   15  H   UNL     1      -7.939   0.935 -32.004  1.00  0.00     0.167 HD
BRANCH  14  16
HETATM   16  C   UNL     1      -6.566   0.165 -33.289  1.00  0.00     0.036 A 
HETATM   17  C   UNL     1      -5.196   0.129 -33.004  1.00  0.00     0.032 A 
HETATM   18  C   UNL     1      -4.389  -0.922 -33.452  1.00  0.00     0.042 A 
HETATM   19  C   UNL     1      -4.953  -1.984 -34.152  1.00  0.00     0.102 A 
HETATM   20  C   UNL     1      -6.317  -1.977 -34.434  1.00  0.00     0.104 A 
HETATM   21  O   UNL     1      -4.098  -2.947 -34.612  1.00  0.00    -0.348 OA
HETATM   22  C   UNL     1      -7.111  -0.902 -34.021  1.00  0.00     0.069 A 
HETATM   23  O   UNL     1      -6.932  -2.941 -35.185  1.00  0.00    -0.348 OA
HETATM   24  C   UNL     1      -6.862  -4.226 -34.565  1.00  0.00     0.178 C 
HETATM   25  C   UNL     1      -5.531  -4.916 -34.825  1.00  0.00     0.053 C 
HETATM   26  C   UNL     1      -4.401  -4.232 -34.071  1.00  0.00     0.178 C 
ENDBRANCH  14  16
ENDBRANCH   1  14
TORSDOF 2
ENDMDL
MODEL 2
REMARK VINA RESULT:      -8.9      3.566      7.422
REMARK  2 active torsions:
REMARK  status: ('A' for Active; 'I' for Inactive)
REMARK    1  A    between atoms: C_2  and  N_3 
REMARK    2  A    between atoms: N_3  and  C_4 
ROOT
HETATM    1  C   UNL     1      -5.534   0.417 -33.083  1.00  0.00     0.143 A 
HETATM    2  N   UNL     1      -5.178   1.416 -32.236  1.00  0.00    -0.223 NA
HETATM    3  C   UNL     1      -4.195   1.222 -31.350  1.00  0.00     0.236 A 
HETATM    4  N   UNL     1      -3.478   0.117 -31.174  1.00  0.00    -0.234 NA
HETATM    5  C   UNL     1      -3.839  -0.865 -32.014  1.00  0.00     0.114 A 
HETATM    6  C   UNL     1      -4.829  -0.814 -32.991  1.00  0.00     0.053 A 
HETATM    7  S   UNL     1      -3.046  -2.369 -31.932  1.00  0.00    -0.073 SA
HETATM    8  C   UNL     1      -4.004  -3.008 -33.174  1.00  0.00    -0.008 A 
HETATM    9  C   UNL     1      -4.902  -2.088 -33.692  1.00  0.00    -0.028 A 
HETATM   10  C   UNL     1      -5.842  -2.476 -34.802  1.00  0.00     0.041 C 
HETATM   11  C   UNL     1      -5.480  -3.820 -35.455  1.00  0.00     0.005 C 
HETATM   12  C   UNL     1      -5.070  -4.875 -34.423  1.00  0.00     0.005 C 
HETATM   13  C   UNL     1      -3.834  -4.423 -33.636  1.00  0.00     0.047 C 
ENDROOT
BRANCH   1  14
HETATM   14  N   UNL     1      -6.544   0.643 -34.031  1.00  0.00    -0.340 N 
HETATM   15  H   UNL     1      -6.221   0.678 -34.982  1.00  0.00     0.167 HD
BRANCH  14  16
HETATM   16  C   UNL     1      -7.925   0.867 -33.891  1.00  0.00     0.036 A 
HETATM   17  C   UNL     1      -8.779   0.010 -33.187  1.00  0.00     0.032 A 
HETATM   18  C   UNL     1     -10.141   0.297 -33.048  1.00  0.00     0.042 A 
HETATM   19  C   UNL     1     -10.662   1.476 -33.572  1.00  0.00     0.102 A 
HETATM   20  C   UNL     1      -9.827   2.351 -34.264  1.00  0.00     0.104 A 
HETATM   21  O   UNL     1     -12.011   1.664 -33.453  1.00  0.00    -0.348 OA
HETATM   22  C   UNL     1      -8.476   2.038 -34.437  1.00  0.00     0.069 A 
HETATM   23  O   UNL     1     -10.277   3.488 -34.877  1.00  0.00    -0.348 OA
HETATM   24  C   UNL     1     -10.814   4.423 -33.941  1.00  0.00     0.178 C 
HETATM   25  C   UNL     1     -12.252   4.095 -33.563  1.00  0.00     0.053 C 
HETATM   26  C   UNL     1     -12.322   2.840 -32.706  1.00  0.00     0.178 C 
ENDBRANCH  14  16
ENDBRANCH   1  14
TORSDOF 2
ENDMDL
MODEL 3
REMARK VINA RESULT:      -8.7      3.401      7.145
REMARK  2 active torsions:
REMARK  status: ('A' for Active; 'I' for Inactive)
REMARK    1  A    between atoms: C_2  and  N_3 
REMARK    2  A    between atoms: N_3  and  C_4 
ROOT
HETATM    1  C   UNL     1      -7.128   0.629 -31.615  1.00  0.00     0.143 A 
HETATM    2  N   UNL     1      -6.789   1.626 -30.759  1.00  0.00    -0.223 NA
HETATM    3  C   UNL     1      -5.501   1.917 -30.549  1.00  0.00     0.236 A 
HETATM    4  N   UNL     1      -4.443   1.327 -31.095  1.00  0.00    -0.234 NA
HETATM    5  C   UNL     1      -4.788   0.342 -31.939  1.00  0.00     0.114 A 
HETATM    6  C   UNL     1      -6.075  -0.072 -32.267  1.00  0.00     0.053 A 
HETATM    7  S   UNL     1      -3.570  -0.547 -32.728  1.00  0.00    -0.073 SA
HETATM    8  C   UNL     1      -4.709  -1.523 -33.514  1.00  0.00    -0.008 A 
HETATM    9  C   UNL     1      -6.017  -1.167 -33.224  1.00  0.00    -0.028 A 
HETATM   10  C   UNL     1      -7.169  -1.925 -33.828  1.00  0.00     0.041 C 
HETATM   11  C   UNL     1      -6.741  -2.860 -34.971  1.00  0.00     0.005 C 
HETATM   12  C   UNL     1      -5.443  -3.608 -34.653  1.00  0.00     0.005 C 
HETATM   13  C   UNL     1      -4.284  -2.627 -34.433  1.00  0.00     0.047 C 
ENDROOT
BRANCH   1  14
HETATM   14  N   UNL     1      -8.482   0.354 -31.854  1.00  0.00    -0.340 N 
HETATM   15  H   UNL     1      -8.858  -0.397 -31.302  1.00  0.00     0.167 HD
BRANCH  14  16
HETATM   16  C   UNL     1      -9.406   0.913 -32.755  1.00  0.00     0.036 A 
HETATM   17  C   UNL     1     -10.618   0.302 -33.096  1.00  0.00     0.032 A 
HETATM   18  C   UNL     1     -11.519   0.917 -33.972  1.00  0.00     0.042 A 
HETATM   19  C   UNL     1     -11.242   2.181 -34.483  1.00  0.00     0.102 A 
HETATM   20  C   UNL     1     -10.047   2.814 -34.145  1.00  0.00     0.104 A 
HETATM   21  O   UNL     1     -12.136   2.697 -35.380  1.00  0.00    -0.348 OA
HETATM   22  C   UNL     1      -9.132   2.176 -33.303  1.00  0.00     0.069 A 
HETATM   23  O   UNL     1      -9.665   4.019 -34.668  1.00  0.00    -0.348 OA
HETATM   24  C   UNL     1     -10.559   5.069 -34.300  1.00  0.00     0.178 C 
HETATM   25  C   UNL     1     -11.793   5.110 -35.190  1.00  0.00     0.053 C 
HETATM   26  C   UNL     1     -12.705   3.923 -34.921  1.00  0.00     0.178 C 
ENDBRANCH  14  16
ENDBRANCH   1  14
TORSDOF 2
ENDMDL
MODEL 4
REMARK VINA RESULT:      -8.6      4.465      7.174
REMARK  2 active torsions:
REMARK  status: ('A' for Active; 'I' for Inactive)
REMARK    1  A    between atoms: C_2  and  N_3 
REMARK    2  A    between atoms: N_3  and  C_4 
ROOT
HETATM    1  C   UNL     1      -6.361   2.358 -31.522  1.00  0.00     0.143 A 
HETATM    2  N   UNL     1      -7.221   3.288 -31.035  1.00  0.00    -0.223 NA
HETATM    3  C   UNL     1      -8.537   3.139 -31.215  1.00  0.00     0.236 A 
HETATM    4  N   UNL     1      -9.156   2.146 -31.844  1.00  0.00    -0.234 NA
HETATM    5  C   UNL     1      -8.299   1.233 -32.323  1.00  0.00     0.114 A 
HETATM    6  C   UNL     1      -6.911   1.242 -32.211  1.00  0.00     0.053 A 
HETATM    7  S   UNL     1      -8.900  -0.111 -33.178  1.00  0.00    -0.073 SA
HETATM    8  C   UNL     1      -7.339  -0.713 -33.446  1.00  0.00    -0.008 A 
HETATM    9  C   UNL     1      -6.352   0.066 -32.862  1.00  0.00    -0.028 A 
HETATM   10  C   UNL     1      -4.900  -0.310 -32.996  1.00  0.00     0.041 C 
HETATM   11  C   UNL     1      -4.695  -1.733 -33.543  1.00  0.00     0.005 C 
HETATM   12  C   UNL     1      -5.658  -2.058 -34.689  1.00  0.00     0.005 C 
HETATM   13  C   UNL     1      -7.116  -1.975 -34.221  1.00  0.00     0.047 C 
ENDROOT
BRANCH   1  14
HETATM   14  N   UNL     1      -4.984   2.506 -31.300  1.00  0.00    -0.340 N 
HETATM   15  H   UNL     1      -4.612   1.914 -30.577  1.00  0.00     0.167 HD
BRANCH  14  16
HETATM   16  C   UNL     1      -4.029   3.361 -31.879  1.00  0.00     0.036 A 
HETATM   17  C   UNL     1      -4.255   4.087 -33.054  1.00  0.00     0.032 A 
HETATM   18  C   UNL     1      -3.284   4.951 -33.571  1.00  0.00     0.042 A 
HETATM   19  C   UNL     1      -2.086   5.141 -32.889  1.00  0.00     0.102 A 
HETATM   20  C   UNL     1      -1.845   4.439 -31.710  1.00  0.00     0.104 A 
HETATM   21  O   UNL     1      -1.157   5.952 -33.481  1.00  0.00    -0.348 OA
HETATM   22  C   UNL     1      -2.802   3.544 -31.221  1.00  0.00     0.069 A 
HETATM   23  O   UNL     1      -0.663   4.508 -31.024  1.00  0.00    -0.348 OA
HETATM   24  C   UNL     1      -0.408   5.824 -30.531  1.00  0.00     0.178 C 
HETATM   25  C   UNL     1       0.192   6.730 -31.596  1.00  0.00     0.053 C 
HETATM   26  C   UNL     1      -0.834   7.077 -32.664  1.00  0.00     0.178 C 
ENDBRANCH  14  16
ENDBRANCH   1  14
TORSDOF 2
ENDMDL
MODEL 5
REMARK VINA RESULT:      -8.6      2.295      4.456
REMARK  2 active torsions:
REMARK  status: ('A' for Active; 'I' for Inactive)
REMARK    1  A    between atoms: C_2  and  N_3 
REMARK    2  A    between atoms: N_3  and  C_4 
ROOT
HETATM    1  C   UNL     1      -6.870   1.628 -31.795  1.00  0.00     0.143 A 
HETATM    2  N   UNL     1      -8.201   1.398 -31.663  1.00  0.00    -0.223 NA
HETATM    3  C   UNL     1      -9.080   2.335 -32.032  1.00  0.00     0.236 A 
HETATM    4  N   UNL     1      -8.813   3.534 -32.540  1.00  0.00    -0.234 NA
HETATM    5  C   UNL     1      -7.495   3.752 -32.665  1.00  0.00     0.114 A 
HETATM    6  C   UNL     1      -6.463   2.879 -32.336  1.00  0.00     0.053 A 
HETATM    7  S   UNL     1      -6.950   5.241 -33.283  1.00  0.00    -0.073 SA
HETATM    8  C   UNL     1      -5.327   4.784 -33.114  1.00  0.00    -0.008 A 
HETATM    9  C   UNL     1      -5.177   3.495 -32.630  1.00  0.00    -0.028 A 
HETATM   10  C   UNL     1      -3.805   2.914 -32.409  1.00  0.00     0.041 C 
HETATM   11  C   UNL     1      -2.687   3.753 -33.048  1.00  0.00     0.005 C 
HETATM   12  C   UNL     1      -2.901   5.256 -32.845  1.00  0.00     0.005 C 
HETATM   13  C   UNL     1      -4.215   5.716 -33.488  1.00  0.00     0.047 C 
ENDROOT
BRANCH   1  14
HETATM   14  N   UNL     1      -5.957   0.625 -31.435  1.00  0.00    -0.340 N 
HETATM   15  H   UNL     1      -5.614   0.693 -30.493  1.00  0.00     0.167 HD
BRANCH  14  16
HETATM   16  C   UNL     1      -5.401  -0.440 -32.167  1.00  0.00     0.036 A 
HETATM   17  C   UNL     1      -4.165  -1.023 -31.863  1.00  0.00     0.032 A 
HETATM   18  C   UNL     1      -3.672  -2.104 -32.601  1.00  0.00     0.042 A 
HETATM   19  C   UNL     1      -4.435  -2.654 -33.627  1.00  0.00     0.102 A 
HETATM   20  C   UNL     1      -5.675  -2.099 -33.936  1.00  0.00     0.104 A 
HETATM   21  O   UNL     1      -3.868  -3.669 -34.346  1.00  0.00    -0.348 OA
HETATM   22  C   UNL     1      -6.144  -0.991 -33.223  1.00  0.00     0.069 A 
HETATM   23  O   UNL     1      -6.449  -2.529 -34.980  1.00  0.00    -0.348 OA
HETATM   24  C   UNL     1      -6.871  -3.882 -34.809  1.00  0.00     0.178 C 
HETATM   25  C   UNL     1      -5.800  -4.876 -35.235  1.00  0.00     0.053 C 
HETATM   26  C   UNL     1      -4.630  -4.873 -34.262  1.00  0.00     0.178 C 
ENDBRANCH  14  16
ENDBRANCH   1  14
TORSDOF 2
ENDMDL
MODEL 6
REMARK VINA RESULT:      -8.6      2.378      3.314
REMARK  2 active torsions:
REMARK  status: ('A' for Active; 'I' for Inactive)
REMARK    1  A    between atoms: C_2  and  N_3 
REMARK    2  A    between atoms: N_3  and  C_4 
ROOT
HETATM    1  C   UNL     1      -4.297   2.076 -31.804  1.00  0.00     0.143 A 
HETATM    2  N   UNL     1      -3.036   2.518 -31.564  1.00  0.00    -0.223 NA
HETATM    3  C   UNL     1      -2.711   3.787 -31.834  1.00  0.00     0.236 A 
HETATM    4  N   UNL     1      -3.500   4.729 -32.338  1.00  0.00    -0.234 NA
HETATM    5  C   UNL     1      -4.743   4.283 -32.574  1.00  0.00     0.114 A 
HETATM    6  C   UNL     1      -5.234   3.002 -32.339  1.00  0.00     0.053 A 
HETATM    7  S   UNL     1      -5.900   5.340 -33.237  1.00  0.00    -0.073 SA
HETATM    8  C   UNL     1      -7.084   4.129 -33.254  1.00  0.00    -0.008 A 
HETATM    9  C   UNL     1      -6.636   2.928 -32.726  1.00  0.00    -0.028 A 
HETATM   10  C   UNL     1      -7.548   1.732 -32.660  1.00  0.00     0.041 C 
HETATM   11  C   UNL     1      -9.020   2.082 -32.935  1.00  0.00     0.005 C 
HETATM   12  C   UNL     1      -9.175   3.075 -34.090  1.00  0.00     0.005 C 
HETATM   13  C   UNL     1      -8.461   4.396 -33.779  1.00  0.00     0.047 C 
ENDROOT
BRANCH   1  14
HETATM   14  N   UNL     1      -4.637   0.753 -31.486  1.00  0.00    -0.340 N 
HETATM   15  H   UNL     1      -5.106   0.644 -30.603  1.00  0.00     0.167 HD
BRANCH  14  16
HETATM   16  C   UNL     1      -4.408  -0.460 -32.160  1.00  0.00     0.036 A 
HETATM   17  C   UNL     1      -3.454  -1.401 -31.755  1.00  0.00     0.032 A 
HETATM   18  C   UNL     1      -3.290  -2.609 -32.441  1.00  0.00     0.042 A 
HETATM   19  C   UNL     1      -4.116  -2.917 -33.517  1.00  0.00     0.102 A 
HETATM   20  C   UNL     1      -5.082  -2.002 -33.929  1.00  0.00     0.104 A 
HETATM   21  O   UNL     1      -3.861  -4.086 -34.179  1.00  0.00    -0.348 OA
HETATM   22  C   UNL     1      -5.213  -0.778 -33.266  1.00  0.00     0.069 A 
HETATM   23  O   UNL     1      -5.878  -2.195 -35.025  1.00  0.00    -0.348 OA
HETATM   24  C   UNL     1      -6.729  -3.331 -34.874  1.00  0.00     0.178 C 
HETATM   25  C   UNL     1      -6.012  -4.633 -35.204  1.00  0.00     0.053 C 
HETATM   26  C   UNL     1      -4.978  -4.975 -34.142  1.00  0.00     0.178 C 
ENDBRANCH  14  16
ENDBRANCH   1  14
TORSDOF 2
ENDMDL
MODEL 7
REMARK VINA RESULT:      -8.5      2.113      3.070
REMARK  2 active torsions:
REMARK  status: ('A' for Active; 'I' for Inactive)
REMARK    1  A    between atoms: C_2  and  N_3 
REMARK    2  A    between atoms: N_3  and  C_4 
ROOT
HETATM    1  C   UNL     1      -9.843   2.851 -33.882  1.00  0.00     0.143 A 
HETATM    2  N   UNL     1      -8.995   3.874 -33.603  1.00  0.00    -0.223 NA
HETATM    3  C   UNL     1      -9.424   4.922 -32.892  1.00  0.00     0.236 A 
HETATM    4  N   UNL     1     -10.641   5.112 -32.394  1.00  0.00    -0.234 NA
HETATM    5  C   UNL     1     -11.472   4.098 -32.676  1.00  0.00     0.114 A 
HETATM    6  C   UNL     1     -11.175   2.941 -33.392  1.00  0.00     0.053 A 
HETATM    7  S   UNL     1     -13.085   4.163 -32.136  1.00  0.00    -0.073 SA
HETATM    8  C   UNL     1     -13.447   2.671 -32.852  1.00  0.00    -0.008 A 
HETATM    9  C   UNL     1     -12.352   2.088 -33.470  1.00  0.00    -0.028 A 
HETATM   10  C   UNL     1     -12.482   0.759 -34.165  1.00  0.00     0.041 C 
HETATM   11  C   UNL     1     -13.802   0.039 -33.845  1.00  0.00     0.005 C 
HETATM   12  C   UNL     1     -14.998   0.996 -33.837  1.00  0.00     0.005 C 
HETATM   13  C   UNL     1     -14.823   2.085 -32.771  1.00  0.00     0.047 C 
ENDROOT
BRANCH   1  14
HETATM   14  N   UNL     1      -9.374   1.741 -34.600  1.00  0.00    -0.340 N 
HETATM   15  H   UNL     1      -9.885   1.543 -35.442  1.00  0.00     0.167 HD
BRANCH  14  16
HETATM   16  C   UNL     1      -8.338   0.827 -34.337  1.00  0.00     0.036 A 
HETATM   17  C   UNL     1      -7.749   0.023 -35.320  1.00  0.00     0.032 A 
HETATM   18  C   UNL     1      -6.697  -0.846 -35.012  1.00  0.00     0.042 A 
HETATM   19  C   UNL     1      -6.183  -0.888 -33.720  1.00  0.00     0.102 A 
HETATM   20  C   UNL     1      -6.744  -0.086 -32.729  1.00  0.00     0.104 A 
HETATM   21  O   UNL     1      -5.196  -1.803 -33.475  1.00  0.00    -0.348 OA
HETATM   22  C   UNL     1      -7.823   0.749 -33.033  1.00  0.00     0.069 A 
HETATM   23  O   UNL     1      -6.350  -0.128 -31.419  1.00  0.00    -0.348 OA
HETATM   24  C   UNL     1      -4.990   0.276 -31.257  1.00  0.00     0.178 C 
HETATM   25  C   UNL     1      -4.016  -0.856 -31.554  1.00  0.00     0.053 C 
HETATM   26  C   UNL     1      -3.987  -1.180 -33.040  1.00  0.00     0.178 C 
ENDBRANCH  14  16
ENDBRANCH   1  14
TORSDOF 2
ENDMDL
MODEL 8
REMARK VINA RESULT:      -8.1     14.635     16.350
REMARK  2 active torsions:
REMARK  status: ('A' for Active; 'I' for Inactive)
REMARK    1  A    between atoms: C_2  and  N_3 
REMARK    2  A    between atoms: N_3  and  C_4 
ROOT
HETATM    1  C   UNL     1      -5.696 -12.796 -38.130  1.00  0.00     0.143 A 
HETATM    2  N   UNL     1      -4.914 -12.610 -39.223  1.00  0.00    -0.223 NA
HETATM    3  C   UNL     1      -3.660 -13.075 -39.234  1.00  0.00     0.236 A 
HETATM    4  N   UNL     1      -3.038 -13.732 -38.262  1.00  0.00    -0.234 NA
HETATM    5  C   UNL     1      -3.818 -13.910 -37.185  1.00  0.00     0.114 A 
HETATM    6  C   UNL     1      -5.137 -13.496 -37.025  1.00  0.00     0.053 A 
HETATM    7  S   UNL     1      -3.193 -14.719 -35.824  1.00  0.00    -0.073 SA
HETATM    8  C   UNL     1      -4.644 -14.527 -34.971  1.00  0.00    -0.008 A 
HETATM    9  C   UNL     1      -5.627 -13.889 -35.712  1.00  0.00    -0.028 A 
HETATM   10  C   UNL     1      -6.985 -13.627 -35.118  1.00  0.00     0.041 C 
HETATM   11  C   UNL     1      -7.224 -14.387 -33.803  1.00  0.00     0.005 C 
HETATM   12  C   UNL     1      -5.995 -14.368 -32.890  1.00  0.00     0.005 C 
HETATM   13  C   UNL     1      -4.795 -15.036 -33.570  1.00  0.00     0.047 C 
ENDROOT
BRANCH   1  14
HETATM   14  N   UNL     1      -7.021 -12.333 -38.141  1.00  0.00    -0.340 N 
HETATM   15  H   UNL     1      -7.184 -11.523 -37.569  1.00  0.00     0.167 HD
BRANCH  14  16
HETATM   16  C   UNL     1      -8.176 -12.819 -38.779  1.00  0.00     0.036 A 
HETATM   17  C   UNL     1      -9.025 -12.020 -39.554  1.00  0.00     0.032 A 
HETATM   18  C   UNL     1     -10.144 -12.560 -40.197  1.00  0.00     0.042 A 
HETATM   19  C   UNL     1     -10.403 -13.924 -40.114  1.00  0.00     0.102 A 
HETATM   20  C   UNL     1      -9.564 -14.742 -39.361  1.00  0.00     0.104 A 
HETATM   21  O   UNL     1     -11.546 -14.375 -40.715  1.00  0.00    -0.348 OA
HETATM   22  C   UNL     1      -8.471 -14.189 -38.686  1.00  0.00     0.069 A 
HETATM   23  O   UNL     1      -9.795 -16.076 -39.164  1.00  0.00    -0.348 OA
HETATM   24  C   UNL     1      -9.747 -16.812 -40.387  1.00  0.00     0.178 C 
HETATM   25  C   UNL     1     -11.056 -16.730 -41.158  1.00  0.00     0.053 C 
HETATM   26  C   UNL     1     -11.269 -15.337 -41.733  1.00  0.00     0.178 C 
ENDBRANCH  14  16
ENDBRANCH   1  14
TORSDOF 2
ENDMDL
MODEL 9
REMARK VINA RESULT:      -8.0      4.089      7.588
REMARK  2 active torsions:
REMARK  status: ('A' for Active; 'I' for Inactive)
REMARK    1  A    between atoms: C_2  and  N_3 
REMARK    2  A    between atoms: N_3  and  C_4 
ROOT
HETATM    1  C   UNL     1      -7.280   2.356 -32.739  1.00  0.00     0.143 A 
HETATM    2  N   UNL     1      -8.423   2.636 -33.415  1.00  0.00    -0.223 NA
HETATM    3  C   UNL     1      -8.891   1.773 -34.322  1.00  0.00     0.236 A 
HETATM    4  N   UNL     1      -8.357   0.609 -34.675  1.00  0.00    -0.234 NA
HETATM    5  C   UNL     1      -7.227   0.340 -34.004  1.00  0.00     0.114 A 
HETATM    6  C   UNL     1      -6.621   1.129 -33.030  1.00  0.00     0.053 A 
HETATM    7  S   UNL     1      -6.384  -1.102 -34.328  1.00  0.00    -0.073 SA
HETATM    8  C   UNL     1      -5.176  -0.718 -33.203  1.00  0.00    -0.008 A 
HETATM    9  C   UNL     1      -5.413   0.478 -32.543  1.00  0.00    -0.028 A 
HETATM   10  C   UNL     1      -4.446   0.986 -31.507  1.00  0.00     0.041 C 
HETATM   11  C   UNL     1      -3.413  -0.069 -31.080  1.00  0.00     0.005 C 
HETATM   12  C   UNL     1      -2.878  -0.872 -32.269  1.00  0.00     0.005 C 
HETATM   13  C   UNL     1      -4.009  -1.629 -32.975  1.00  0.00     0.047 C 
ENDROOT
BRANCH   1  14
HETATM   14  N   UNL     1      -6.815   3.252 -31.766  1.00  0.00    -0.340 N 
HETATM   15  H   UNL     1      -7.186   3.096 -30.845  1.00  0.00     0.167 HD
BRANCH  14  16
HETATM   16  C   UNL     1      -5.950   4.358 -31.849  1.00  0.00     0.036 A 
HETATM   17  C   UNL     1      -5.617   5.163 -30.753  1.00  0.00     0.032 A 
HETATM   18  C   UNL     1      -4.724   6.231 -30.882  1.00  0.00     0.042 A 
HETATM   19  C   UNL     1      -4.108   6.481 -32.105  1.00  0.00     0.102 A 
HETATM   20  C   UNL     1      -4.413   5.683 -33.206  1.00  0.00     0.104 A 
HETATM   21  O   UNL     1      -3.293   7.577 -32.176  1.00  0.00    -0.348 OA
HETATM   22  C   UNL     1      -5.339   4.644 -33.081  1.00  0.00     0.069 A 
HETATM   23  O   UNL     1      -3.913   5.913 -34.459  1.00  0.00    -0.348 OA
HETATM   24  C   UNL     1      -2.492   5.777 -34.500  1.00  0.00     0.178 C 
HETATM   25  C   UNL     1      -1.781   7.034 -34.020  1.00  0.00     0.053 C 
HETATM   26  C   UNL     1      -1.953   7.224 -32.520  1.00  0.00     0.178 C 
ENDBRANCH  14  16
ENDBRANCH   1  14
TORSDOF 2
ENDMDL
MODEL 10
REMARK VINA RESULT:      -7.9      4.380      6.766
REMARK  2 active torsions:
REMARK  status: ('A' for Active; 'I' for Inactive)
REMARK    1  A    between atoms: C_2  and  N_3 
REMARK    2  A    between atoms: N_3  and  C_4 
ROOT
HETATM    1  C   UNL     1      -6.826   4.081 -33.996  1.00  0.00     0.143 A 
HETATM    2  N   UNL     1      -7.491   5.263 -33.990  1.00  0.00    -0.223 NA
HETATM    3  C   UNL     1      -8.814   5.285 -33.796  1.00  0.00     0.236 A 
HETATM    4  N   UNL     1      -9.615   4.244 -33.598  1.00  0.00    -0.234 NA
HETATM    5  C   UNL     1      -8.949   3.079 -33.607  1.00  0.00     0.114 A 
HETATM    6  C   UNL     1      -7.581   2.894 -33.787  1.00  0.00     0.053 A 
HETATM    7  S   UNL     1      -9.805   1.625 -33.387  1.00  0.00    -0.073 SA
HETATM    8  C   UNL     1      -8.394   0.701 -33.543  1.00  0.00    -0.008 A 
HETATM    9  C   UNL     1      -7.258   1.475 -33.722  1.00  0.00    -0.028 A 
HETATM   10  C   UNL     1      -5.908   0.830 -33.884  1.00  0.00     0.041 C 
HETATM   11  C   UNL     1      -5.910  -0.666 -33.527  1.00  0.00     0.005 C 
HETATM   12  C   UNL     1      -7.150  -1.389 -34.060  1.00  0.00     0.005 C 
HETATM   13  C   UNL     1      -8.432  -0.794 -33.463  1.00  0.00     0.047 C 
ENDROOT
BRANCH   1  14
HETATM   14  N   UNL     1      -5.433   4.071 -34.167  1.00  0.00    -0.340 N 
HETATM   15  H   UNL     1      -5.130   3.845 -35.099  1.00  0.00     0.167 HD
BRANCH  14  16
HETATM   16  C   UNL     1      -4.378   4.284 -33.262  1.00  0.00     0.036 A 
HETATM   17  C   UNL     1      -3.812   3.267 -32.483  1.00  0.00     0.032 A 
HETATM   18  C   UNL     1      -2.740   3.525 -31.623  1.00  0.00     0.042 A 
HETATM   19  C   UNL     1      -2.182   4.798 -31.566  1.00  0.00     0.102 A 
HETATM   20  C   UNL     1      -2.719   5.821 -32.344  1.00  0.00     0.104 A 
HETATM   21  O   UNL     1      -1.176   4.994 -30.660  1.00  0.00    -0.348 OA
HETATM   22  C   UNL     1      -3.819   5.568 -33.170  1.00  0.00     0.069 A 
HETATM   23  O   UNL     1      -2.281   7.116 -32.285  1.00  0.00    -0.348 OA
HETATM   24  C   UNL     1      -0.921   7.239 -32.704  1.00  0.00     0.178 C 
HETATM   25  C   UNL     1       0.056   6.890 -31.591  1.00  0.00     0.053 C 
HETATM   26  C   UNL     1       0.039   5.399 -31.291  1.00  0.00     0.178 C 
ENDBRANCH  14  16
ENDBRANCH   1  14
TORSDOF 2
ENDMDL
