MODEL 1
REMARK VINA RESULT:      -8.4      0.000      0.000
REMARK  9 active torsions:
REMARK  status: ('A' for Active; 'I' for Inactive)
REMARK    1  A    between atoms: C_2  and  N_3 
REMARK    2  A    between atoms: C_4  and  S_5 
REMARK    3  A    between atoms: S_5  and  C_6 
REMARK    4  A    between atoms: C_6  and  C_7 
REMARK       I    between atoms: C_7  and  N_8 
REMARK    5  A    between atoms: N_8  and  C_9 
REMARK    6  A    between atoms: C_9  and  C_10 
REMARK    7  A    between atoms: C_10  and  C_11 
REMARK    8  A    between atoms: C_20  and  C_21 
REMARK    9  A    between atoms: C_24  and  O_25 
ROOT
HETATM    1  N   UNL     1      -1.813   6.118 -30.422  1.00  0.00    -0.308 N 
HETATM    2  C   UNL     1      -1.916   5.159 -31.400  1.00  0.00     0.192 A 
HETATM    3  N   UNL     1      -0.800   4.484 -31.491  1.00  0.00    -0.122 NA
HETATM    4  N   UNL     1       0.046   4.966 -30.536  1.00  0.00    -0.128 NA
HETATM    5  C   UNL     1      -0.548   5.950 -29.873  1.00  0.00     0.164 A 
ENDROOT
BRANCH   2   6
HETATM    6  S   UNL     1      -3.327   4.871 -32.359  1.00  0.00    -0.081 SA
BRANCH   6   7
HETATM    7  C   UNL     1      -4.205   3.661 -31.332  1.00  0.00     0.185 C 
BRANCH   7   8
HETATM    8  C   UNL     1      -3.839   2.235 -31.698  1.00  0.00     0.227 C 
HETATM    9  N   UNL     1      -4.693   1.621 -32.590  1.00  0.00    -0.360 N 
HETATM   10  H   UNL     1      -5.493   2.152 -32.938  1.00  0.00     0.162 HD
HETATM   11  O   UNL     1      -2.877   1.663 -31.191  1.00  0.00    -0.273 OA
BRANCH   9  12
HETATM   12  C   UNL     1      -4.610   0.201 -32.862  1.00  0.00     0.127 C 
BRANCH  12  13
HETATM   13  C   UNL     1      -5.904  -0.357 -33.450  1.00  0.00     0.058 C 
BRANCH  13  14
HETATM   14  C   UNL     1      -5.730  -1.773 -33.937  1.00  0.00    -0.057 A 
HETATM   15  C   UNL     1      -6.816  -2.475 -34.478  1.00  0.00     0.007 A 
HETATM   16  C   UNL     1      -6.666  -3.797 -34.900  1.00  0.00     0.001 A 
HETATM   17  C   UNL     1      -5.431  -4.430 -34.784  1.00  0.00     0.000 A 
HETATM   18  C   UNL     1      -4.346  -3.743 -34.245  1.00  0.00     0.001 A 
HETATM   19  C   UNL     1      -4.493  -2.421 -33.822  1.00  0.00     0.007 A 
ENDBRANCH  13  14
ENDBRANCH  12  13
ENDBRANCH   9  12
ENDBRANCH   7   8
ENDBRANCH   6   7
ENDBRANCH   2   6
BRANCH   1  20
HETATM   20  C   UNL     1      -2.833   7.083 -30.070  1.00  0.00     0.128 C 
HETATM   21  C   UNL     1      -2.614   8.454 -30.683  1.00  0.00     0.027 C 
ENDBRANCH   1  20
BRANCH   5  22
HETATM   22  C   UNL     1       0.084   6.623 -28.724  1.00  0.00     0.012 A 
HETATM   23  C   UNL     1       0.885   7.748 -28.987  1.00  0.00     0.018 A 
HETATM   24  C   UNL     1       1.494   8.470 -27.954  1.00  0.00     0.037 A 
HETATM   25  C   UNL     1       1.320   8.089 -26.627  1.00  0.00     0.068 A 
HETATM   26  C   UNL     1       0.526   6.979 -26.346  1.00  0.00     0.037 A 
HETATM   27  C   UNL     1      -0.096   6.265 -27.384  1.00  0.00     0.018 A 
BRANCH  25  28
HETATM   28  O   UNL     1       1.960   8.878 -25.713  1.00  0.00    -0.356 OA
HETATM   29  C   UNL     1       1.185   9.365 -24.625  1.00  0.00     0.210 C 
ENDBRANCH  25  28
ENDBRANCH   5  22
TORSDOF 9
ENDMDL
MODEL 2
REMARK VINA RESULT:      -8.2      5.752      9.765
REMARK  9 active torsions:
REMARK  status: ('A' for Active; 'I' for Inactive)
REMARK    1  A    between atoms: C_2  and  N_3 
REMARK    2  A    between atoms: C_4  and  S_5 
REMARK    3  A    between atoms: S_5  and  C_6 
REMARK    4  A    between atoms: C_6  and  C_7 
REMARK       I    between atoms: C_7  and  N_8 
REMARK    5  A    between atoms: N_8  and  C_9 
REMARK    6  A    between atoms: C_9  and  C_10 
REMARK    7  A    between atoms: C_10  and  C_11 
REMARK    8  A    between atoms: C_20  and  C_21 
REMARK    9  A    between atoms: C_24  and  O_25 
ROOT
HETATM    1  N   UNL     1      -7.998   2.875 -32.691  1.00  0.00    -0.308 N 
HETATM    2  C   UNL     1      -6.650   2.740 -32.917  1.00  0.00     0.192 A 
HETATM    3  N   UNL     1      -6.433   1.826 -33.827  1.00  0.00    -0.122 NA
HETATM    4  N   UNL     1      -7.649   1.372 -34.245  1.00  0.00    -0.128 NA
HETATM    5  C   UNL     1      -8.610   1.997 -33.577  1.00  0.00     0.164 A 
ENDROOT
BRANCH   2   6
HETATM    6  S   UNL     1      -5.417   3.663 -32.129  1.00  0.00    -0.081 SA
BRANCH   6   7
HETATM    7  C   UNL     1      -5.392   2.881 -30.492  1.00  0.00     0.185 C 
BRANCH   7   8
HETATM    8  C   UNL     1      -5.412   1.368 -30.587  1.00  0.00     0.227 C 
HETATM    9  N   UNL     1      -4.407   0.813 -31.349  1.00  0.00    -0.360 N 
HETATM   10  H   UNL     1      -3.730   1.440 -31.787  1.00  0.00     0.162 HD
HETATM   11  O   UNL     1      -6.298   0.698 -30.059  1.00  0.00    -0.273 OA
BRANCH   9  12
HETATM   12  C   UNL     1      -4.421  -0.587 -31.719  1.00  0.00     0.127 C 
BRANCH  12  13
HETATM   13  C   UNL     1      -4.087  -0.804 -33.194  1.00  0.00     0.058 C 
BRANCH  13  14
HETATM   14  C   UNL     1      -4.821  -1.992 -33.762  1.00  0.00    -0.057 A 
HETATM   15  C   UNL     1      -4.154  -3.209 -33.957  1.00  0.00     0.007 A 
HETATM   16  C   UNL     1      -4.821  -4.302 -34.512  1.00  0.00     0.001 A 
HETATM   17  C   UNL     1      -6.160  -4.188 -34.880  1.00  0.00     0.000 A 
HETATM   18  C   UNL     1      -6.832  -2.982 -34.694  1.00  0.00     0.001 A 
HETATM   19  C   UNL     1      -6.166  -1.888 -34.139  1.00  0.00     0.007 A 
ENDBRANCH  13  14
ENDBRANCH  12  13
ENDBRANCH   9  12
ENDBRANCH   7   8
ENDBRANCH   6   7
ENDBRANCH   2   6
BRANCH   1  20
HETATM   20  C   UNL     1      -8.611   3.757 -31.721  1.00  0.00     0.128 C 
HETATM   21  C   UNL     1      -9.174   3.038 -30.510  1.00  0.00     0.027 C 
ENDBRANCH   1  20
BRANCH   5  22
HETATM   22  C   UNL     1     -10.040   1.780 -33.861  1.00  0.00     0.012 A 
HETATM   23  C   UNL     1     -10.665   2.651 -34.770  1.00  0.00     0.018 A 
HETATM   24  C   UNL     1     -12.009   2.496 -35.126  1.00  0.00     0.037 A 
HETATM   25  C   UNL     1     -12.770   1.464 -34.583  1.00  0.00     0.068 A 
HETATM   26  C   UNL     1     -12.168   0.587 -33.684  1.00  0.00     0.037 A 
HETATM   27  C   UNL     1     -10.813   0.736 -33.340  1.00  0.00     0.018 A 
BRANCH  25  28
HETATM   28  O   UNL     1     -14.065   1.416 -35.016  1.00  0.00    -0.356 OA
HETATM   29  C   UNL     1     -15.004   0.761 -34.172  1.00  0.00     0.210 C 
ENDBRANCH  25  28
ENDBRANCH   5  22
TORSDOF 9
ENDMDL
MODEL 3
REMARK VINA RESULT:      -8.1      4.439      9.957
REMARK  9 active torsions:
REMARK  status: ('A' for Active; 'I' for Inactive)
REMARK    1  A    between atoms: C_2  and  N_3 
REMARK    2  A    between atoms: C_4  and  S_5 
REMARK    3  A    between atoms: S_5  and  C_6 
REMARK    4  A    between atoms: C_6  and  C_7 
REMARK       I    between atoms: C_7  and  N_8 
REMARK    5  A    between atoms: N_8  and  C_9 
REMARK    6  A    between atoms: C_9  and  C_10 
REMARK    7  A    between atoms: C_10  and  C_11 
REMARK    8  A    between atoms: C_20  and  C_21 
REMARK    9  A    between atoms: C_24  and  O_25 
ROOT
HETATM    1  N   UNL     1      -7.716   1.320 -32.897  1.00  0.00    -0.308 N 
HETATM    2  C   UNL     1      -7.815   2.671 -33.125  1.00  0.00     0.192 A 
HETATM    3  N   UNL     1      -6.919   3.049 -34.000  1.00  0.00    -0.122 NA
HETATM    4  N   UNL     1      -6.241   1.934 -34.395  1.00  0.00    -0.128 NA
HETATM    5  C   UNL     1      -6.710   0.875 -33.746  1.00  0.00     0.164 A 
ENDROOT
BRANCH   2   6
HETATM    6  S   UNL     1      -8.971   3.719 -32.378  1.00  0.00    -0.081 SA
BRANCH   6   7
HETATM    7  C   UNL     1      -7.885   4.786 -31.391  1.00  0.00     0.185 C 
BRANCH   7   8
HETATM    8  C   UNL     1      -6.733   4.012 -30.780  1.00  0.00     0.227 C 
HETATM    9  N   UNL     1      -5.501   4.241 -31.354  1.00  0.00    -0.360 N 
HETATM   10  H   UNL     1      -5.445   4.901 -32.132  1.00  0.00     0.162 HD
HETATM   11  O   UNL     1      -6.907   3.202 -29.871  1.00  0.00    -0.273 OA
BRANCH   9  12
HETATM   12  C   UNL     1      -4.353   3.418 -31.036  1.00  0.00     0.127 C 
BRANCH  12  13
HETATM   13  C   UNL     1      -3.540   3.047 -32.276  1.00  0.00     0.058 C 
BRANCH  13  14
HETATM   14  C   UNL     1      -2.697   4.201 -32.755  1.00  0.00    -0.057 A 
HETATM   15  C   UNL     1      -2.863   4.709 -34.051  1.00  0.00     0.007 A 
HETATM   16  C   UNL     1      -2.063   5.757 -34.509  1.00  0.00     0.001 A 
HETATM   17  C   UNL     1      -1.088   6.305 -33.679  1.00  0.00     0.000 A 
HETATM   18  C   UNL     1      -0.912   5.805 -32.390  1.00  0.00     0.001 A 
HETATM   19  C   UNL     1      -1.711   4.757 -31.930  1.00  0.00     0.007 A 
ENDBRANCH  13  14
ENDBRANCH  12  13
ENDBRANCH   9  12
ENDBRANCH   7   8
ENDBRANCH   6   7
ENDBRANCH   2   6
BRANCH   1  20
HETATM   20  C   UNL     1      -8.512   0.558 -31.959  1.00  0.00     0.128 C 
HETATM   21  C   UNL     1      -9.771  -0.034 -32.564  1.00  0.00     0.027 C 
ENDBRANCH   1  20
BRANCH   5  22
HETATM   22  C   UNL     1      -6.231  -0.493 -34.015  1.00  0.00     0.012 A 
HETATM   23  C   UNL     1      -4.935  -0.826 -33.587  1.00  0.00     0.018 A 
HETATM   24  C   UNL     1      -4.412  -2.111 -33.767  1.00  0.00     0.037 A 
HETATM   25  C   UNL     1      -5.171  -3.104 -34.381  1.00  0.00     0.068 A 
HETATM   26  C   UNL     1      -6.461  -2.795 -34.807  1.00  0.00     0.037 A 
HETATM   27  C   UNL     1      -6.988  -1.506 -34.611  1.00  0.00     0.018 A 
BRANCH  25  28
HETATM   28  O   UNL     1      -4.552  -4.316 -34.491  1.00  0.00    -0.356 OA
HETATM   29  C   UNL     1      -3.524  -4.604 -33.550  1.00  0.00     0.210 C 
ENDBRANCH  25  28
ENDBRANCH   5  22
TORSDOF 9
ENDMDL
MODEL 4
REMARK VINA RESULT:      -8.1      3.122     10.231
REMARK  9 active torsions:
REMARK  status: ('A' for Active; 'I' for Inactive)
REMARK    1  A    between atoms: C_2  and  N_3 
REMARK    2  A    between atoms: C_4  and  S_5 
REMARK    3  A    between atoms: S_5  and  C_6 
REMARK    4  A    between atoms: C_6  and  C_7 
REMARK       I    between atoms: C_7  and  N_8 
REMARK    5  A    between atoms: N_8  and  C_9 
REMARK    6  A    between atoms: C_9  and  C_10 
REMARK    7  A    between atoms: C_10  and  C_11 
REMARK    8  A    between atoms: C_20  and  C_21 
REMARK    9  A    between atoms: C_24  and  O_25 
ROOT
HETATM    1  N   UNL     1      -5.594   2.190 -32.487  1.00  0.00    -0.308 N 
HETATM    2  C   UNL     1      -4.737   3.147 -32.000  1.00  0.00     0.192 A 
HETATM    3  N   UNL     1      -3.518   2.676 -31.941  1.00  0.00    -0.122 NA
HETATM    4  N   UNL     1      -3.550   1.404 -32.432  1.00  0.00    -0.128 NA
HETATM    5  C   UNL     1      -4.793   1.092 -32.775  1.00  0.00     0.164 A 
ENDROOT
BRANCH   2   6
HETATM    6  S   UNL     1      -5.199   4.753 -31.551  1.00  0.00    -0.081 SA
BRANCH   6   7
HETATM    7  C   UNL     1      -5.235   5.570 -33.170  1.00  0.00     0.185 C 
BRANCH   7   8
HETATM    8  C   UNL     1      -3.857   5.640 -33.799  1.00  0.00     0.227 C 
HETATM    9  N   UNL     1      -2.809   5.740 -32.909  1.00  0.00    -0.360 N 
HETATM   10  H   UNL     1      -3.022   5.757 -31.910  1.00  0.00     0.162 HD
HETATM   11  O   UNL     1      -3.702   5.657 -35.019  1.00  0.00    -0.273 OA
BRANCH   9  12
HETATM   12  C   UNL     1      -1.463   6.040 -33.353  1.00  0.00     0.127 C 
BRANCH  12  13
HETATM   13  C   UNL     1      -0.806   7.139 -32.520  1.00  0.00     0.058 C 
BRANCH  13  14
HETATM   14  C   UNL     1      -0.305   6.612 -31.199  1.00  0.00    -0.057 A 
HETATM   15  C   UNL     1      -0.351   7.417 -30.053  1.00  0.00     0.007 A 
HETATM   16  C   UNL     1       0.141   6.945 -28.835  1.00  0.00     0.001 A 
HETATM   17  C   UNL     1       0.686   5.665 -28.752  1.00  0.00     0.000 A 
HETATM   18  C   UNL     1       0.740   4.858 -29.887  1.00  0.00     0.001 A 
HETATM   19  C   UNL     1       0.249   5.329 -31.105  1.00  0.00     0.007 A 
ENDBRANCH  13  14
ENDBRANCH  12  13
ENDBRANCH   9  12
ENDBRANCH   7   8
ENDBRANCH   6   7
ENDBRANCH   2   6
BRANCH   1  20
HETATM   20  C   UNL     1      -7.024   2.336 -32.648  1.00  0.00     0.128 C 
HETATM   21  C   UNL     1      -7.826   1.850 -31.455  1.00  0.00     0.027 C 
ENDBRANCH   1  20
BRANCH   5  22
HETATM   22  C   UNL     1      -5.138  -0.192 -33.412  1.00  0.00     0.012 A 
HETATM   23  C   UNL     1      -4.237  -1.260 -33.259  1.00  0.00     0.018 A 
HETATM   24  C   UNL     1      -4.500  -2.523 -33.799  1.00  0.00     0.037 A 
HETATM   25  C   UNL     1      -5.675  -2.758 -34.508  1.00  0.00     0.068 A 
HETATM   26  C   UNL     1      -6.583  -1.714 -34.667  1.00  0.00     0.037 A 
HETATM   27  C   UNL     1      -6.322  -0.450 -34.110  1.00  0.00     0.018 A 
BRANCH  25  28
HETATM   28  O   UNL     1      -5.818  -4.033 -34.978  1.00  0.00    -0.356 OA
HETATM   29  C   UNL     1      -4.948  -5.021 -34.439  1.00  0.00     0.210 C 
ENDBRANCH  25  28
ENDBRANCH   5  22
TORSDOF 9
ENDMDL
MODEL 5
REMARK VINA RESULT:      -8.0      3.199     10.397
REMARK  9 active torsions:
REMARK  status: ('A' for Active; 'I' for Inactive)
REMARK    1  A    between atoms: C_2  and  N_3 
REMARK    2  A    between atoms: C_4  and  S_5 
REMARK    3  A    between atoms: S_5  and  C_6 
REMARK    4  A    between atoms: C_6  and  C_7 
REMARK       I    between atoms: C_7  and  N_8 
REMARK    5  A    between atoms: N_8  and  C_9 
REMARK    6  A    between atoms: C_9  and  C_10 
REMARK    7  A    between atoms: C_10  and  C_11 
REMARK    8  A    between atoms: C_20  and  C_21 
REMARK    9  A    between atoms: C_24  and  O_25 
ROOT
HETATM    1  N   UNL     1      -5.621   1.959 -32.636  1.00  0.00    -0.308 N 
HETATM    2  C   UNL     1      -6.148   3.196 -32.918  1.00  0.00     0.192 A 
HETATM    3  N   UNL     1      -6.749   3.177 -34.080  1.00  0.00    -0.122 NA
HETATM    4  N   UNL     1      -6.660   1.905 -34.563  1.00  0.00    -0.128 NA
HETATM    5  C   UNL     1      -5.989   1.149 -33.703  1.00  0.00     0.164 A 
ENDROOT
BRANCH   2   6
HETATM    6  S   UNL     1      -6.051   4.575 -31.878  1.00  0.00    -0.081 SA
BRANCH   6   7
HETATM    7  C   UNL     1      -5.531   5.858 -33.050  1.00  0.00     0.185 C 
BRANCH   7   8
HETATM    8  C   UNL     1      -4.188   5.540 -33.679  1.00  0.00     0.227 C 
HETATM    9  N   UNL     1      -3.199   5.165 -32.794  1.00  0.00    -0.360 N 
HETATM   10  H   UNL     1      -3.429   5.125 -31.800  1.00  0.00     0.162 HD
HETATM   11  O   UNL     1      -3.994   5.660 -34.887  1.00  0.00    -0.273 OA
BRANCH   9  12
HETATM   12  C   UNL     1      -1.816   5.049 -33.209  1.00  0.00     0.127 C 
BRANCH  12  13
HETATM   13  C   UNL     1      -1.009   6.310 -32.903  1.00  0.00     0.058 C 
BRANCH  13  14
HETATM   14  C   UNL     1      -0.454   6.289 -31.501  1.00  0.00    -0.057 A 
HETATM   15  C   UNL     1       0.152   5.131 -30.996  1.00  0.00     0.007 A 
HETATM   16  C   UNL     1       0.637   5.097 -29.688  1.00  0.00     0.001 A 
HETATM   17  C   UNL     1       0.518   6.219 -28.871  1.00  0.00     0.000 A 
HETATM   18  C   UNL     1      -0.086   7.375 -29.361  1.00  0.00     0.001 A 
HETATM   19  C   UNL     1      -0.572   7.411 -30.669  1.00  0.00     0.007 A 
ENDBRANCH  13  14
ENDBRANCH  12  13
ENDBRANCH   9  12
ENDBRANCH   7   8
ENDBRANCH   6   7
ENDBRANCH   2   6
BRANCH   1  20
HETATM   20  C   UNL     1      -4.849   1.615 -31.461  1.00  0.00     0.128 C 
HETATM   21  C   UNL     1      -3.356   1.829 -31.627  1.00  0.00     0.027 C 
ENDBRANCH   1  20
BRANCH   5  22
HETATM   22  C   UNL     1      -5.794  -0.297 -33.907  1.00  0.00     0.012 A 
HETATM   23  C   UNL     1      -6.904  -1.054 -34.319  1.00  0.00     0.018 A 
HETATM   24  C   UNL     1      -6.802  -2.426 -34.571  1.00  0.00     0.037 A 
HETATM   25  C   UNL     1      -5.585  -3.085 -34.419  1.00  0.00     0.068 A 
HETATM   26  C   UNL     1      -4.471  -2.352 -34.016  1.00  0.00     0.037 A 
HETATM   27  C   UNL     1      -4.574  -0.970 -33.778  1.00  0.00     0.018 A 
BRANCH  25  28
HETATM   28  O   UNL     1      -5.614  -4.421 -34.703  1.00  0.00    -0.356 OA
HETATM   29  C   UNL     1      -4.548  -5.213 -34.194  1.00  0.00     0.210 C 
ENDBRANCH  25  28
ENDBRANCH   5  22
TORSDOF 9
ENDMDL
MODEL 6
REMARK VINA RESULT:      -7.9      2.232     10.870
REMARK  9 active torsions:
REMARK  status: ('A' for Active; 'I' for Inactive)
REMARK    1  A    between atoms: C_2  and  N_3 
REMARK    2  A    between atoms: C_4  and  S_5 
REMARK    3  A    between atoms: S_5  and  C_6 
REMARK    4  A    between atoms: C_6  and  C_7 
REMARK       I    between atoms: C_7  and  N_8 
REMARK    5  A    between atoms: N_8  and  C_9 
REMARK    6  A    between atoms: C_9  and  C_10 
REMARK    7  A    between atoms: C_10  and  C_11 
REMARK    8  A    between atoms: C_20  and  C_21 
REMARK    9  A    between atoms: C_24  and  O_25 
ROOT
HETATM    1  N   UNL     1      -4.846   2.312 -32.292  1.00  0.00    -0.308 N 
HETATM    2  C   UNL     1      -3.862   3.051 -31.680  1.00  0.00     0.192 A 
HETATM    3  N   UNL     1      -2.866   2.277 -31.334  1.00  0.00    -0.122 NA
HETATM    4  N   UNL     1      -3.166   1.015 -31.755  1.00  0.00    -0.128 NA
HETATM    5  C   UNL     1      -4.355   1.014 -32.343  1.00  0.00     0.164 A 
ENDROOT
BRANCH   2   6
HETATM    6  S   UNL     1      -3.923   4.760 -31.424  1.00  0.00    -0.081 SA
BRANCH   6   7
HETATM    7  C   UNL     1      -2.939   5.357 -32.827  1.00  0.00     0.185 C 
BRANCH   7   8
HETATM    8  C   UNL     1      -1.529   5.731 -32.411  1.00  0.00     0.227 C 
HETATM    9  N   UNL     1      -1.118   5.217 -31.200  1.00  0.00    -0.360 N 
HETATM   10  H   UNL     1      -1.770   4.631 -30.677  1.00  0.00     0.162 HD
HETATM   11  O   UNL     1      -0.832   6.482 -33.090  1.00  0.00    -0.273 OA
BRANCH   9  12
HETATM   12  C   UNL     1       0.105   5.662 -30.565  1.00  0.00     0.127 C 
BRANCH  12  13
HETATM   13  C   UNL     1       0.062   7.143 -30.192  1.00  0.00     0.058 C 
BRANCH  13  14
HETATM   14  C   UNL     1       0.438   7.364 -28.748  1.00  0.00    -0.057 A 
HETATM   15  C   UNL     1       1.346   8.373 -28.400  1.00  0.00     0.007 A 
HETATM   16  C   UNL     1       1.721   8.561 -27.068  1.00  0.00     0.001 A 
HETATM   17  C   UNL     1       1.195   7.739 -26.073  1.00  0.00     0.000 A 
HETATM   18  C   UNL     1       0.294   6.731 -26.409  1.00  0.00     0.001 A 
HETATM   19  C   UNL     1      -0.082   6.542 -27.740  1.00  0.00     0.007 A 
ENDBRANCH  13  14
ENDBRANCH  12  13
ENDBRANCH   9  12
ENDBRANCH   7   8
ENDBRANCH   6   7
ENDBRANCH   2   6
BRANCH   1  20
HETATM   20  C   UNL     1      -6.116   2.820 -32.767  1.00  0.00     0.128 C 
HETATM   21  C   UNL     1      -6.065   3.364 -34.183  1.00  0.00     0.027 C 
ENDBRANCH   1  20
BRANCH   5  22
HETATM   22  C   UNL     1      -4.923  -0.191 -32.973  1.00  0.00     0.012 A 
HETATM   23  C   UNL     1      -6.323  -0.299 -33.032  1.00  0.00     0.018 A 
HETATM   24  C   UNL     1      -6.949  -1.390 -33.645  1.00  0.00     0.037 A 
HETATM   25  C   UNL     1      -6.192  -2.408 -34.219  1.00  0.00     0.068 A 
HETATM   26  C   UNL     1      -4.803  -2.318 -34.175  1.00  0.00     0.037 A 
HETATM   27  C   UNL     1      -4.178  -1.213 -33.571  1.00  0.00     0.018 A 
BRANCH  25  28
HETATM   28  O   UNL     1      -6.920  -3.413 -34.791  1.00  0.00    -0.356 OA
HETATM   29  C   UNL     1      -6.191  -4.469 -35.405  1.00  0.00     0.210 C 
ENDBRANCH  25  28
ENDBRANCH   5  22
TORSDOF 9
ENDMDL
MODEL 7
REMARK VINA RESULT:      -7.8      5.150      8.603
REMARK  9 active torsions:
REMARK  status: ('A' for Active; 'I' for Inactive)
REMARK    1  A    between atoms: C_2  and  N_3 
REMARK    2  A    between atoms: C_4  and  S_5 
REMARK    3  A    between atoms: S_5  and  C_6 
REMARK    4  A    between atoms: C_6  and  C_7 
REMARK       I    between atoms: C_7  and  N_8 
REMARK    5  A    between atoms: N_8  and  C_9 
REMARK    6  A    between atoms: C_9  and  C_10 
REMARK    7  A    between atoms: C_10  and  C_11 
REMARK    8  A    between atoms: C_20  and  C_21 
REMARK    9  A    between atoms: C_24  and  O_25 
ROOT
HETATM    1  N   UNL     1      -6.591   3.493 -32.048  1.00  0.00    -0.308 N 
HETATM    2  C   UNL     1      -5.604   3.520 -31.092  1.00  0.00     0.192 A 
HETATM    3  N   UNL     1      -5.960   2.806 -30.055  1.00  0.00    -0.122 NA
HETATM    4  N   UNL     1      -7.178   2.261 -30.335  1.00  0.00    -0.128 NA
HETATM    5  C   UNL     1      -7.576   2.657 -31.538  1.00  0.00     0.164 A 
ENDROOT
BRANCH   2   6
HETATM    6  S   UNL     1      -4.100   4.360 -31.246  1.00  0.00    -0.081 SA
BRANCH   6   7
HETATM    7  C   UNL     1      -3.232   3.302 -32.437  1.00  0.00     0.185 C 
BRANCH   7   8
HETATM    8  C   UNL     1      -3.403   1.829 -32.117  1.00  0.00     0.227 C 
HETATM    9  N   UNL     1      -4.166   1.117 -33.018  1.00  0.00    -0.360 N 
HETATM   10  H   UNL     1      -4.553   1.613 -33.823  1.00  0.00     0.162 HD
HETATM   11  O   UNL     1      -2.934   1.330 -31.096  1.00  0.00    -0.273 OA
BRANCH   9  12
HETATM   12  C   UNL     1      -4.606  -0.234 -32.737  1.00  0.00     0.127 C 
BRANCH  12  13
HETATM   13  C   UNL     1      -5.803  -0.646 -33.591  1.00  0.00     0.058 C 
BRANCH  13  14
HETATM   14  C   UNL     1      -5.696  -2.080 -34.045  1.00  0.00    -0.057 A 
HETATM   15  C   UNL     1      -6.816  -2.744 -34.563  1.00  0.00     0.007 A 
HETATM   16  C   UNL     1      -6.730  -4.081 -34.954  1.00  0.00     0.001 A 
HETATM   17  C   UNL     1      -5.524  -4.768 -34.828  1.00  0.00     0.000 A 
HETATM   18  C   UNL     1      -4.405  -4.118 -34.311  1.00  0.00     0.001 A 
HETATM   19  C   UNL     1      -4.490  -2.781 -33.919  1.00  0.00     0.007 A 
ENDBRANCH  13  14
ENDBRANCH  12  13
ENDBRANCH   9  12
ENDBRANCH   7   8
ENDBRANCH   6   7
ENDBRANCH   2   6
BRANCH   1  20
HETATM   20  C   UNL     1      -6.569   4.203 -33.309  1.00  0.00     0.128 C 
HETATM   21  C   UNL     1      -7.394   5.476 -33.307  1.00  0.00     0.027 C 
ENDBRANCH   1  20
BRANCH   5  22
HETATM   22  C   UNL     1      -8.822   2.171 -32.157  1.00  0.00     0.012 A 
HETATM   23  C   UNL     1      -8.928   0.794 -32.416  1.00  0.00     0.018 A 
HETATM   24  C   UNL     1     -10.089   0.240 -32.968  1.00  0.00     0.037 A 
HETATM   25  C   UNL     1     -11.179   1.048 -33.278  1.00  0.00     0.068 A 
HETATM   26  C   UNL     1     -11.096   2.415 -33.024  1.00  0.00     0.037 A 
HETATM   27  C   UNL     1      -9.934   2.966 -32.455  1.00  0.00     0.018 A 
BRANCH  25  28
HETATM   28  O   UNL     1     -12.253   0.387 -33.804  1.00  0.00    -0.356 OA
HETATM   29  C   UNL     1     -13.033   1.086 -34.766  1.00  0.00     0.210 C 
ENDBRANCH  25  28
ENDBRANCH   5  22
TORSDOF 9
ENDMDL
MODEL 8
REMARK VINA RESULT:      -7.7      3.867      5.625
REMARK  9 active torsions:
REMARK  status: ('A' for Active; 'I' for Inactive)
REMARK    1  A    between atoms: C_2  and  N_3 
REMARK    2  A    between atoms: C_4  and  S_5 
REMARK    3  A    between atoms: S_5  and  C_6 
REMARK    4  A    between atoms: C_6  and  C_7 
REMARK       I    between atoms: C_7  and  N_8 
REMARK    5  A    between atoms: N_8  and  C_9 
REMARK    6  A    between atoms: C_9  and  C_10 
REMARK    7  A    between atoms: C_10  and  C_11 
REMARK    8  A    between atoms: C_20  and  C_21 
REMARK    9  A    between atoms: C_24  and  O_25 
ROOT
HETATM    1  N   UNL     1      -7.092   4.444 -32.070  1.00  0.00    -0.308 N 
HETATM    2  C   UNL     1      -8.168   4.349 -32.918  1.00  0.00     0.192 A 
HETATM    3  N   UNL     1      -7.806   4.639 -34.142  1.00  0.00    -0.122 NA
HETATM    4  N   UNL     1      -6.466   4.889 -34.121  1.00  0.00    -0.128 NA
HETATM    5  C   UNL     1      -6.011   4.771 -32.880  1.00  0.00     0.164 A 
ENDROOT
BRANCH   2   6
HETATM    6  S   UNL     1      -9.767   3.891 -32.442  1.00  0.00    -0.081 SA
BRANCH   6   7
HETATM    7  C   UNL     1      -9.985   2.358 -33.386  1.00  0.00     0.185 C 
BRANCH   7   8
HETATM    8  C   UNL     1      -8.920   1.331 -33.054  1.00  0.00     0.227 C 
HETATM    9  N   UNL     1      -7.881   1.250 -33.957  1.00  0.00    -0.360 N 
HETATM   10  H   UNL     1      -7.894   1.871 -34.767  1.00  0.00     0.162 HD
HETATM   11  O   UNL     1      -9.014   0.595 -32.074  1.00  0.00    -0.273 OA
BRANCH   9  12
HETATM   12  C   UNL     1      -6.912   0.174 -33.901  1.00  0.00     0.127 C 
BRANCH  12  13
HETATM   13  C   UNL     1      -7.320  -1.021 -34.761  1.00  0.00     0.058 C 
BRANCH  13  14
HETATM   14  C   UNL     1      -6.385  -2.189 -34.568  1.00  0.00    -0.057 A 
HETATM   15  C   UNL     1      -5.079  -1.981 -34.102  1.00  0.00     0.007 A 
HETATM   16  C   UNL     1      -4.201  -3.055 -33.953  1.00  0.00     0.001 A 
HETATM   17  C   UNL     1      -4.617  -4.346 -34.271  1.00  0.00     0.000 A 
HETATM   18  C   UNL     1      -5.911  -4.563 -34.739  1.00  0.00     0.001 A 
HETATM   19  C   UNL     1      -6.791  -3.491 -34.889  1.00  0.00     0.007 A 
ENDBRANCH  13  14
ENDBRANCH  12  13
ENDBRANCH   9  12
ENDBRANCH   7   8
ENDBRANCH   6   7
ENDBRANCH   2   6
BRANCH   1  20
HETATM   20  C   UNL     1      -7.121   4.241 -30.637  1.00  0.00     0.128 C 
HETATM   21  C   UNL     1      -6.959   2.790 -30.223  1.00  0.00     0.027 C 
ENDBRANCH   1  20
BRANCH   5  22
HETATM   22  C   UNL     1      -4.582   4.906 -32.546  1.00  0.00     0.012 A 
HETATM   23  C   UNL     1      -3.908   3.761 -32.088  1.00  0.00     0.018 A 
HETATM   24  C   UNL     1      -2.543   3.788 -31.783  1.00  0.00     0.037 A 
HETATM   25  C   UNL     1      -1.809   4.962 -31.927  1.00  0.00     0.068 A 
HETATM   26  C   UNL     1      -2.458   6.107 -32.385  1.00  0.00     0.037 A 
HETATM   27  C   UNL     1      -3.826   6.072 -32.704  1.00  0.00     0.018 A 
BRANCH  25  28
HETATM   28  O   UNL     1      -0.486   4.857 -31.604  1.00  0.00    -0.356 OA
HETATM   29  C   UNL     1      -0.118   5.189 -30.271  1.00  0.00     0.210 C 
ENDBRANCH  25  28
ENDBRANCH   5  22
TORSDOF 9
ENDMDL
MODEL 9
REMARK VINA RESULT:      -7.6      3.406      9.841
REMARK  9 active torsions:
REMARK  status: ('A' for Active; 'I' for Inactive)
REMARK    1  A    between atoms: C_2  and  N_3 
REMARK    2  A    between atoms: C_4  and  S_5 
REMARK    3  A    between atoms: S_5  and  C_6 
REMARK    4  A    between atoms: C_6  and  C_7 
REMARK       I    between atoms: C_7  and  N_8 
REMARK    5  A    between atoms: N_8  and  C_9 
REMARK    6  A    between atoms: C_9  and  C_10 
REMARK    7  A    between atoms: C_10  and  C_11 
REMARK    8  A    between atoms: C_20  and  C_21 
REMARK    9  A    between atoms: C_24  and  O_25 
ROOT
HETATM    1  N   UNL     1      -5.459   1.763 -31.372  1.00  0.00    -0.308 N 
HETATM    2  C   UNL     1      -5.659   3.122 -31.361  1.00  0.00     0.192 A 
HETATM    3  N   UNL     1      -5.738   3.577 -32.585  1.00  0.00    -0.122 NA
HETATM    4  N   UNL     1      -5.631   2.508 -33.424  1.00  0.00    -0.128 NA
HETATM    5  C   UNL     1      -5.469   1.400 -32.713  1.00  0.00     0.164 A 
ENDROOT
BRANCH   2   6
HETATM    6  S   UNL     1      -5.807   4.089 -29.935  1.00  0.00    -0.081 SA
BRANCH   6   7
HETATM    7  C   UNL     1      -6.062   5.734 -30.655  1.00  0.00     0.185 C 
BRANCH   7   8
HETATM    8  C   UNL     1      -4.758   6.495 -30.804  1.00  0.00     0.227 C 
HETATM    9  N   UNL     1      -3.724   6.050 -30.007  1.00  0.00    -0.360 N 
HETATM   10  H   UNL     1      -3.898   5.258 -29.387  1.00  0.00     0.162 HD
HETATM   11  O   UNL     1      -4.658   7.469 -31.547  1.00  0.00    -0.273 OA
BRANCH   9  12
HETATM   12  C   UNL     1      -2.496   6.806 -29.868  1.00  0.00     0.127 C 
BRANCH  12  13
HETATM   13  C   UNL     1      -1.292   6.074 -30.458  1.00  0.00     0.058 C 
BRANCH  13  14
HETATM   14  C   UNL     1      -1.470   5.809 -31.932  1.00  0.00    -0.057 A 
HETATM   15  C   UNL     1      -2.004   4.590 -32.373  1.00  0.00     0.007 A 
HETATM   16  C   UNL     1      -2.140   4.328 -33.737  1.00  0.00     0.001 A 
HETATM   17  C   UNL     1      -1.741   5.280 -34.673  1.00  0.00     0.000 A 
HETATM   18  C   UNL     1      -1.206   6.493 -34.246  1.00  0.00     0.001 A 
HETATM   19  C   UNL     1      -1.069   6.757 -32.882  1.00  0.00     0.007 A 
ENDBRANCH  13  14
ENDBRANCH  12  13
ENDBRANCH   9  12
ENDBRANCH   7   8
ENDBRANCH   6   7
ENDBRANCH   2   6
BRANCH   1  20
HETATM   20  C   UNL     1      -5.278   0.923 -30.208  1.00  0.00     0.128 C 
HETATM   21  C   UNL     1      -6.445  -0.009 -29.939  1.00  0.00     0.027 C 
ENDBRANCH   1  20
BRANCH   5  22
HETATM   22  C   UNL     1      -5.402   0.065 -33.335  1.00  0.00     0.012 A 
HETATM   23  C   UNL     1      -6.542  -0.396 -34.016  1.00  0.00     0.018 A 
HETATM   24  C   UNL     1      -6.554  -1.635 -34.667  1.00  0.00     0.037 A 
HETATM   25  C   UNL     1      -5.427  -2.451 -34.656  1.00  0.00     0.068 A 
HETATM   26  C   UNL     1      -4.286  -2.011 -33.989  1.00  0.00     0.037 A 
HETATM   27  C   UNL     1      -4.271  -0.759 -33.350  1.00  0.00     0.018 A 
BRANCH  25  28
HETATM   28  O   UNL     1      -5.564  -3.630 -35.332  1.00  0.00    -0.356 OA
HETATM   29  C   UNL     1      -6.746  -4.382 -35.086  1.00  0.00     0.210 C 
ENDBRANCH  25  28
ENDBRANCH   5  22
TORSDOF 9
ENDMDL
MODEL 10
REMARK VINA RESULT:      -7.6      3.265     10.132
REMARK  9 active torsions:
REMARK  status: ('A' for Active; 'I' for Inactive)
REMARK    1  A    between atoms: C_2  and  N_3 
REMARK    2  A    between atoms: C_4  and  S_5 
REMARK    3  A    between atoms: S_5  and  C_6 
REMARK    4  A    between atoms: C_6  and  C_7 
REMARK       I    between atoms: C_7  and  N_8 
REMARK    5  A    between atoms: N_8  and  C_9 
REMARK    6  A    between atoms: C_9  and  C_10 
REMARK    7  A    between atoms: C_10  and  C_11 
REMARK    8  A    between atoms: C_20  and  C_21 
REMARK    9  A    between atoms: C_24  and  O_25 
ROOT
HETATM    1  N   UNL     1      -6.706   1.798 -32.267  1.00  0.00    -0.308 N 
HETATM    2  C   UNL     1      -7.148   3.043 -32.644  1.00  0.00     0.192 A 
HETATM    3  N   UNL     1      -7.062   3.179 -33.942  1.00  0.00    -0.122 NA
HETATM    4  N   UNL     1      -6.597   2.000 -34.445  1.00  0.00    -0.128 NA
HETATM    5  C   UNL     1      -6.381   1.148 -33.451  1.00  0.00     0.164 A 
ENDROOT
BRANCH   2   6
HETATM    6  S   UNL     1      -7.752   4.249 -31.561  1.00  0.00    -0.081 SA
BRANCH   6   7
HETATM    7  C   UNL     1      -6.523   5.563 -31.784  1.00  0.00     0.185 C 
BRANCH   7   8
HETATM    8  C   UNL     1      -5.108   5.058 -31.572  1.00  0.00     0.227 C 
HETATM    9  N   UNL     1      -4.448   4.664 -32.717  1.00  0.00    -0.360 N 
HETATM   10  H   UNL     1      -4.939   4.738 -33.609  1.00  0.00     0.162 HD
HETATM   11  O   UNL     1      -4.616   4.962 -30.450  1.00  0.00    -0.273 OA
BRANCH   9  12
HETATM   12  C   UNL     1      -3.187   3.953 -32.657  1.00  0.00     0.127 C 
BRANCH  12  13
HETATM   13  C   UNL     1      -2.046   4.738 -33.301  1.00  0.00     0.058 C 
BRANCH  13  14
HETATM   14  C   UNL     1      -1.308   5.579 -32.291  1.00  0.00    -0.057 A 
HETATM   15  C   UNL     1      -0.179   5.069 -31.634  1.00  0.00     0.007 A 
HETATM   16  C   UNL     1       0.487   5.832 -30.674  1.00  0.00     0.001 A 
HETATM   17  C   UNL     1       0.030   7.110 -30.359  1.00  0.00     0.000 A 
HETATM   18  C   UNL     1      -1.093   7.625 -31.003  1.00  0.00     0.001 A 
HETATM   19  C   UNL     1      -1.761   6.863 -31.963  1.00  0.00     0.007 A 
ENDBRANCH  13  14
ENDBRANCH  12  13
ENDBRANCH   9  12
ENDBRANCH   7   8
ENDBRANCH   6   7
ENDBRANCH   2   6
BRANCH   1  20
HETATM   20  C   UNL     1      -6.612   1.307 -30.909  1.00  0.00     0.128 C 
HETATM   21  C   UNL     1      -5.236   1.477 -30.292  1.00  0.00     0.027 C 
ENDBRANCH   1  20
BRANCH   5  22
HETATM   22  C   UNL     1      -5.949  -0.242 -33.682  1.00  0.00     0.012 A 
HETATM   23  C   UNL     1      -6.834  -1.097 -34.361  1.00  0.00     0.018 A 
HETATM   24  C   UNL     1      -6.492  -2.421 -34.656  1.00  0.00     0.037 A 
HETATM   25  C   UNL     1      -5.253  -2.932 -34.280  1.00  0.00     0.068 A 
HETATM   26  C   UNL     1      -4.359  -2.099 -33.610  1.00  0.00     0.037 A 
HETATM   27  C   UNL     1      -4.700  -0.765 -33.329  1.00  0.00     0.018 A 
BRANCH  25  28
HETATM   28  O   UNL     1      -5.037  -4.234 -34.631  1.00  0.00    -0.356 OA
HETATM   29  C   UNL     1      -3.944  -4.899 -34.009  1.00  0.00     0.210 C 
ENDBRANCH  25  28
ENDBRANCH   5  22
TORSDOF 9
ENDMDL
