MODEL 1
REMARK VINA RESULT:      -8.0      0.000      0.000
REMARK  7 active torsions:
REMARK  status: ('A' for Active; 'I' for Inactive)
REMARK    1  A    between atoms: C_2  and  C_3 
REMARK    2  A    between atoms: C_2  and  C_20 
REMARK    3  A    between atoms: C_3  and  C_4 
REMARK       I    between atoms: C_4  and  N_5 
REMARK    4  A    between atoms: N_5  and  C_6 
REMARK    5  A    between atoms: C_13  and  C_14 
REMARK       I    between atoms: C_14  and  N_15 
REMARK    6  A    between atoms: C_20  and  C_21 
REMARK    7  A    between atoms: C_22  and  O_23 
ROOT
HETATM    1  C   UNL     1      -3.703  -2.063 -32.425  1.00  0.00     0.222 C 
HETATM    2  N   UNL     1      -3.479  -1.197 -31.394  1.00  0.00    -0.327 N 
HETATM    3  O   UNL     1      -3.321  -3.229 -32.276  1.00  0.00    -0.273 OA
HETATM    4  H   UNL     1      -2.866  -1.619 -30.706  1.00  0.00     0.169 HD
ENDROOT
BRANCH   2   5
HETATM    5  C   UNL     1      -3.899   0.118 -31.132  1.00  0.00     0.035 A 
HETATM    6  C   UNL     1      -3.265   1.258 -31.637  1.00  0.00     0.046 A 
HETATM    7  C   UNL     1      -3.738   2.539 -31.278  1.00  0.00     0.030 A 
HETATM    8  C   UNL     1      -4.867   2.639 -30.477  1.00  0.00     0.063 A 
HETATM    9  C   UNL     1      -3.340   3.885 -31.528  1.00  0.00     0.156 A 
HETATM   10  N   UNL     1      -5.074   3.979 -30.307  1.00  0.00    -0.277 N 
HETATM   11  C   UNL     1      -5.567   1.524 -30.011  1.00  0.00     0.034 A 
HETATM   12  H   UNL     1      -5.815   4.424 -29.778  1.00  0.00     0.189 HD
HETATM   13  N   UNL     1      -4.171   4.763 -30.920  1.00  0.00    -0.168 NA
HETATM   14  C   UNL     1      -5.060   0.265 -30.362  1.00  0.00     0.032 A 
BRANCH   9  15
HETATM   15  C   UNL     1      -2.178   4.338 -32.307  1.00  0.00     0.270 C 
HETATM   16  N   UNL     1      -2.418   4.465 -33.647  1.00  0.00    -0.365 N 
HETATM   17  H   UNL     1      -3.350   4.268 -33.995  1.00  0.00     0.159 HD
HETATM   18  H   UNL     1      -1.690   4.802 -34.258  1.00  0.00     0.159 HD
HETATM   19  O   UNL     1      -1.081   4.598 -31.826  1.00  0.00    -0.266 OA
ENDBRANCH   9  15
ENDBRANCH   2   5
BRANCH   1  20
HETATM   20  C   UNL     1      -4.257  -1.594 -33.757  1.00  0.00     0.107 C 
BRANCH  20  21
HETATM   21  C   UNL     1      -5.793  -1.483 -33.832  1.00  0.00    -0.006 C 
HETATM   22  C   UNL     1      -6.455  -2.639 -34.589  1.00  0.00     0.011 C 
BRANCH  21  23
HETATM   23  C   UNL     1      -6.267  -0.126 -34.406  1.00  0.00     0.046 C 
BRANCH  23  24
HETATM   24  C   UNL     1      -7.182   0.656 -33.475  1.00  0.00    -0.024 A 
HETATM   25  C   UNL     1      -7.119   2.061 -33.378  1.00  0.00     0.074 A 
HETATM   26  C   UNL     1      -7.956   2.730 -32.477  1.00  0.00     0.037 A 
HETATM   27  C   UNL     1      -8.863   2.021 -31.686  1.00  0.00     0.003 A 
HETATM   28  C   UNL     1      -8.954   0.640 -31.799  1.00  0.00     0.001 A 
HETATM   29  C   UNL     1      -8.127  -0.037 -32.695  1.00  0.00     0.010 A 
BRANCH  25  30
HETATM   30  O   UNL     1      -6.208   2.683 -34.190  1.00  0.00    -0.355 OA
HETATM   31  C   UNL     1      -6.049   4.087 -34.050  1.00  0.00     0.210 C 
ENDBRANCH  25  30
ENDBRANCH  23  24
ENDBRANCH  21  23
ENDBRANCH  20  21
ENDBRANCH   1  20
TORSDOF 7
ENDMDL
MODEL 2
REMARK VINA RESULT:      -7.9      4.286      7.388
REMARK  7 active torsions:
REMARK  status: ('A' for Active; 'I' for Inactive)
REMARK    1  A    between atoms: C_2  and  C_3 
REMARK    2  A    between atoms: C_2  and  C_20 
REMARK    3  A    between atoms: C_3  and  C_4 
REMARK       I    between atoms: C_4  and  N_5 
REMARK    4  A    between atoms: N_5  and  C_6 
REMARK    5  A    between atoms: C_13  and  C_14 
REMARK       I    between atoms: C_14  and  N_15 
REMARK    6  A    between atoms: C_20  and  C_21 
REMARK    7  A    between atoms: C_22  and  O_23 
ROOT
HETATM    1  C   UNL     1      -6.805   1.325 -32.171  1.00  0.00     0.222 C 
HETATM    2  N   UNL     1      -8.079   1.792 -32.017  1.00  0.00    -0.327 N 
HETATM    3  O   UNL     1      -6.189   1.019 -31.144  1.00  0.00    -0.273 OA
HETATM    4  H   UNL     1      -8.271   1.977 -31.040  1.00  0.00     0.169 HD
ENDROOT
BRANCH   2   5
HETATM    5  C   UNL     1      -9.116   2.077 -32.922  1.00  0.00     0.035 A 
HETATM    6  C   UNL     1     -10.307   1.349 -33.002  1.00  0.00     0.046 A 
HETATM    7  C   UNL     1     -11.270   1.687 -33.978  1.00  0.00     0.030 A 
HETATM    8  C   UNL     1     -11.040   2.782 -34.798  1.00  0.00     0.063 A 
HETATM    9  C   UNL     1     -12.530   1.167 -34.397  1.00  0.00     0.156 A 
HETATM   10  N   UNL     1     -12.129   2.855 -35.621  1.00  0.00    -0.277 N 
HETATM   11  C   UNL     1      -9.895   3.575 -34.701  1.00  0.00     0.034 A 
HETATM   12  H   UNL     1     -12.304   3.536 -36.350  1.00  0.00     0.189 HD
HETATM   13  N   UNL     1     -13.047   1.894 -35.414  1.00  0.00    -0.168 NA
HETATM   14  C   UNL     1      -8.943   3.201 -33.741  1.00  0.00     0.032 A 
BRANCH   9  15
HETATM   15  C   UNL     1     -13.225  -0.015 -33.865  1.00  0.00     0.270 C 
HETATM   16  N   UNL     1     -14.570  -0.028 -34.107  1.00  0.00    -0.365 N 
HETATM   17  H   UNL     1     -14.977   0.736 -34.634  1.00  0.00     0.159 HD
HETATM   18  H   UNL     1     -15.126  -0.815 -33.809  1.00  0.00     0.159 HD
HETATM   19  O   UNL     1     -12.673  -0.931 -33.265  1.00  0.00    -0.266 OA
ENDBRANCH   9  15
ENDBRANCH   2   5
BRANCH   1  20
HETATM   20  C   UNL     1      -6.113   1.319 -33.520  1.00  0.00     0.107 C 
BRANCH  20  21
HETATM   21  C   UNL     1      -6.371   0.073 -34.391  1.00  0.00    -0.006 C 
HETATM   22  C   UNL     1      -7.380   0.313 -35.519  1.00  0.00     0.011 C 
BRANCH  21  23
HETATM   23  C   UNL     1      -6.784  -1.164 -33.557  1.00  0.00     0.046 C 
BRANCH  23  24
HETATM   24  C   UNL     1      -6.131  -2.462 -34.008  1.00  0.00    -0.024 A 
HETATM   25  C   UNL     1      -4.774  -2.741 -33.748  1.00  0.00     0.074 A 
HETATM   26  C   UNL     1      -4.210  -3.933 -34.220  1.00  0.00     0.037 A 
HETATM   27  C   UNL     1      -4.984  -4.854 -34.931  1.00  0.00     0.003 A 
HETATM   28  C   UNL     1      -6.329  -4.601 -35.163  1.00  0.00     0.001 A 
HETATM   29  C   UNL     1      -6.901  -3.418 -34.697  1.00  0.00     0.010 A 
BRANCH  25  30
HETATM   30  O   UNL     1      -4.085  -1.792 -33.041  1.00  0.00    -0.355 OA
HETATM   31  C   UNL     1      -3.224  -2.235 -32.003  1.00  0.00     0.210 C 
ENDBRANCH  25  30
ENDBRANCH  23  24
ENDBRANCH  21  23
ENDBRANCH  20  21
ENDBRANCH   1  20
TORSDOF 7
ENDMDL
MODEL 3
REMARK VINA RESULT:      -7.7      1.996      4.644
REMARK  7 active torsions:
REMARK  status: ('A' for Active; 'I' for Inactive)
REMARK    1  A    between atoms: C_2  and  C_3 
REMARK    2  A    between atoms: C_2  and  C_20 
REMARK    3  A    between atoms: C_3  and  C_4 
REMARK       I    between atoms: C_4  and  N_5 
REMARK    4  A    between atoms: N_5  and  C_6 
REMARK    5  A    between atoms: C_13  and  C_14 
REMARK       I    between atoms: C_14  and  N_15 
REMARK    6  A    between atoms: C_20  and  C_21 
REMARK    7  A    between atoms: C_22  and  O_23 
ROOT
HETATM    1  C   UNL     1      -8.543   2.407 -34.100  1.00  0.00     0.222 C 
HETATM    2  N   UNL     1      -7.951   3.120 -33.097  1.00  0.00    -0.327 N 
HETATM    3  O   UNL     1      -9.723   2.669 -34.359  1.00  0.00    -0.273 OA
HETATM    4  H   UNL     1      -8.644   3.661 -32.592  1.00  0.00     0.169 HD
ENDROOT
BRANCH   2   5
HETATM    5  C   UNL     1      -6.627   3.221 -32.639  1.00  0.00     0.035 A 
HETATM    6  C   UNL     1      -5.618   3.922 -33.306  1.00  0.00     0.046 A 
HETATM    7  C   UNL     1      -4.306   3.926 -32.785  1.00  0.00     0.030 A 
HETATM    8  C   UNL     1      -4.058   3.283 -31.581  1.00  0.00     0.063 A 
HETATM    9  C   UNL     1      -3.044   4.453 -33.191  1.00  0.00     0.156 A 
HETATM   10  N   UNL     1      -2.724   3.458 -31.343  1.00  0.00    -0.277 N 
HETATM   11  C   UNL     1      -5.054   2.632 -30.851  1.00  0.00     0.034 A 
HETATM   12  H   UNL     1      -2.192   3.123 -30.548  1.00  0.00     0.189 HD
HETATM   13  N   UNL     1      -2.076   4.154 -32.294  1.00  0.00    -0.168 NA
HETATM   14  C   UNL     1      -6.343   2.621 -31.404  1.00  0.00     0.032 A 
BRANCH   9  15
HETATM   15  C   UNL     1      -2.749   5.205 -34.419  1.00  0.00     0.270 C 
HETATM   16  N   UNL     1      -1.466   5.060 -34.869  1.00  0.00    -0.365 N 
HETATM   17  H   UNL     1      -0.837   4.450 -34.358  1.00  0.00     0.159 HD
HETATM   18  H   UNL     1      -1.179   5.510 -35.724  1.00  0.00     0.159 HD
HETATM   19  O   UNL     1      -3.562   5.899 -35.019  1.00  0.00    -0.266 OA
ENDBRANCH   9  15
ENDBRANCH   2   5
BRANCH   1  20
HETATM   20  C   UNL     1      -7.843   1.241 -34.772  1.00  0.00     0.107 C 
BRANCH  20  21
HETATM   21  C   UNL     1      -7.857  -0.083 -33.981  1.00  0.00    -0.006 C 
HETATM   22  C   UNL     1      -8.845  -0.086 -32.809  1.00  0.00     0.011 C 
BRANCH  21  23
HETATM   23  C   UNL     1      -6.449  -0.504 -33.496  1.00  0.00     0.046 C 
BRANCH  23  24
HETATM   24  C   UNL     1      -6.024  -1.891 -33.956  1.00  0.00    -0.024 A 
HETATM   25  C   UNL     1      -4.693  -2.338 -33.837  1.00  0.00     0.074 A 
HETATM   26  C   UNL     1      -4.344  -3.608 -34.312  1.00  0.00     0.037 A 
HETATM   27  C   UNL     1      -5.307  -4.442 -34.886  1.00  0.00     0.003 A 
HETATM   28  C   UNL     1      -6.627  -4.022 -34.978  1.00  0.00     0.001 A 
HETATM   29  C   UNL     1      -6.985  -2.760 -34.507  1.00  0.00     0.010 A 
BRANCH  25  30
HETATM   30  O   UNL     1      -3.810  -1.465 -33.258  1.00  0.00    -0.355 OA
HETATM   31  C   UNL     1      -3.260  -1.818 -31.998  1.00  0.00     0.210 C 
ENDBRANCH  25  30
ENDBRANCH  23  24
ENDBRANCH  21  23
ENDBRANCH  20  21
ENDBRANCH   1  20
TORSDOF 7
ENDMDL
MODEL 4
REMARK VINA RESULT:      -7.6      4.055      7.004
REMARK  7 active torsions:
REMARK  status: ('A' for Active; 'I' for Inactive)
REMARK    1  A    between atoms: C_2  and  C_3 
REMARK    2  A    between atoms: C_2  and  C_20 
REMARK    3  A    between atoms: C_3  and  C_4 
REMARK       I    between atoms: C_4  and  N_5 
REMARK    4  A    between atoms: N_5  and  C_6 
REMARK    5  A    between atoms: C_13  and  C_14 
REMARK       I    between atoms: C_14  and  N_15 
REMARK    6  A    between atoms: C_20  and  C_21 
REMARK    7  A    between atoms: C_22  and  O_23 
ROOT
HETATM    1  C   UNL     1      -6.864   1.963 -32.212  1.00  0.00     0.222 C 
HETATM    2  N   UNL     1      -8.187   1.992 -31.876  1.00  0.00    -0.327 N 
HETATM    3  O   UNL     1      -6.046   2.080 -31.294  1.00  0.00    -0.273 OA
HETATM    4  H   UNL     1      -8.299   2.279 -30.911  1.00  0.00     0.169 HD
ENDROOT
BRANCH   2   5
HETATM    5  C   UNL     1      -9.369   1.736 -32.592  1.00  0.00     0.035 A 
HETATM    6  C   UNL     1     -10.060   2.698 -33.334  1.00  0.00     0.046 A 
HETATM    7  C   UNL     1     -11.265   2.350 -33.982  1.00  0.00     0.030 A 
HETATM    8  C   UNL     1     -11.707   1.037 -33.920  1.00  0.00     0.063 A 
HETATM    9  C   UNL     1     -12.250   3.038 -34.752  1.00  0.00     0.156 A 
HETATM   10  N   UNL     1     -12.875   1.012 -34.629  1.00  0.00    -0.277 N 
HETATM   11  C   UNL     1     -11.008   0.033 -33.247  1.00  0.00     0.034 A 
HETATM   12  H   UNL     1     -13.476   0.214 -34.797  1.00  0.00     0.189 HD
HETATM   13  N   UNL     1     -13.239   2.201 -35.141  1.00  0.00    -0.168 NA
HETATM   14  C   UNL     1      -9.828   0.412 -32.591  1.00  0.00     0.032 A 
BRANCH   9  15
HETATM   15  C   UNL     1     -12.272   4.468 -35.093  1.00  0.00     0.270 C 
HETATM   16  N   UNL     1     -13.458   5.089 -34.820  1.00  0.00    -0.365 N 
HETATM   17  H   UNL     1     -14.204   4.548 -34.397  1.00  0.00     0.159 HD
HETATM   18  H   UNL     1     -13.558   6.078 -34.989  1.00  0.00     0.159 HD
HETATM   19  O   UNL     1     -11.323   5.081 -35.569  1.00  0.00    -0.266 OA
ENDBRANCH   9  15
ENDBRANCH   2   5
BRANCH   1  20
HETATM   20  C   UNL     1      -6.407   1.940 -33.659  1.00  0.00     0.107 C 
BRANCH  20  21
HETATM   21  C   UNL     1      -6.365   0.547 -34.317  1.00  0.00    -0.006 C 
HETATM   22  C   UNL     1      -7.413   0.358 -35.419  1.00  0.00     0.011 C 
BRANCH  21  23
HETATM   23  C   UNL     1      -6.458  -0.605 -33.287  1.00  0.00     0.046 C 
BRANCH  23  24
HETATM   24  C   UNL     1      -6.050  -1.963 -33.837  1.00  0.00    -0.024 A 
HETATM   25  C   UNL     1      -4.707  -2.392 -33.837  1.00  0.00     0.074 A 
HETATM   26  C   UNL     1      -4.377  -3.634 -34.392  1.00  0.00     0.037 A 
HETATM   27  C   UNL     1      -5.369  -4.460 -34.928  1.00  0.00     0.003 A 
HETATM   28  C   UNL     1      -6.697  -4.059 -34.902  1.00  0.00     0.001 A 
HETATM   29  C   UNL     1      -7.037  -2.824 -34.351  1.00  0.00     0.010 A 
BRANCH  25  30
HETATM   30  O   UNL     1      -3.796  -1.528 -33.289  1.00  0.00    -0.355 OA
HETATM   31  C   UNL     1      -3.245  -1.863 -32.024  1.00  0.00     0.210 C 
ENDBRANCH  25  30
ENDBRANCH  23  24
ENDBRANCH  21  23
ENDBRANCH  20  21
ENDBRANCH   1  20
TORSDOF 7
ENDMDL
MODEL 5
REMARK VINA RESULT:      -7.3      2.066      5.098
REMARK  7 active torsions:
REMARK  status: ('A' for Active; 'I' for Inactive)
REMARK    1  A    between atoms: C_2  and  C_3 
REMARK    2  A    between atoms: C_2  and  C_20 
REMARK    3  A    between atoms: C_3  and  C_4 
REMARK       I    between atoms: C_4  and  N_5 
REMARK    4  A    between atoms: N_5  and  C_6 
REMARK    5  A    between atoms: C_13  and  C_14 
REMARK       I    between atoms: C_14  and  N_15 
REMARK    6  A    between atoms: C_20  and  C_21 
REMARK    7  A    between atoms: C_22  and  O_23 
ROOT
HETATM    1  C   UNL     1      -6.096   1.764 -32.109  1.00  0.00     0.222 C 
HETATM    2  N   UNL     1      -5.601   3.019 -31.902  1.00  0.00    -0.327 N 
HETATM    3  O   UNL     1      -6.978   1.370 -31.338  1.00  0.00    -0.273 OA
HETATM    4  H   UNL     1      -5.930   3.386 -31.016  1.00  0.00     0.169 HD
ENDROOT
BRANCH   2   5
HETATM    5  C   UNL     1      -4.741   3.850 -32.640  1.00  0.00     0.035 A 
HETATM    6  C   UNL     1      -3.474   4.250 -32.205  1.00  0.00     0.046 A 
HETATM    7  C   UNL     1      -2.704   5.125 -33.001  1.00  0.00     0.030 A 
HETATM    8  C   UNL     1      -3.198   5.519 -34.236  1.00  0.00     0.063 A 
HETATM    9  C   UNL     1      -1.443   5.780 -32.879  1.00  0.00     0.156 A 
HETATM   10  N   UNL     1      -2.245   6.347 -34.761  1.00  0.00    -0.277 N 
HETATM   11  C   UNL     1      -4.427   5.085 -34.735  1.00  0.00     0.034 A 
HETATM   12  H   UNL     1      -2.268   6.820 -35.657  1.00  0.00     0.189 HD
HETATM   13  N   UNL     1      -1.174   6.534 -33.970  1.00  0.00    -0.168 NA
HETATM   14  C   UNL     1      -5.183   4.238 -33.912  1.00  0.00     0.032 A 
BRANCH   9  15
HETATM   15  C   UNL     1      -0.517   5.719 -31.738  1.00  0.00     0.270 C 
HETATM   16  N   UNL     1      -0.573   6.808 -30.913  1.00  0.00    -0.365 N 
HETATM   17  H   UNL     1      -1.239   7.543 -31.124  1.00  0.00     0.159 HD
HETATM   18  H   UNL     1       0.001   6.840 -30.086  1.00  0.00     0.159 HD
HETATM   19  O   UNL     1       0.241   4.783 -31.511  1.00  0.00    -0.266 OA
ENDBRANCH   9  15
ENDBRANCH   2   5
BRANCH   1  20
HETATM   20  C   UNL     1      -5.495   0.828 -33.140  1.00  0.00     0.107 C 
BRANCH  20  21
HETATM   21  C   UNL     1      -4.796  -0.423 -32.570  1.00  0.00    -0.006 C 
HETATM   22  C   UNL     1      -3.841  -0.115 -31.411  1.00  0.00     0.011 C 
BRANCH  21  23
HETATM   23  C   UNL     1      -4.069  -1.250 -33.658  1.00  0.00     0.046 C 
BRANCH  23  24
HETATM   24  C   UNL     1      -4.827  -2.492 -34.102  1.00  0.00    -0.024 A 
HETATM   25  C   UNL     1      -4.304  -3.788 -33.915  1.00  0.00     0.074 A 
HETATM   26  C   UNL     1      -5.023  -4.897 -34.378  1.00  0.00     0.037 A 
HETATM   27  C   UNL     1      -6.259  -4.732 -35.008  1.00  0.00     0.003 A 
HETATM   28  C   UNL     1      -6.795  -3.461 -35.166  1.00  0.00     0.001 A 
HETATM   29  C   UNL     1      -6.089  -2.350 -34.708  1.00  0.00     0.010 A 
BRANCH  25  30
HETATM   30  O   UNL     1      -3.090  -3.866 -33.285  1.00  0.00    -0.355 OA
HETATM   31  C   UNL     1      -3.077  -3.818 -31.866  1.00  0.00     0.210 C 
ENDBRANCH  25  30
ENDBRANCH  23  24
ENDBRANCH  21  23
ENDBRANCH  20  21
ENDBRANCH   1  20
TORSDOF 7
ENDMDL
MODEL 6
REMARK VINA RESULT:      -7.3      2.326      6.571
REMARK  7 active torsions:
REMARK  status: ('A' for Active; 'I' for Inactive)
REMARK    1  A    between atoms: C_2  and  C_3 
REMARK    2  A    between atoms: C_2  and  C_20 
REMARK    3  A    between atoms: C_3  and  C_4 
REMARK       I    between atoms: C_4  and  N_5 
REMARK    4  A    between atoms: N_5  and  C_6 
REMARK    5  A    between atoms: C_13  and  C_14 
REMARK       I    between atoms: C_14  and  N_15 
REMARK    6  A    between atoms: C_20  and  C_21 
REMARK    7  A    between atoms: C_22  and  O_23 
ROOT
HETATM    1  C   UNL     1      -6.943   2.416 -31.156  1.00  0.00     0.222 C 
HETATM    2  N   UNL     1      -7.361   1.169 -31.519  1.00  0.00    -0.327 N 
HETATM    3  O   UNL     1      -7.567   2.980 -30.251  1.00  0.00    -0.273 OA
HETATM    4  H   UNL     1      -8.253   0.956 -31.086  1.00  0.00     0.169 HD
ENDROOT
BRANCH   2   5
HETATM    5  C   UNL     1      -6.826   0.180 -32.361  1.00  0.00     0.035 A 
HETATM    6  C   UNL     1      -5.717  -0.608 -32.038  1.00  0.00     0.046 A 
HETATM    7  C   UNL     1      -5.227  -1.545 -32.974  1.00  0.00     0.030 A 
HETATM    8  C   UNL     1      -5.900  -1.710 -34.176  1.00  0.00     0.063 A 
HETATM    9  C   UNL     1      -4.128  -2.453 -33.036  1.00  0.00     0.156 A 
HETATM   10  N   UNL     1      -5.201  -2.668 -34.855  1.00  0.00    -0.277 N 
HETATM   11  C   UNL     1      -7.051  -0.992 -34.505  1.00  0.00     0.034 A 
HETATM   12  H   UNL     1      -5.406  -3.043 -35.774  1.00  0.00     0.189 HD
HETATM   13  N   UNL     1      -4.122  -3.136 -34.203  1.00  0.00    -0.168 NA
HETATM   14  C   UNL     1      -7.500  -0.049 -33.569  1.00  0.00     0.032 A 
BRANCH   9  15
HETATM   15  C   UNL     1      -3.084  -2.654 -32.020  1.00  0.00     0.270 C 
HETATM   16  N   UNL     1      -2.434  -1.509 -31.652  1.00  0.00    -0.365 N 
HETATM   17  H   UNL     1      -2.720  -0.631 -32.072  1.00  0.00     0.159 HD
HETATM   18  H   UNL     1      -1.725  -1.542 -30.937  1.00  0.00     0.159 HD
HETATM   19  O   UNL     1      -2.805  -3.737 -31.518  1.00  0.00    -0.266 OA
ENDBRANCH   9  15
ENDBRANCH   2   5
BRANCH   1  20
HETATM   20  C   UNL     1      -5.859   3.150 -31.923  1.00  0.00     0.107 C 
BRANCH  20  21
HETATM   21  C   UNL     1      -4.597   3.502 -31.109  1.00  0.00    -0.006 C 
HETATM   22  C   UNL     1      -4.518   4.979 -30.709  1.00  0.00     0.011 C 
BRANCH  21  23
HETATM   23  C   UNL     1      -3.290   3.069 -31.816  1.00  0.00     0.046 C 
BRANCH  23  24
HETATM   24  C   UNL     1      -2.629   4.172 -32.630  1.00  0.00    -0.024 A 
HETATM   25  C   UNL     1      -1.481   4.848 -32.171  1.00  0.00     0.074 A 
HETATM   26  C   UNL     1      -0.935   5.883 -32.938  1.00  0.00     0.037 A 
HETATM   27  C   UNL     1      -1.507   6.241 -34.162  1.00  0.00     0.003 A 
HETATM   28  C   UNL     1      -2.618   5.558 -34.636  1.00  0.00     0.001 A 
HETATM   29  C   UNL     1      -3.170   4.524 -33.881  1.00  0.00     0.010 A 
BRANCH  25  30
HETATM   30  O   UNL     1      -0.977   4.436 -30.965  1.00  0.00    -0.355 OA
HETATM   31  C   UNL     1       0.040   5.226 -30.369  1.00  0.00     0.210 C 
ENDBRANCH  25  30
ENDBRANCH  23  24
ENDBRANCH  21  23
ENDBRANCH  20  21
ENDBRANCH   1  20
TORSDOF 7
ENDMDL
MODEL 7
REMARK VINA RESULT:      -7.1      2.651      5.347
REMARK  7 active torsions:
REMARK  status: ('A' for Active; 'I' for Inactive)
REMARK    1  A    between atoms: C_2  and  C_3 
REMARK    2  A    between atoms: C_2  and  C_20 
REMARK    3  A    between atoms: C_3  and  C_4 
REMARK       I    between atoms: C_4  and  N_5 
REMARK    4  A    between atoms: N_5  and  C_6 
REMARK    5  A    between atoms: C_13  and  C_14 
REMARK       I    between atoms: C_14  and  N_15 
REMARK    6  A    between atoms: C_20  and  C_21 
REMARK    7  A    between atoms: C_22  and  O_23 
ROOT
HETATM    1  C   UNL     1      -9.668   0.676 -33.162  1.00  0.00     0.222 C 
HETATM    2  N   UNL     1      -9.654   1.845 -32.455  1.00  0.00    -0.327 N 
HETATM    3  O   UNL     1     -10.556  -0.139 -32.887  1.00  0.00    -0.273 OA
HETATM    4  H   UNL     1     -10.298   1.792 -31.675  1.00  0.00     0.169 HD
ENDROOT
BRANCH   2   5
HETATM    5  C   UNL     1      -8.929   3.041 -32.586  1.00  0.00     0.035 A 
HETATM    6  C   UNL     1      -7.836   3.387 -31.786  1.00  0.00     0.046 A 
HETATM    7  C   UNL     1      -7.202   4.635 -31.968  1.00  0.00     0.030 A 
HETATM    8  C   UNL     1      -7.640   5.470 -32.986  1.00  0.00     0.063 A 
HETATM    9  C   UNL     1      -6.139   5.346 -31.336  1.00  0.00     0.156 A 
HETATM   10  N   UNL     1      -6.847   6.580 -32.912  1.00  0.00    -0.277 N 
HETATM   11  C   UNL     1      -8.683   5.129 -33.850  1.00  0.00     0.034 A 
HETATM   12  H   UNL     1      -6.882   7.401 -33.506  1.00  0.00     0.189 HD
HETATM   13  N   UNL     1      -5.934   6.546 -31.926  1.00  0.00    -0.168 NA
HETATM   14  C   UNL     1      -9.312   3.895 -33.630  1.00  0.00     0.032 A 
BRANCH   9  15
HETATM   15  C   UNL     1      -5.347   4.913 -30.176  1.00  0.00     0.270 C 
HETATM   16  N   UNL     1      -4.362   4.013 -30.475  1.00  0.00    -0.365 N 
HETATM   17  H   UNL     1      -4.236   3.735 -31.442  1.00  0.00     0.159 HD
HETATM   18  H   UNL     1      -3.746   3.684 -29.750  1.00  0.00     0.159 HD
HETATM   19  O   UNL     1      -5.521   5.313 -29.030  1.00  0.00    -0.266 OA
ENDBRANCH   9  15
ENDBRANCH   2   5
BRANCH   1  20
HETATM   20  C   UNL     1      -8.562   0.318 -34.136  1.00  0.00     0.107 C 
BRANCH  20  21
HETATM   21  C   UNL     1      -7.487  -0.645 -33.591  1.00  0.00    -0.006 C 
HETATM   22  C   UNL     1      -6.853  -0.174 -32.278  1.00  0.00     0.011 C 
BRANCH  21  23
HETATM   23  C   UNL     1      -6.388  -0.965 -34.632  1.00  0.00     0.046 C 
BRANCH  23  24
HETATM   24  C   UNL     1      -5.826  -2.375 -34.527  1.00  0.00    -0.024 A 
HETATM   25  C   UNL     1      -4.546  -2.627 -33.993  1.00  0.00     0.074 A 
HETATM   26  C   UNL     1      -4.059  -3.939 -33.955  1.00  0.00     0.037 A 
HETATM   27  C   UNL     1      -4.835  -5.001 -34.426  1.00  0.00     0.003 A 
HETATM   28  C   UNL     1      -6.109  -4.765 -34.923  1.00  0.00     0.001 A 
HETATM   29  C   UNL     1      -6.605  -3.462 -34.965  1.00  0.00     0.010 A 
BRANCH  25  30
HETATM   30  O   UNL     1      -3.850  -1.535 -33.548  1.00  0.00    -0.355 OA
HETATM   31  C   UNL     1      -3.369  -1.556 -32.212  1.00  0.00     0.210 C 
ENDBRANCH  25  30
ENDBRANCH  23  24
ENDBRANCH  21  23
ENDBRANCH  20  21
ENDBRANCH   1  20
TORSDOF 7
ENDMDL
MODEL 8
REMARK VINA RESULT:      -7.0      2.302      4.681
REMARK  7 active torsions:
REMARK  status: ('A' for Active; 'I' for Inactive)
REMARK    1  A    between atoms: C_2  and  C_3 
REMARK    2  A    between atoms: C_2  and  C_20 
REMARK    3  A    between atoms: C_3  and  C_4 
REMARK       I    between atoms: C_4  and  N_5 
REMARK    4  A    between atoms: N_5  and  C_6 
REMARK    5  A    between atoms: C_13  and  C_14 
REMARK       I    between atoms: C_14  and  N_15 
REMARK    6  A    between atoms: C_20  and  C_21 
REMARK    7  A    between atoms: C_22  and  O_23 
ROOT
HETATM    1  C   UNL     1      -5.224   1.750 -31.800  1.00  0.00     0.222 C 
HETATM    2  N   UNL     1      -4.978   3.015 -31.349  1.00  0.00    -0.327 N 
HETATM    3  O   UNL     1      -6.199   1.160 -31.323  1.00  0.00    -0.273 OA
HETATM    4  H   UNL     1      -5.558   3.221 -30.544  1.00  0.00     0.169 HD
ENDROOT
BRANCH   2   5
HETATM    5  C   UNL     1      -4.094   4.029 -31.756  1.00  0.00     0.035 A 
HETATM    6  C   UNL     1      -2.766   4.129 -31.330  1.00  0.00     0.046 A 
HETATM    7  C   UNL     1      -1.972   5.213 -31.763  1.00  0.00     0.030 A 
HETATM    8  C   UNL     1      -2.510   6.126 -32.658  1.00  0.00     0.063 A 
HETATM    9  C   UNL     1      -0.647   5.677 -31.511  1.00  0.00     0.156 A 
HETATM   10  N   UNL     1      -1.520   7.040 -32.884  1.00  0.00    -0.277 N 
HETATM   11  C   UNL     1      -3.809   6.020 -33.160  1.00  0.00     0.034 A 
HETATM   12  H   UNL     1      -1.559   7.852 -33.490  1.00  0.00     0.189 HD
HETATM   13  N   UNL     1      -0.383   6.807 -32.206  1.00  0.00    -0.168 NA
HETATM   14  C   UNL     1      -4.584   4.949 -32.693  1.00  0.00     0.032 A 
BRANCH   9  15
HETATM   15  C   UNL     1       0.347   5.079 -30.607  1.00  0.00     0.270 C 
HETATM   16  N   UNL     1       0.053   5.223 -29.279  1.00  0.00    -0.365 N 
HETATM   17  H   UNL     1      -0.807   5.694 -29.020  1.00  0.00     0.159 HD
HETATM   18  H   UNL     1       0.658   4.817 -28.584  1.00  0.00     0.159 HD
HETATM   19  O   UNL     1       1.353   4.486 -30.978  1.00  0.00    -0.266 OA
ENDBRANCH   9  15
ENDBRANCH   2   5
BRANCH   1  20
HETATM   20  C   UNL     1      -4.265   1.034 -32.733  1.00  0.00     0.107 C 
BRANCH  20  21
HETATM   21  C   UNL     1      -4.195  -0.497 -32.560  1.00  0.00    -0.006 C 
HETATM   22  C   UNL     1      -3.282  -0.942 -31.412  1.00  0.00     0.011 C 
BRANCH  21  23
HETATM   23  C   UNL     1      -3.806  -1.228 -33.868  1.00  0.00     0.046 C 
BRANCH  23  24
HETATM   24  C   UNL     1      -4.706  -2.407 -34.210  1.00  0.00    -0.024 A 
HETATM   25  C   UNL     1      -6.044  -2.227 -34.615  1.00  0.00     0.074 A 
HETATM   26  C   UNL     1      -6.843  -3.346 -34.880  1.00  0.00     0.037 A 
HETATM   27  C   UNL     1      -6.322  -4.637 -34.762  1.00  0.00     0.003 A 
HETATM   28  C   UNL     1      -4.996  -4.821 -34.395  1.00  0.00     0.001 A 
HETATM   29  C   UNL     1      -4.191  -3.714 -34.130  1.00  0.00     0.010 A 
BRANCH  25  30
HETATM   30  O   UNL     1      -6.478  -0.931 -34.712  1.00  0.00    -0.355 OA
HETATM   31  C   UNL     1      -7.688  -0.588 -34.053  1.00  0.00     0.210 C 
ENDBRANCH  25  30
ENDBRANCH  23  24
ENDBRANCH  21  23
ENDBRANCH  20  21
ENDBRANCH   1  20
TORSDOF 7
ENDMDL
MODEL 9
REMARK VINA RESULT:      -7.0      2.043      4.584
REMARK  7 active torsions:
REMARK  status: ('A' for Active; 'I' for Inactive)
REMARK    1  A    between atoms: C_2  and  C_3 
REMARK    2  A    between atoms: C_2  and  C_20 
REMARK    3  A    between atoms: C_3  and  C_4 
REMARK       I    between atoms: C_4  and  N_5 
REMARK    4  A    between atoms: N_5  and  C_6 
REMARK    5  A    between atoms: C_13  and  C_14 
REMARK       I    between atoms: C_14  and  N_15 
REMARK    6  A    between atoms: C_20  and  C_21 
REMARK    7  A    between atoms: C_22  and  O_23 
ROOT
HETATM    1  C   UNL     1      -9.672   1.210 -33.076  1.00  0.00     0.222 C 
HETATM    2  N   UNL     1      -9.308   2.393 -32.499  1.00  0.00    -0.327 N 
HETATM    3  O   UNL     1     -10.790   1.157 -33.600  1.00  0.00    -0.273 OA
HETATM    4  H   UNL     1     -10.105   3.017 -32.444  1.00  0.00     0.169 HD
ENDROOT
BRANCH   2   5
HETATM    5  C   UNL     1      -8.100   2.875 -31.969  1.00  0.00     0.035 A 
HETATM    6  C   UNL     1      -7.144   3.576 -32.709  1.00  0.00     0.046 A 
HETATM    7  C   UNL     1      -5.939   3.979 -32.093  1.00  0.00     0.030 A 
HETATM    8  C   UNL     1      -5.756   3.725 -30.742  1.00  0.00     0.063 A 
HETATM    9  C   UNL     1      -4.743   4.634 -32.512  1.00  0.00     0.156 A 
HETATM   10  N   UNL     1      -4.520   4.224 -30.441  1.00  0.00    -0.277 N 
HETATM   11  C   UNL     1      -6.718   3.089 -29.954  1.00  0.00     0.034 A 
HETATM   12  H   UNL     1      -4.056   4.216 -29.540  1.00  0.00     0.189 HD
HETATM   13  N   UNL     1      -3.875   4.775 -31.485  1.00  0.00    -0.168 NA
HETATM   14  C   UNL     1      -7.893   2.676 -30.596  1.00  0.00     0.032 A 
BRANCH   9  15
HETATM   15  C   UNL     1      -4.412   5.096 -33.869  1.00  0.00     0.270 C 
HETATM   16  N   UNL     1      -3.356   5.962 -33.922  1.00  0.00    -0.365 N 
HETATM   17  H   UNL     1      -2.878   6.200 -33.060  1.00  0.00     0.159 HD
HETATM   18  H   UNL     1      -3.033   6.307 -34.812  1.00  0.00     0.159 HD
HETATM   19  O   UNL     1      -5.002   4.744 -34.884  1.00  0.00    -0.266 OA
ENDBRANCH   9  15
ENDBRANCH   2   5
BRANCH   1  20
HETATM   20  C   UNL     1      -8.814  -0.035 -32.955  1.00  0.00     0.107 C 
BRANCH  20  21
HETATM   21  C   UNL     1      -7.511  -0.024 -33.781  1.00  0.00    -0.006 C 
HETATM   22  C   UNL     1      -7.744   0.115 -35.289  1.00  0.00     0.011 C 
BRANCH  21  23
HETATM   23  C   UNL     1      -6.608  -1.246 -33.488  1.00  0.00     0.046 C 
BRANCH  23  24
HETATM   24  C   UNL     1      -5.327  -0.906 -32.741  1.00  0.00    -0.024 A 
HETATM   25  C   UNL     1      -4.110  -1.564 -33.013  1.00  0.00     0.074 A 
HETATM   26  C   UNL     1      -2.969  -1.242 -32.269  1.00  0.00     0.037 A 
HETATM   27  C   UNL     1      -3.020  -0.265 -31.272  1.00  0.00     0.003 A 
HETATM   28  C   UNL     1      -4.207   0.410 -31.020  1.00  0.00     0.001 A 
HETATM   29  C   UNL     1      -5.350   0.099 -31.756  1.00  0.00     0.010 A 
BRANCH  25  30
HETATM   30  O   UNL     1      -4.141  -2.505 -34.008  1.00  0.00    -0.355 OA
HETATM   31  C   UNL     1      -3.879  -3.854 -33.650  1.00  0.00     0.210 C 
ENDBRANCH  25  30
ENDBRANCH  23  24
ENDBRANCH  21  23
ENDBRANCH  20  21
ENDBRANCH   1  20
TORSDOF 7
ENDMDL
MODEL 10
REMARK VINA RESULT:      -7.0      3.651      6.480
REMARK  7 active torsions:
REMARK  status: ('A' for Active; 'I' for Inactive)
REMARK    1  A    between atoms: C_2  and  C_3 
REMARK    2  A    between atoms: C_2  and  C_20 
REMARK    3  A    between atoms: C_3  and  C_4 
REMARK       I    between atoms: C_4  and  N_5 
REMARK    4  A    between atoms: N_5  and  C_6 
REMARK    5  A    between atoms: C_13  and  C_14 
REMARK       I    between atoms: C_14  and  N_15 
REMARK    6  A    between atoms: C_20  and  C_21 
REMARK    7  A    between atoms: C_22  and  O_23 
ROOT
HETATM    1  C   UNL     1      -6.190   0.860 -30.558  1.00  0.00     0.222 C 
HETATM    2  N   UNL     1      -7.430   1.418 -30.684  1.00  0.00    -0.327 N 
HETATM    3  O   UNL     1      -5.892   0.390 -29.455  1.00  0.00    -0.273 OA
HETATM    4  H   UNL     1      -7.870   1.509 -29.776  1.00  0.00     0.169 HD
ENDROOT
BRANCH   2   5
HETATM    5  C   UNL     1      -8.167   1.890 -31.784  1.00  0.00     0.035 A 
HETATM    6  C   UNL     1      -9.463   1.471 -32.096  1.00  0.00     0.046 A 
HETATM    7  C   UNL     1     -10.102   1.972 -33.251  1.00  0.00     0.030 A 
HETATM    8  C   UNL     1      -9.450   2.925 -34.020  1.00  0.00     0.063 A 
HETATM    9  C   UNL     1     -11.347   1.751 -33.912  1.00  0.00     0.156 A 
HETATM   10  N   UNL     1     -10.304   3.210 -35.048  1.00  0.00    -0.277 N 
HETATM   11  C   UNL     1      -8.183   3.419 -33.701  1.00  0.00     0.034 A 
HETATM   12  H   UNL     1     -10.158   3.867 -35.806  1.00  0.00     0.189 HD
HETATM   13  N   UNL     1     -11.457   2.518 -35.021  1.00  0.00    -0.168 NA
HETATM   14  C   UNL     1      -7.561   2.884 -32.564  1.00  0.00     0.032 A 
BRANCH   9  15
HETATM   15  C   UNL     1     -12.406   0.810 -33.518  1.00  0.00     0.270 C 
HETATM   16  N   UNL     1     -11.949  -0.429 -33.161  1.00  0.00    -0.365 N 
HETATM   17  H   UNL     1     -10.950  -0.599 -33.170  1.00  0.00     0.159 HD
HETATM   18  H   UNL     1     -12.598  -1.131 -32.844  1.00  0.00     0.159 HD
HETATM   19  O   UNL     1     -13.601   1.083 -33.490  1.00  0.00    -0.266 OA
ENDBRANCH   9  15
ENDBRANCH   2   5
BRANCH   1  20
HETATM   20  C   UNL     1      -5.160   0.943 -31.668  1.00  0.00     0.107 C 
BRANCH  20  21
HETATM   21  C   UNL     1      -4.445  -0.381 -32.007  1.00  0.00    -0.006 C 
HETATM   22  C   UNL     1      -3.059  -0.510 -31.366  1.00  0.00     0.011 C 
BRANCH  21  23
HETATM   23  C   UNL     1      -4.357  -0.640 -33.531  1.00  0.00     0.046 C 
BRANCH  23  24
HETATM   24  C   UNL     1      -5.083  -1.895 -33.990  1.00  0.00    -0.024 A 
HETATM   25  C   UNL     1      -6.469  -1.900 -34.247  1.00  0.00     0.074 A 
HETATM   26  C   UNL     1      -7.098  -3.092 -34.628  1.00  0.00     0.037 A 
HETATM   27  C   UNL     1      -6.362  -4.271 -34.773  1.00  0.00     0.003 A 
HETATM   28  C   UNL     1      -4.991  -4.266 -34.553  1.00  0.00     0.001 A 
HETATM   29  C   UNL     1      -4.354  -3.085 -34.174  1.00  0.00     0.010 A 
BRANCH  25  30
HETATM   30  O   UNL     1      -7.118  -0.704 -34.088  1.00  0.00    -0.355 OA
HETATM   31  C   UNL     1      -7.680  -0.099 -35.242  1.00  0.00     0.210 C 
ENDBRANCH  25  30
ENDBRANCH  23  24
ENDBRANCH  21  23
ENDBRANCH  20  21
ENDBRANCH   1  20
TORSDOF 7
ENDMDL
