MODEL 1
REMARK VINA RESULT:      -8.3      0.000      0.000
REMARK  7 active torsions:
REMARK  status: ('A' for Active; 'I' for Inactive)
REMARK    1  A    between atoms: C_2  and  C_3 
REMARK    2  A    between atoms: C_6  and  C_7 
REMARK    3  A    between atoms: C_7  and  N_8 
REMARK    4  A    between atoms: C_7  and  C_25 
REMARK    5  A    between atoms: N_8  and  C_11 
REMARK    6  A    between atoms: C_11  and  C_12 
REMARK       I    between atoms: C_12  and  N_13 
REMARK    7  A    between atoms: N_13  and  C_14 
ROOT
HETATM    1  N   UNL     1      -6.721   4.005 -32.672  1.00  0.00    -0.054 N 
HETATM    2  H   UNL     1      -6.464   4.757 -33.334  1.00  0.00     0.278 HD
HETATM    3  H   UNL     1      -7.479   3.522 -33.164  1.00  0.00     0.278 HD
ENDROOT
BRANCH   1   4
HETATM    4  C   UNL     1      -5.545   3.104 -32.507  1.00  0.00     0.259 C 
BRANCH   4   5
HETATM    5  C   UNL     1      -5.763   1.698 -33.044  1.00  0.00    -0.023 A 
HETATM    6  C   UNL     1      -5.349   0.546 -32.350  1.00  0.00     0.010 A 
HETATM    7  C   UNL     1      -5.622  -0.728 -32.857  1.00  0.00     0.007 A 
HETATM    8  C   UNL     1      -6.324  -0.882 -34.058  1.00  0.00    -0.059 A 
HETATM    9  C   UNL     1      -6.747   0.257 -34.747  1.00  0.00     0.007 A 
HETATM   10  C   UNL     1      -6.470   1.532 -34.247  1.00  0.00     0.010 A 
BRANCH   8  11
HETATM   11  C   UNL     1      -6.673  -2.259 -34.568  1.00  0.00     0.034 C 
HETATM   12  C   UNL     1      -5.431  -3.042 -34.965  1.00  0.00     0.010 C 
ENDBRANCH   8  11
ENDBRANCH   4   5
BRANCH   4  13
HETATM   13  C   UNL     1      -4.324   3.777 -33.091  1.00  0.00     0.017 A 
HETATM   14  S   UNL     1      -4.524   4.830 -34.438  1.00  0.00    -0.104 SA
HETATM   15  C   UNL     1      -2.851   5.154 -34.524  1.00  0.00     0.050 A 
HETATM   16  C   UNL     1      -2.144   4.471 -33.561  1.00  0.00     0.008 A 
HETATM   17  C   UNL     1      -2.990   3.674 -32.737  1.00  0.00     0.017 A 
ENDBRANCH   4  13
ENDBRANCH   1   4
BRANCH   1  18
HETATM   18  C   UNL     1      -7.250   4.691 -31.435  1.00  0.00     0.336 C 
BRANCH  18  19
HETATM   19  C   UNL     1      -7.459   3.645 -30.350  1.00  0.00     0.248 C 
HETATM   20  N   UNL     1      -8.347   2.625 -30.447  1.00  0.00    -0.326 N 
HETATM   21  H   UNL     1      -8.382   2.092 -29.580  1.00  0.00     0.169 HD
HETATM   22  O   UNL     1      -6.795   3.767 -29.310  1.00  0.00    -0.271 OA
BRANCH  20  23
HETATM   23  C   UNL     1      -9.203   2.167 -31.467  1.00  0.00     0.037 A 
HETATM   24  C   UNL     1     -10.104   2.961 -32.185  1.00  0.00     0.061 A 
HETATM   25  C   UNL     1     -10.858   2.334 -33.157  1.00  0.00     0.065 A 
HETATM   26  C   UNL     1     -10.746   0.975 -33.438  1.00  0.00     0.063 A 
HETATM   27  N   UNL     1     -11.814   2.867 -34.014  1.00  0.00    -0.306 N 
HETATM   28  N   UNL     1     -11.634   0.672 -34.463  1.00  0.00    -0.307 N 
HETATM   29  C   UNL     1      -9.870   0.167 -32.765  1.00  0.00     0.034 A 
HETATM   30  C   UNL     1     -12.307   1.842 -34.836  1.00  0.00     0.325 A 
HETATM   31  H   UNL     1     -11.790  -0.224 -34.898  1.00  0.00     0.170 HD
HETATM   32  O   UNL     1     -13.154   1.956 -35.700  1.00  0.00    -0.247 OA
HETATM   33  C   UNL     1      -9.092   0.781 -31.775  1.00  0.00     0.032 A 
HETATM   34  H   UNL     1     -12.136   3.819 -34.086  1.00  0.00     0.170 HD
ENDBRANCH  20  23
ENDBRANCH  18  19
ENDBRANCH   1  18
TORSDOF 7
ENDMDL
MODEL 2
REMARK VINA RESULT:      -8.1      2.841      6.150
REMARK  7 active torsions:
REMARK  status: ('A' for Active; 'I' for Inactive)
REMARK    1  A    between atoms: C_2  and  C_3 
REMARK    2  A    between atoms: C_6  and  C_7 
REMARK    3  A    between atoms: C_7  and  N_8 
REMARK    4  A    between atoms: C_7  and  C_25 
REMARK    5  A    between atoms: N_8  and  C_11 
REMARK    6  A    between atoms: C_11  and  C_12 
REMARK       I    between atoms: C_12  and  N_13 
REMARK    7  A    between atoms: N_13  and  C_14 
ROOT
HETATM    1  N   UNL     1      -7.003   0.993 -31.159  1.00  0.00    -0.054 N 
HETATM    2  H   UNL     1      -7.985   0.901 -30.846  1.00  0.00     0.278 HD
HETATM    3  H   UNL     1      -6.559   0.167 -30.747  1.00  0.00     0.278 HD
ENDROOT
BRANCH   1   4
HETATM    4  C   UNL     1      -6.977   0.915 -32.647  1.00  0.00     0.259 C 
BRANCH   4   5
HETATM    5  C   UNL     1      -6.284  -0.325 -33.191  1.00  0.00    -0.023 A 
HETATM    6  C   UNL     1      -5.043  -0.777 -32.708  1.00  0.00     0.010 A 
HETATM    7  C   UNL     1      -4.473  -1.954 -33.201  1.00  0.00     0.007 A 
HETATM    8  C   UNL     1      -5.132  -2.713 -34.174  1.00  0.00    -0.059 A 
HETATM    9  C   UNL     1      -6.371  -2.276 -34.651  1.00  0.00     0.007 A 
HETATM   10  C   UNL     1      -6.940  -1.096 -34.166  1.00  0.00     0.010 A 
BRANCH   8  11
HETATM   11  C   UNL     1      -4.544  -4.018 -34.654  1.00  0.00     0.034 C 
HETATM   12  C   UNL     1      -3.596  -4.618 -33.627  1.00  0.00     0.010 C 
ENDBRANCH   8  11
ENDBRANCH   4   5
BRANCH   4  13
HETATM   13  C   UNL     1      -8.384   1.084 -33.173  1.00  0.00     0.017 A 
HETATM   14  S   UNL     1      -9.667   0.247 -32.388  1.00  0.00    -0.104 SA
HETATM   15  C   UNL     1     -10.831   0.870 -33.469  1.00  0.00     0.050 A 
HETATM   16  C   UNL     1     -10.266   1.689 -34.418  1.00  0.00     0.008 A 
HETATM   17  C   UNL     1      -8.856   1.811 -34.252  1.00  0.00     0.017 A 
ENDBRANCH   4  13
ENDBRANCH   1   4
BRANCH   1  18
HETATM   18  C   UNL     1      -6.469   2.252 -30.519  1.00  0.00     0.336 C 
BRANCH  18  19
HETATM   19  C   UNL     1      -7.476   3.373 -30.735  1.00  0.00     0.248 C 
HETATM   20  N   UNL     1      -7.220   4.483 -31.470  1.00  0.00    -0.326 N 
HETATM   21  H   UNL     1      -7.998   5.139 -31.418  1.00  0.00     0.169 HD
HETATM   22  O   UNL     1      -8.575   3.264 -30.172  1.00  0.00    -0.271 OA
BRANCH  20  23
HETATM   23  C   UNL     1      -6.135   4.904 -32.263  1.00  0.00     0.037 A 
HETATM   24  C   UNL     1      -5.139   5.802 -31.862  1.00  0.00     0.061 A 
HETATM   25  C   UNL     1      -4.147   6.089 -32.778  1.00  0.00     0.065 A 
HETATM   26  C   UNL     1      -4.107   5.524 -34.049  1.00  0.00     0.063 A 
HETATM   27  N   UNL     1      -3.046   6.929 -32.652  1.00  0.00    -0.306 N 
HETATM   28  N   UNL     1      -2.987   6.017 -34.706  1.00  0.00    -0.307 N 
HETATM   29  C   UNL     1      -5.056   4.634 -34.474  1.00  0.00     0.034 A 
HETATM   30  C   UNL     1      -2.312   6.895 -33.848  1.00  0.00     0.325 A 
HETATM   31  H   UNL     1      -2.673   5.799 -35.639  1.00  0.00     0.170 HD
HETATM   32  O   UNL     1      -1.290   7.510 -34.084  1.00  0.00    -0.247 OA
HETATM   33  C   UNL     1      -6.074   4.325 -33.563  1.00  0.00     0.032 A 
HETATM   34  H   UNL     1      -2.766   7.488 -31.862  1.00  0.00     0.170 HD
ENDBRANCH  20  23
ENDBRANCH  18  19
ENDBRANCH   1  18
TORSDOF 7
ENDMDL
MODEL 3
REMARK VINA RESULT:      -8.0      3.628      7.860
REMARK  7 active torsions:
REMARK  status: ('A' for Active; 'I' for Inactive)
REMARK    1  A    between atoms: C_2  and  C_3 
REMARK    2  A    between atoms: C_6  and  C_7 
REMARK    3  A    between atoms: C_7  and  N_8 
REMARK    4  A    between atoms: C_7  and  C_25 
REMARK    5  A    between atoms: N_8  and  C_11 
REMARK    6  A    between atoms: C_11  and  C_12 
REMARK       I    between atoms: C_12  and  N_13 
REMARK    7  A    between atoms: N_13  and  C_14 
ROOT
HETATM    1  N   UNL     1      -5.028   3.268 -33.253  1.00  0.00    -0.054 N 
HETATM    2  H   UNL     1      -4.697   3.119 -32.286  1.00  0.00     0.278 HD
HETATM    3  H   UNL     1      -4.294   2.823 -33.813  1.00  0.00     0.278 HD
ENDROOT
BRANCH   1   4
HETATM    4  C   UNL     1      -6.322   2.548 -33.420  1.00  0.00     0.259 C 
BRANCH   4   5
HETATM    5  C   UNL     1      -6.173   1.068 -33.736  1.00  0.00    -0.023 A 
HETATM    6  C   UNL     1      -7.008   0.395 -34.646  1.00  0.00     0.010 A 
HETATM    7  C   UNL     1      -6.794  -0.953 -34.946  1.00  0.00     0.007 A 
HETATM    8  C   UNL     1      -5.738  -1.657 -34.357  1.00  0.00    -0.059 A 
HETATM    9  C   UNL     1      -4.899  -0.992 -33.460  1.00  0.00     0.007 A 
HETATM   10  C   UNL     1      -5.113   0.354 -33.152  1.00  0.00     0.010 A 
BRANCH   8  11
HETATM   11  C   UNL     1      -5.472  -3.094 -34.734  1.00  0.00     0.034 C 
HETATM   12  C   UNL     1      -6.764  -3.884 -34.880  1.00  0.00     0.010 C 
ENDBRANCH   8  11
ENDBRANCH   4   5
BRANCH   4  13
HETATM   13  C   UNL     1      -7.190   2.809 -32.211  1.00  0.00     0.017 A 
HETATM   14  S   UNL     1      -8.876   3.072 -32.442  1.00  0.00    -0.104 SA
HETATM   15  C   UNL     1      -9.143   3.292 -30.771  1.00  0.00     0.050 A 
HETATM   16  C   UNL     1      -7.980   3.183 -30.044  1.00  0.00     0.008 A 
HETATM   17  C   UNL     1      -6.853   2.908 -30.872  1.00  0.00     0.017 A 
ENDBRANCH   4  13
ENDBRANCH   1   4
BRANCH   1  18
HETATM   18  C   UNL     1      -5.028   4.761 -33.477  1.00  0.00     0.336 C 
BRANCH  18  19
HETATM   19  C   UNL     1      -3.991   5.093 -34.540  1.00  0.00     0.248 C 
HETATM   20  N   UNL     1      -2.786   5.653 -34.267  1.00  0.00    -0.326 N 
HETATM   21  H   UNL     1      -2.282   5.864 -35.127  1.00  0.00     0.169 HD
HETATM   22  O   UNL     1      -4.294   4.864 -35.719  1.00  0.00    -0.271 OA
BRANCH  20  23
HETATM   23  C   UNL     1      -2.111   5.993 -33.079  1.00  0.00     0.037 A 
HETATM   24  C   UNL     1      -1.597   5.082 -32.150  1.00  0.00     0.061 A 
HETATM   25  C   UNL     1      -0.957   5.605 -31.045  1.00  0.00     0.065 A 
HETATM   26  C   UNL     1      -0.808   6.973 -30.837  1.00  0.00     0.063 A 
HETATM   27  N   UNL     1      -0.354   4.946 -29.979  1.00  0.00    -0.306 N 
HETATM   28  N   UNL     1      -0.120   7.157 -29.644  1.00  0.00    -0.307 N 
HETATM   29  C   UNL     1      -1.288   7.896 -31.726  1.00  0.00     0.034 A 
HETATM   30  C   UNL     1       0.173   5.901 -29.096  1.00  0.00     0.325 A 
HETATM   31  H   UNL     1       0.150   8.029 -29.216  1.00  0.00     0.170 HD
HETATM   32  O   UNL     1       0.767   5.674 -28.060  1.00  0.00    -0.247 OA
HETATM   33  C   UNL     1      -1.941   7.390 -32.858  1.00  0.00     0.032 A 
HETATM   34  H   UNL     1      -0.272   3.956 -29.815  1.00  0.00     0.170 HD
ENDBRANCH  20  23
ENDBRANCH  18  19
ENDBRANCH   1  18
TORSDOF 7
ENDMDL
MODEL 4
REMARK VINA RESULT:      -8.0      2.877      6.713
REMARK  7 active torsions:
REMARK  status: ('A' for Active; 'I' for Inactive)
REMARK    1  A    between atoms: C_2  and  C_3 
REMARK    2  A    between atoms: C_6  and  C_7 
REMARK    3  A    between atoms: C_7  and  N_8 
REMARK    4  A    between atoms: C_7  and  C_25 
REMARK    5  A    between atoms: N_8  and  C_11 
REMARK    6  A    between atoms: C_11  and  C_12 
REMARK       I    between atoms: C_12  and  N_13 
REMARK    7  A    between atoms: N_13  and  C_14 
ROOT
HETATM    1  N   UNL     1      -6.305   2.124 -33.582  1.00  0.00    -0.054 N 
HETATM    2  H   UNL     1      -5.331   1.837 -33.387  1.00  0.00     0.278 HD
HETATM    3  H   UNL     1      -6.181   2.937 -34.193  1.00  0.00     0.278 HD
ENDROOT
BRANCH   1   4
HETATM    4  C   UNL     1      -6.981   1.016 -34.314  1.00  0.00     0.259 C 
BRANCH   4   5
HETATM    5  C   UNL     1      -6.258  -0.319 -34.223  1.00  0.00    -0.023 A 
HETATM    6  C   UNL     1      -6.673  -1.460 -34.933  1.00  0.00     0.010 A 
HETATM    7  C   UNL     1      -5.942  -2.649 -34.862  1.00  0.00     0.007 A 
HETATM    8  C   UNL     1      -4.775  -2.724 -34.094  1.00  0.00    -0.059 A 
HETATM    9  C   UNL     1      -4.350  -1.592 -33.395  1.00  0.00     0.007 A 
HETATM   10  C   UNL     1      -5.082  -0.403 -33.457  1.00  0.00     0.010 A 
BRANCH   8  11
HETATM   11  C   UNL     1      -3.954  -3.990 -34.073  1.00  0.00     0.034 C 
HETATM   12  C   UNL     1      -3.240  -4.174 -32.742  1.00  0.00     0.010 C 
ENDBRANCH   8  11
ENDBRANCH   4   5
BRANCH   4  13
HETATM   13  C   UNL     1      -8.422   0.938 -33.866  1.00  0.00     0.017 A 
HETATM   14  S   UNL     1      -9.502   2.196 -34.328  1.00  0.00    -0.104 SA
HETATM   15  C   UNL     1     -10.810   1.473 -33.506  1.00  0.00     0.050 A 
HETATM   16  C   UNL     1     -10.443   0.305 -32.879  1.00  0.00     0.008 A 
HETATM   17  C   UNL     1      -9.066  -0.003 -33.082  1.00  0.00     0.017 A 
ENDBRANCH   4  13
ENDBRANCH   1   4
BRANCH   1  18
HETATM   18  C   UNL     1      -6.897   2.546 -32.258  1.00  0.00     0.336 C 
BRANCH  18  19
HETATM   19  C   UNL     1      -5.991   2.051 -31.140  1.00  0.00     0.248 C 
HETATM   20  N   UNL     1      -4.761   2.562 -30.885  1.00  0.00    -0.326 N 
HETATM   21  H   UNL     1      -4.296   2.034 -30.149  1.00  0.00     0.169 HD
HETATM   22  O   UNL     1      -6.403   1.104 -30.455  1.00  0.00    -0.271 OA
BRANCH  20  23
HETATM   23  C   UNL     1      -4.019   3.636 -31.412  1.00  0.00     0.037 A 
HETATM   24  C   UNL     1      -4.122   4.970 -31.003  1.00  0.00     0.061 A 
HETATM   25  C   UNL     1      -3.303   5.885 -31.633  1.00  0.00     0.065 A 
HETATM   26  C   UNL     1      -2.400   5.529 -32.629  1.00  0.00     0.063 A 
HETATM   27  N   UNL     1      -3.191   7.256 -31.429  1.00  0.00    -0.306 N 
HETATM   28  N   UNL     1      -1.736   6.677 -33.042  1.00  0.00    -0.307 N 
HETATM   29  C   UNL     1      -2.262   4.233 -33.050  1.00  0.00     0.034 A 
HETATM   30  C   UNL     1      -2.216   7.765 -32.302  1.00  0.00     0.325 A 
HETATM   31  H   UNL     1      -1.018   6.755 -33.746  1.00  0.00     0.170 HD
HETATM   32  O   UNL     1      -1.864   8.925 -32.391  1.00  0.00    -0.247 OA
HETATM   33  C   UNL     1      -3.081   3.285 -32.425  1.00  0.00     0.032 A 
HETATM   34  H   UNL     1      -3.691   7.841 -30.778  1.00  0.00     0.170 HD
ENDBRANCH  20  23
ENDBRANCH  18  19
ENDBRANCH   1  18
TORSDOF 7
ENDMDL
MODEL 5
REMARK VINA RESULT:      -8.0      2.867      6.119
REMARK  7 active torsions:
REMARK  status: ('A' for Active; 'I' for Inactive)
REMARK    1  A    between atoms: C_2  and  C_3 
REMARK    2  A    between atoms: C_6  and  C_7 
REMARK    3  A    between atoms: C_7  and  N_8 
REMARK    4  A    between atoms: C_7  and  C_25 
REMARK    5  A    between atoms: N_8  and  C_11 
REMARK    6  A    between atoms: C_11  and  C_12 
REMARK       I    between atoms: C_12  and  N_13 
REMARK    7  A    between atoms: N_13  and  C_14 
ROOT
HETATM    1  N   UNL     1     -10.078   2.526 -32.138  1.00  0.00    -0.054 N 
HETATM    2  H   UNL     1     -11.036   2.526 -31.750  1.00  0.00     0.278 HD
HETATM    3  H   UNL     1      -9.568   1.934 -31.474  1.00  0.00     0.278 HD
ENDROOT
BRANCH   1   4
HETATM    4  C   UNL     1     -10.117   1.889 -33.484  1.00  0.00     0.259 C 
BRANCH   4   5
HETATM    5  C   UNL     1      -8.996   0.890 -33.730  1.00  0.00    -0.023 A 
HETATM    6  C   UNL     1      -8.629  -0.090 -32.791  1.00  0.00     0.010 A 
HETATM    7  C   UNL     1      -7.631  -1.022 -33.087  1.00  0.00     0.007 A 
HETATM    8  C   UNL     1      -6.986  -1.007 -34.328  1.00  0.00    -0.059 A 
HETATM    9  C   UNL     1      -7.353  -0.042 -35.270  1.00  0.00     0.007 A 
HETATM   10  C   UNL     1      -8.345   0.895 -34.976  1.00  0.00     0.010 A 
BRANCH   8  11
HETATM   11  C   UNL     1      -5.955  -2.056 -34.668  1.00  0.00     0.034 C 
HETATM   12  C   UNL     1      -6.576  -3.441 -34.769  1.00  0.00     0.010 C 
ENDBRANCH   8  11
ENDBRANCH   4   5
BRANCH   4  13
HETATM   13  C   UNL     1     -11.491   1.301 -33.710  1.00  0.00     0.017 A 
HETATM   14  S   UNL     1     -12.706   2.289 -34.425  1.00  0.00    -0.104 SA
HETATM   15  C   UNL     1     -13.869   1.043 -34.341  1.00  0.00     0.050 A 
HETATM   16  C   UNL     1     -13.359  -0.101 -33.773  1.00  0.00     0.008 A 
HETATM   17  C   UNL     1     -11.990   0.047 -33.404  1.00  0.00     0.017 A 
ENDBRANCH   4  13
ENDBRANCH   1   4
BRANCH   1  18
HETATM   18  C   UNL     1      -9.587   3.952 -32.057  1.00  0.00     0.336 C 
BRANCH  18  19
HETATM   19  C   UNL     1      -8.997   4.185 -30.673  1.00  0.00     0.248 C 
HETATM   20  N   UNL     1      -7.847   3.614 -30.239  1.00  0.00    -0.326 N 
HETATM   21  H   UNL     1      -7.678   3.841 -29.260  1.00  0.00     0.169 HD
HETATM   22  O   UNL     1      -9.636   4.915 -29.901  1.00  0.00    -0.271 OA
BRANCH  20  23
HETATM   23  C   UNL     1      -6.870   2.799 -30.841  1.00  0.00     0.037 A 
HETATM   24  C   UNL     1      -6.294   1.663 -30.262  1.00  0.00     0.061 A 
HETATM   25  C   UNL     1      -5.355   0.983 -31.012  1.00  0.00     0.065 A 
HETATM   26  C   UNL     1      -4.981   1.380 -32.292  1.00  0.00     0.063 A 
HETATM   27  N   UNL     1      -4.635  -0.164 -30.696  1.00  0.00    -0.306 N 
HETATM   28  N   UNL     1      -4.029   0.484 -32.762  1.00  0.00    -0.307 N 
HETATM   29  C   UNL     1      -5.528   2.479 -32.897  1.00  0.00     0.034 A 
HETATM   30  C   UNL     1      -3.803  -0.488 -31.778  1.00  0.00     0.325 A 
HETATM   31  H   UNL     1      -3.563   0.491 -33.656  1.00  0.00     0.170 HD
HETATM   32  O   UNL     1      -3.037  -1.431 -31.842  1.00  0.00    -0.247 OA
HETATM   33  C   UNL     1      -6.485   3.186 -32.157  1.00  0.00     0.032 A 
HETATM   34  H   UNL     1      -4.665  -0.716 -29.854  1.00  0.00     0.170 HD
ENDBRANCH  20  23
ENDBRANCH  18  19
ENDBRANCH   1  18
TORSDOF 7
ENDMDL
MODEL 6
REMARK VINA RESULT:      -7.9      2.453      3.146
REMARK  7 active torsions:
REMARK  status: ('A' for Active; 'I' for Inactive)
REMARK    1  A    between atoms: C_2  and  C_3 
REMARK    2  A    between atoms: C_6  and  C_7 
REMARK    3  A    between atoms: C_7  and  N_8 
REMARK    4  A    between atoms: C_7  and  C_25 
REMARK    5  A    between atoms: N_8  and  C_11 
REMARK    6  A    between atoms: C_11  and  C_12 
REMARK       I    between atoms: C_12  and  N_13 
REMARK    7  A    between atoms: N_13  and  C_14 
ROOT
HETATM    1  N   UNL     1      -8.050   2.117 -33.302  1.00  0.00    -0.054 N 
HETATM    2  H   UNL     1      -7.728   2.326 -34.262  1.00  0.00     0.278 HD
HETATM    3  H   UNL     1      -8.811   1.449 -33.461  1.00  0.00     0.278 HD
ENDROOT
BRANCH   1   4
HETATM    4  C   UNL     1      -6.930   1.469 -32.564  1.00  0.00     0.259 C 
BRANCH   4   5
HETATM    5  C   UNL     1      -6.447   0.168 -33.187  1.00  0.00    -0.023 A 
HETATM    6  C   UNL     1      -5.212  -0.421 -32.860  1.00  0.00     0.010 A 
HETATM    7  C   UNL     1      -4.838  -1.647 -33.417  1.00  0.00     0.007 A 
HETATM    8  C   UNL     1      -5.689  -2.318 -34.301  1.00  0.00    -0.059 A 
HETATM    9  C   UNL     1      -6.921  -1.744 -34.624  1.00  0.00     0.007 A 
HETATM   10  C   UNL     1      -7.296  -0.516 -34.074  1.00  0.00     0.010 A 
BRANCH   8  11
HETATM   11  C   UNL     1      -5.309  -3.673 -34.849  1.00  0.00     0.034 C 
HETATM   12  C   UNL     1      -6.530  -4.457 -35.304  1.00  0.00     0.010 C 
ENDBRANCH   8  11
ENDBRANCH   4   5
BRANCH   4  13
HETATM   13  C   UNL     1      -5.821   2.477 -32.368  1.00  0.00     0.017 A 
HETATM   14  S   UNL     1      -5.256   2.787 -30.772  1.00  0.00    -0.104 SA
HETATM   15  C   UNL     1      -4.125   3.941 -31.319  1.00  0.00     0.050 A 
HETATM   16  C   UNL     1      -4.175   4.104 -32.684  1.00  0.00     0.008 A 
HETATM   17  C   UNL     1      -5.154   3.265 -33.290  1.00  0.00     0.017 A 
ENDBRANCH   4  13
ENDBRANCH   1   4
BRANCH   1  18
HETATM   18  C   UNL     1      -8.593   3.411 -32.745  1.00  0.00     0.336 C 
BRANCH  18  19
HETATM   19  C   UNL     1      -9.133   4.248 -33.897  1.00  0.00     0.248 C 
HETATM   20  N   UNL     1     -10.401   4.151 -34.368  1.00  0.00    -0.326 N 
HETATM   21  H   UNL     1     -10.527   4.740 -35.189  1.00  0.00     0.169 HD
HETATM   22  O   UNL     1      -8.345   5.032 -34.445  1.00  0.00    -0.271 OA
BRANCH  20  23
HETATM   23  C   UNL     1     -11.541   3.427 -33.970  1.00  0.00     0.037 A 
HETATM   24  C   UNL     1     -12.695   3.980 -33.404  1.00  0.00     0.061 A 
HETATM   25  C   UNL     1     -13.717   3.109 -33.085  1.00  0.00     0.065 A 
HETATM   26  C   UNL     1     -13.637   1.738 -33.307  1.00  0.00     0.063 A 
HETATM   27  N   UNL     1     -14.961   3.376 -32.524  1.00  0.00    -0.306 N 
HETATM   28  N   UNL     1     -14.826   1.160 -32.881  1.00  0.00    -0.307 N 
HETATM   29  C   UNL     1     -12.529   1.160 -33.867  1.00  0.00     0.034 A 
HETATM   30  C   UNL     1     -15.666   2.169 -32.391  1.00  0.00     0.325 A 
HETATM   31  H   UNL     1     -15.085   0.186 -32.911  1.00  0.00     0.170 HD
HETATM   32  O   UNL     1     -16.786   2.035 -31.938  1.00  0.00    -0.247 OA
HETATM   33  C   UNL     1     -11.478   2.023 -34.202  1.00  0.00     0.032 A 
HETATM   34  H   UNL     1     -15.351   4.262 -32.245  1.00  0.00     0.170 HD
ENDBRANCH  20  23
ENDBRANCH  18  19
ENDBRANCH   1  18
TORSDOF 7
ENDMDL
MODEL 7
REMARK VINA RESULT:      -7.8      2.751      6.433
REMARK  7 active torsions:
REMARK  status: ('A' for Active; 'I' for Inactive)
REMARK    1  A    between atoms: C_2  and  C_3 
REMARK    2  A    between atoms: C_6  and  C_7 
REMARK    3  A    between atoms: C_7  and  N_8 
REMARK    4  A    between atoms: C_7  and  C_25 
REMARK    5  A    between atoms: N_8  and  C_11 
REMARK    6  A    between atoms: C_11  and  C_12 
REMARK       I    between atoms: C_12  and  N_13 
REMARK    7  A    between atoms: N_13  and  C_14 
ROOT
HETATM    1  N   UNL     1      -9.668   2.670 -32.515  1.00  0.00    -0.054 N 
HETATM    2  H   UNL     1     -10.431   2.362 -31.889  1.00  0.00     0.278 HD
HETATM    3  H   UNL     1      -8.828   2.384 -32.002  1.00  0.00     0.278 HD
ENDROOT
BRANCH   1   4
HETATM    4  C   UNL     1      -9.781   1.918 -33.796  1.00  0.00     0.259 C 
BRANCH   4   5
HETATM    5  C   UNL     1      -8.762   0.800 -33.951  1.00  0.00    -0.023 A 
HETATM    6  C   UNL     1      -8.207   0.442 -35.193  1.00  0.00     0.010 A 
HETATM    7  C   UNL     1      -7.230  -0.554 -35.276  1.00  0.00     0.007 A 
HETATM    8  C   UNL     1      -6.776  -1.207 -34.125  1.00  0.00    -0.059 A 
HETATM    9  C   UNL     1      -7.316  -0.850 -32.887  1.00  0.00     0.007 A 
HETATM   10  C   UNL     1      -8.297   0.141 -32.800  1.00  0.00     0.010 A 
BRANCH   8  11
HETATM   11  C   UNL     1      -5.675  -2.235 -34.213  1.00  0.00     0.034 C 
HETATM   12  C   UNL     1      -6.127  -3.478 -34.966  1.00  0.00     0.010 C 
ENDBRANCH   8  11
ENDBRANCH   4   5
BRANCH   4  13
HETATM   13  C   UNL     1     -11.207   1.445 -33.963  1.00  0.00     0.017 A 
HETATM   14  S   UNL     1     -12.293   2.403 -34.893  1.00  0.00    -0.104 SA
HETATM   15  C   UNL     1     -13.586   1.322 -34.628  1.00  0.00     0.050 A 
HETATM   16  C   UNL     1     -13.215   0.257 -33.841  1.00  0.00     0.008 A 
HETATM   17  C   UNL     1     -11.845   0.328 -33.453  1.00  0.00     0.017 A 
ENDBRANCH   4  13
ENDBRANCH   1   4
BRANCH   1  18
HETATM   18  C   UNL     1      -9.754   4.176 -32.582  1.00  0.00     0.336 C 
BRANCH  18  19
HETATM   19  C   UNL     1      -9.037   4.650 -33.838  1.00  0.00     0.248 C 
HETATM   20  N   UNL     1      -7.692   4.602 -33.999  1.00  0.00    -0.326 N 
HETATM   21  H   UNL     1      -7.417   5.041 -34.877  1.00  0.00     0.169 HD
HETATM   22  O   UNL     1      -9.734   5.134 -34.740  1.00  0.00    -0.271 OA
BRANCH  20  23
HETATM   23  C   UNL     1      -6.630   4.089 -33.229  1.00  0.00     0.037 A 
HETATM   24  C   UNL     1      -6.113   2.793 -33.324  1.00  0.00     0.061 A 
HETATM   25  C   UNL     1      -5.062   2.473 -32.489  1.00  0.00     0.065 A 
HETATM   26  C   UNL     1      -4.514   3.378 -31.585  1.00  0.00     0.063 A 
HETATM   27  N   UNL     1      -4.359   1.279 -32.372  1.00  0.00    -0.306 N 
HETATM   28  N   UNL     1      -3.480   2.744 -30.910  1.00  0.00    -0.307 N 
HETATM   29  C   UNL     1      -4.986   4.659 -31.469  1.00  0.00     0.034 A 
HETATM   30  C   UNL     1      -3.367   1.432 -31.390  1.00  0.00     0.325 A 
HETATM   31  H   UNL     1      -2.881   3.129 -30.195  1.00  0.00     0.170 HD
HETATM   32  O   UNL     1      -2.570   0.587 -31.032  1.00  0.00    -0.247 OA
HETATM   33  C   UNL     1      -6.052   5.008 -32.307  1.00  0.00     0.032 A 
HETATM   34  H   UNL     1      -4.486   0.419 -32.880  1.00  0.00     0.170 HD
ENDBRANCH  20  23
ENDBRANCH  18  19
ENDBRANCH   1  18
TORSDOF 7
ENDMDL
MODEL 8
REMARK VINA RESULT:      -7.8      2.071      2.966
REMARK  7 active torsions:
REMARK  status: ('A' for Active; 'I' for Inactive)
REMARK    1  A    between atoms: C_2  and  C_3 
REMARK    2  A    between atoms: C_6  and  C_7 
REMARK    3  A    between atoms: C_7  and  N_8 
REMARK    4  A    between atoms: C_7  and  C_25 
REMARK    5  A    between atoms: N_8  and  C_11 
REMARK    6  A    between atoms: C_11  and  C_12 
REMARK       I    between atoms: C_12  and  N_13 
REMARK    7  A    between atoms: N_13  and  C_14 
ROOT
HETATM    1  N   UNL     1      -8.357   1.837 -32.154  1.00  0.00    -0.054 N 
HETATM    2  H   UNL     1      -8.217   2.583 -32.857  1.00  0.00     0.278 HD
HETATM    3  H   UNL     1      -8.963   1.175 -32.649  1.00  0.00     0.278 HD
ENDROOT
BRANCH   1   4
HETATM    4  C   UNL     1      -7.034   1.218 -31.860  1.00  0.00     0.259 C 
BRANCH   4   5
HETATM    5  C   UNL     1      -6.708   0.011 -32.726  1.00  0.00    -0.023 A 
HETATM    6  C   UNL     1      -7.518  -0.395 -33.802  1.00  0.00     0.010 A 
HETATM    7  C   UNL     1      -7.146  -1.478 -34.605  1.00  0.00     0.007 A 
HETATM    8  C   UNL     1      -5.955  -2.170 -34.362  1.00  0.00    -0.059 A 
HETATM    9  C   UNL     1      -5.140  -1.766 -33.301  1.00  0.00     0.007 A 
HETATM   10  C   UNL     1      -5.512  -0.689 -32.492  1.00  0.00     0.010 A 
BRANCH   8  11
HETATM   11  C   UNL     1      -5.525  -3.296 -35.271  1.00  0.00     0.034 C 
HETATM   12  C   UNL     1      -6.366  -4.545 -35.053  1.00  0.00     0.010 C 
ENDBRANCH   8  11
ENDBRANCH   4   5
BRANCH   4  13
HETATM   13  C   UNL     1      -5.967   2.288 -31.913  1.00  0.00     0.017 A 
HETATM   14  S   UNL     1      -5.822   3.242 -33.339  1.00  0.00    -0.104 SA
HETATM   15  C   UNL     1      -4.512   4.128 -32.698  1.00  0.00     0.050 A 
HETATM   16  C   UNL     1      -4.175   3.707 -31.433  1.00  0.00     0.008 A 
HETATM   17  C   UNL     1      -5.010   2.644 -30.980  1.00  0.00     0.017 A 
ENDBRANCH   4  13
ENDBRANCH   1   4
BRANCH   1  18
HETATM   18  C   UNL     1      -9.099   2.472 -31.003  1.00  0.00     0.336 C 
BRANCH  18  19
HETATM   19  C   UNL     1      -9.405   3.919 -31.359  1.00  0.00     0.248 C 
HETATM   20  N   UNL     1     -10.566   4.325 -31.931  1.00  0.00    -0.326 N 
HETATM   21  H   UNL     1     -10.530   5.318 -32.158  1.00  0.00     0.169 HD
HETATM   22  O   UNL     1      -8.518   4.756 -31.140  1.00  0.00    -0.271 OA
BRANCH  20  23
HETATM   23  C   UNL     1     -11.771   3.678 -32.266  1.00  0.00     0.037 A 
HETATM   24  C   UNL     1     -11.944   2.790 -33.333  1.00  0.00     0.061 A 
HETATM   25  C   UNL     1     -13.201   2.246 -33.500  1.00  0.00     0.065 A 
HETATM   26  C   UNL     1     -14.269   2.542 -32.659  1.00  0.00     0.063 A 
HETATM   27  N   UNL     1     -13.653   1.345 -34.458  1.00  0.00    -0.306 N 
HETATM   28  N   UNL     1     -15.377   1.830 -33.099  1.00  0.00    -0.307 N 
HETATM   29  C   UNL     1     -14.138   3.398 -31.598  1.00  0.00     0.034 A 
HETATM   30  C   UNL     1     -15.010   1.075 -34.221  1.00  0.00     0.325 A 
HETATM   31  H   UNL     1     -16.304   1.822 -32.701  1.00  0.00     0.170 HD
HETATM   32  O   UNL     1     -15.720   0.330 -34.868  1.00  0.00    -0.247 OA
HETATM   33  C   UNL     1     -12.871   3.963 -31.406  1.00  0.00     0.032 A 
HETATM   34  H   UNL     1     -13.142   0.918 -35.214  1.00  0.00     0.170 HD
ENDBRANCH  20  23
ENDBRANCH  18  19
ENDBRANCH   1  18
TORSDOF 7
ENDMDL
MODEL 9
REMARK VINA RESULT:      -7.7      3.235      7.864
REMARK  7 active torsions:
REMARK  status: ('A' for Active; 'I' for Inactive)
REMARK    1  A    between atoms: C_2  and  C_3 
REMARK    2  A    between atoms: C_6  and  C_7 
REMARK    3  A    between atoms: C_7  and  N_8 
REMARK    4  A    between atoms: C_7  and  C_25 
REMARK    5  A    between atoms: N_8  and  C_11 
REMARK    6  A    between atoms: C_11  and  C_12 
REMARK       I    between atoms: C_12  and  N_13 
REMARK    7  A    between atoms: N_13  and  C_14 
ROOT
HETATM    1  N   UNL     1      -6.396   2.362 -34.075  1.00  0.00    -0.054 N 
HETATM    2  H   UNL     1      -5.789   1.952 -34.804  1.00  0.00     0.278 HD
HETATM    3  H   UNL     1      -7.079   2.893 -34.624  1.00  0.00     0.278 HD
ENDROOT
BRANCH   1   4
HETATM    4  C   UNL     1      -7.063   1.249 -33.343  1.00  0.00     0.259 C 
BRANCH   4   5
HETATM    5  C   UNL     1      -8.579   1.239 -33.477  1.00  0.00    -0.023 A 
HETATM    6  C   UNL     1      -9.281   2.184 -34.246  1.00  0.00     0.010 A 
HETATM    7  C   UNL     1     -10.669   2.099 -34.386  1.00  0.00     0.007 A 
HETATM    8  C   UNL     1     -11.386   1.065 -33.774  1.00  0.00    -0.059 A 
HETATM    9  C   UNL     1     -10.693   0.116 -33.017  1.00  0.00     0.007 A 
HETATM   10  C   UNL     1      -9.307   0.202 -32.870  1.00  0.00     0.010 A 
BRANCH   8  11
HETATM   11  C   UNL     1     -12.876   0.940 -33.982  1.00  0.00     0.034 C 
HETATM   12  C   UNL     1     -13.382  -0.442 -33.596  1.00  0.00     0.010 C 
ENDBRANCH   8  11
ENDBRANCH   4   5
BRANCH   4  13
HETATM   13  C   UNL     1      -6.426  -0.060 -33.750  1.00  0.00     0.017 A 
HETATM   14  S   UNL     1      -5.118  -0.670 -32.812  1.00  0.00    -0.104 SA
HETATM   15  C   UNL     1      -4.943  -2.038 -33.816  1.00  0.00     0.050 A 
HETATM   16  C   UNL     1      -5.847  -2.036 -34.853  1.00  0.00     0.008 A 
HETATM   17  C   UNL     1      -6.700  -0.895 -34.819  1.00  0.00     0.017 A 
ENDBRANCH   4  13
ENDBRANCH   1   4
BRANCH   1  18
HETATM   18  C   UNL     1      -5.524   3.298 -33.273  1.00  0.00     0.336 C 
BRANCH  18  19
HETATM   19  C   UNL     1      -5.830   4.728 -33.694  1.00  0.00     0.248 C 
HETATM   20  N   UNL     1      -5.013   5.780 -33.438  1.00  0.00    -0.326 N 
HETATM   21  H   UNL     1      -5.445   6.654 -33.734  1.00  0.00     0.169 HD
HETATM   22  O   UNL     1      -6.908   4.930 -34.272  1.00  0.00    -0.271 OA
BRANCH  20  23
HETATM   23  C   UNL     1      -3.734   5.909 -32.865  1.00  0.00     0.037 A 
HETATM   24  C   UNL     1      -3.449   5.841 -31.497  1.00  0.00     0.061 A 
HETATM   25  C   UNL     1      -2.128   5.982 -31.122  1.00  0.00     0.065 A 
HETATM   26  C   UNL     1      -1.100   6.178 -32.040  1.00  0.00     0.063 A 
HETATM   27  N   UNL     1      -1.562   5.954 -29.852  1.00  0.00    -0.306 N 
HETATM   28  N   UNL     1       0.094   6.275 -31.339  1.00  0.00    -0.307 N 
HETATM   29  C   UNL     1      -1.337   6.240 -33.387  1.00  0.00     0.034 A 
HETATM   30  C   UNL     1      -0.175   6.135 -29.971  1.00  0.00     0.325 A 
HETATM   31  H   UNL     1       1.021   6.413 -31.713  1.00  0.00     0.170 HD
HETATM   32  O   UNL     1       0.628   6.163 -29.059  1.00  0.00    -0.247 OA
HETATM   33  C   UNL     1      -2.670   6.098 -33.793  1.00  0.00     0.032 A 
HETATM   34  H   UNL     1      -2.015   5.823 -28.962  1.00  0.00     0.170 HD
ENDBRANCH  20  23
ENDBRANCH  18  19
ENDBRANCH   1  18
TORSDOF 7
ENDMDL
MODEL 10
REMARK VINA RESULT:      -7.7     16.136     18.425
REMARK  7 active torsions:
REMARK  status: ('A' for Active; 'I' for Inactive)
REMARK    1  A    between atoms: C_2  and  C_3 
REMARK    2  A    between atoms: C_6  and  C_7 
REMARK    3  A    between atoms: C_7  and  N_8 
REMARK    4  A    between atoms: C_7  and  C_25 
REMARK    5  A    between atoms: N_8  and  C_11 
REMARK    6  A    between atoms: C_11  and  C_12 
REMARK       I    between atoms: C_12  and  N_13 
REMARK    7  A    between atoms: N_13  and  C_14 
ROOT
HETATM    1  N   UNL     1      -5.119 -14.984 -37.627  1.00  0.00    -0.054 N 
HETATM    2  H   UNL     1      -5.085 -15.850 -37.064  1.00  0.00     0.278 HD
HETATM    3  H   UNL     1      -5.443 -15.321 -38.539  1.00  0.00     0.278 HD
ENDROOT
BRANCH   1   4
HETATM    4  C   UNL     1      -6.126 -14.070 -37.018  1.00  0.00     0.259 C 
BRANCH   4   5
HETATM    5  C   UNL     1      -7.329 -13.792 -37.907  1.00  0.00    -0.023 A 
HETATM    6  C   UNL     1      -8.260 -14.785 -38.260  1.00  0.00     0.010 A 
HETATM    7  C   UNL     1      -9.381 -14.468 -39.033  1.00  0.00     0.007 A 
HETATM    8  C   UNL     1      -9.605 -13.155 -39.459  1.00  0.00    -0.059 A 
HETATM    9  C   UNL     1      -8.690 -12.161 -39.104  1.00  0.00     0.007 A 
HETATM   10  C   UNL     1      -7.564 -12.475 -38.337  1.00  0.00     0.010 A 
BRANCH   8  11
HETATM   11  C   UNL     1     -10.850 -12.806 -40.238  1.00  0.00     0.034 C 
HETATM   12  C   UNL     1     -10.911 -11.320 -40.561  1.00  0.00     0.010 C 
ENDBRANCH   8  11
ENDBRANCH   4   5
BRANCH   4  13
HETATM   13  C   UNL     1      -6.509 -14.598 -35.655  1.00  0.00     0.017 A 
HETATM   14  S   UNL     1      -6.395 -16.291 -35.361  1.00  0.00    -0.104 SA
HETATM   15  C   UNL     1      -6.961 -16.124 -33.761  1.00  0.00     0.050 A 
HETATM   16  C   UNL     1      -7.246 -14.815 -33.448  1.00  0.00     0.008 A 
HETATM   17  C   UNL     1      -6.990 -13.934 -34.540  1.00  0.00     0.017 A 
ENDBRANCH   4  13
ENDBRANCH   1   4
BRANCH   1  18
HETATM   18  C   UNL     1      -3.697 -14.485 -37.725  1.00  0.00     0.336 C 
BRANCH  18  19
HETATM   19  C   UNL     1      -3.721 -13.028 -38.164  1.00  0.00     0.248 C 
HETATM   20  N   UNL     1      -3.902 -12.631 -39.448  1.00  0.00    -0.326 N 
HETATM   21  H   UNL     1      -3.804 -11.621 -39.532  1.00  0.00     0.169 HD
HETATM   22  O   UNL     1      -3.529 -12.170 -37.291  1.00  0.00    -0.271 OA
BRANCH  20  23
HETATM   23  C   UNL     1      -4.187 -13.306 -40.650  1.00  0.00     0.037 A 
HETATM   24  C   UNL     1      -3.280 -14.084 -41.377  1.00  0.00     0.061 A 
HETATM   25  C   UNL     1      -3.746 -14.678 -42.533  1.00  0.00     0.065 A 
HETATM   26  C   UNL     1      -5.056 -14.534 -42.980  1.00  0.00     0.063 A 
HETATM   27  N   UNL     1      -3.077 -15.496 -43.437  1.00  0.00    -0.306 N 
HETATM   28  N   UNL     1      -5.193 -15.257 -44.158  1.00  0.00    -0.307 N 
HETATM   29  C   UNL     1      -5.976 -13.790 -42.292  1.00  0.00     0.034 A 
HETATM   30  C   UNL     1      -3.967 -15.866 -44.457  1.00  0.00     0.325 A 
HETATM   31  H   UNL     1      -6.020 -15.360 -44.726  1.00  0.00     0.170 HD
HETATM   32  O   UNL     1      -3.715 -16.577 -45.411  1.00  0.00    -0.247 OA
HETATM   33  C   UNL     1      -5.528 -13.178 -41.114  1.00  0.00     0.032 A 
HETATM   34  H   UNL     1      -2.120 -15.810 -43.416  1.00  0.00     0.170 HD
ENDBRANCH  20  23
ENDBRANCH  18  19
ENDBRANCH   1  18
TORSDOF 7
ENDMDL
