MODEL 1
REMARK VINA RESULT:      -8.4      0.000      0.000
REMARK  6 active torsions:
REMARK  status: ('A' for Active; 'I' for Inactive)
REMARK    1  A    between atoms: C_4  and  C_5 
REMARK    2  A    between atoms: C_6  and  O_7 
REMARK    3  A    between atoms: O_7  and  C_8 
REMARK    4  A    between atoms: C_8  and  C_9 
REMARK       I    between atoms: C_9  and  N_10 
REMARK    5  A    between atoms: N_10  and  N_11 
REMARK       I    between atoms: N_11  and  C_12 
REMARK    6  A    between atoms: C_12  and  C_13 
ROOT
HETATM    1  C   UNL     1      -3.005  -1.129 -31.868  1.00  0.00     0.260 C 
HETATM    2  N   UNL     1      -3.211  -0.157 -30.919  1.00  0.00    -0.265 N 
HETATM    3  O   UNL     1      -2.625  -2.251 -31.529  1.00  0.00    -0.269 OA
HETATM    4  H   UNL     1      -3.175  -0.487 -29.953  1.00  0.00     0.190 HD
ENDROOT
BRANCH   1   5
HETATM    5  C   UNL     1      -3.232  -0.765 -33.334  1.00  0.00     0.280 C 
BRANCH   5   6
HETATM    6  O   UNL     1      -4.615  -0.656 -33.667  1.00  0.00    -0.341 OA
BRANCH   6   7
HETATM    7  C   UNL     1      -5.188  -1.846 -34.050  1.00  0.00     0.080 A 
HETATM    8  C   UNL     1      -6.587  -1.897 -34.224  1.00  0.00     0.007 A 
HETATM    9  C   UNL     1      -7.154  -3.118 -34.647  1.00  0.00     0.015 A 
HETATM   10  C   UNL     1      -6.363  -4.237 -34.912  1.00  0.00     0.001 A 
HETATM   11  C   UNL     1      -4.983  -4.157 -34.770  1.00  0.00     0.003 A 
HETATM   12  C   UNL     1      -4.396  -2.965 -34.349  1.00  0.00     0.037 A 
BRANCH   8  13
HETATM   13  C   UNL     1      -7.473  -0.744 -33.972  1.00  0.00    -0.023 A 
HETATM   14  C   UNL     1      -7.794   0.151 -35.008  1.00  0.00     0.012 A 
HETATM   15  C   UNL     1      -8.662   1.224 -34.792  1.00  0.00     0.001 A 
HETATM   16  C   UNL     1      -9.225   1.422 -33.535  1.00  0.00     0.000 A 
HETATM   17  C   UNL     1      -8.919   0.548 -32.494  1.00  0.00     0.001 A 
HETATM   18  C   UNL     1      -8.053  -0.527 -32.713  1.00  0.00     0.012 A 
ENDBRANCH   8  13
ENDBRANCH   6   7
ENDBRANCH   5   6
ENDBRANCH   1   5
BRANCH   2  19
HETATM   19  N   UNL     1      -4.060   0.932 -31.149  1.00  0.00    -0.262 N 
HETATM   20  C   UNL     1      -5.349   0.878 -30.642  1.00  0.00     0.291 C 
HETATM   21  O   UNL     1      -5.812  -0.135 -30.119  1.00  0.00    -0.264 OA
HETATM   22  H   UNL     1      -3.669   1.844 -31.390  1.00  0.00     0.190 HD
BRANCH  20  23
HETATM   23  C   UNL     1      -6.088   2.140 -30.772  1.00  0.00     0.158 A 
HETATM   24  N   UNL     1      -6.765   2.671 -29.732  1.00  0.00    -0.168 NA
HETATM   25  N   UNL     1      -7.293   3.802 -30.238  1.00  0.00    -0.277 N 
HETATM   26  H   UNL     1      -7.854   4.386 -29.628  1.00  0.00     0.189 HD
HETATM   27  C   UNL     1      -6.999   4.025 -31.555  1.00  0.00     0.063 A 
HETATM   28  C   UNL     1      -6.207   2.950 -31.940  1.00  0.00     0.028 A 
HETATM   29  C   UNL     1      -7.356   5.062 -32.423  1.00  0.00     0.032 A 
HETATM   30  C   UNL     1      -5.739   2.893 -33.268  1.00  0.00     0.016 A 
HETATM   31  C   UNL     1      -6.086   3.919 -34.156  1.00  0.00     0.001 A 
HETATM   32  C   UNL     1      -6.881   4.985 -33.737  1.00  0.00     0.002 A 
ENDBRANCH  20  23
ENDBRANCH   2  19
TORSDOF 6
ENDMDL
MODEL 2
REMARK VINA RESULT:      -8.3      4.389      8.245
REMARK  6 active torsions:
REMARK  status: ('A' for Active; 'I' for Inactive)
REMARK    1  A    between atoms: C_4  and  C_5 
REMARK    2  A    between atoms: C_6  and  O_7 
REMARK    3  A    between atoms: O_7  and  C_8 
REMARK    4  A    between atoms: C_8  and  C_9 
REMARK       I    between atoms: C_9  and  N_10 
REMARK    5  A    between atoms: N_10  and  N_11 
REMARK       I    between atoms: N_11  and  C_12 
REMARK    6  A    between atoms: C_12  and  C_13 
ROOT
HETATM    1  C   UNL     1      -4.592   2.962 -31.186  1.00  0.00     0.260 C 
HETATM    2  N   UNL     1      -5.548   1.989 -31.355  1.00  0.00    -0.265 N 
HETATM    3  O   UNL     1      -4.865   3.992 -30.566  1.00  0.00    -0.269 OA
HETATM    4  H   UNL     1      -6.401   2.127 -30.811  1.00  0.00     0.190 HD
ENDROOT
BRANCH   1   5
HETATM    5  C   UNL     1      -3.216   2.737 -31.808  1.00  0.00     0.280 C 
BRANCH   5   6
HETATM    6  O   UNL     1      -2.248   3.687 -31.363  1.00  0.00    -0.341 OA
BRANCH   6   7
HETATM    7  C   UNL     1      -1.916   4.625 -32.312  1.00  0.00     0.080 A 
HETATM    8  C   UNL     1      -1.184   5.762 -31.910  1.00  0.00     0.007 A 
HETATM    9  C   UNL     1      -0.825   6.699 -32.902  1.00  0.00     0.015 A 
HETATM   10  C   UNL     1      -1.157   6.505 -34.243  1.00  0.00     0.001 A 
HETATM   11  C   UNL     1      -1.847   5.362 -34.625  1.00  0.00     0.003 A 
HETATM   12  C   UNL     1      -2.219   4.420 -33.666  1.00  0.00     0.037 A 
BRANCH   8  13
HETATM   13  C   UNL     1      -0.792   6.015 -30.509  1.00  0.00    -0.023 A 
HETATM   14  C   UNL     1      -1.594   6.816 -29.676  1.00  0.00     0.012 A 
HETATM   15  C   UNL     1      -1.255   7.031 -28.338  1.00  0.00     0.001 A 
HETATM   16  C   UNL     1      -0.106   6.450 -27.809  1.00  0.00     0.000 A 
HETATM   17  C   UNL     1       0.703   5.655 -28.617  1.00  0.00     0.001 A 
HETATM   18  C   UNL     1       0.360   5.438 -29.955  1.00  0.00     0.012 A 
ENDBRANCH   8  13
ENDBRANCH   6   7
ENDBRANCH   5   6
ENDBRANCH   1   5
BRANCH   2  19
HETATM   19  N   UNL     1      -5.206   0.655 -31.606  1.00  0.00    -0.262 N 
HETATM   20  C   UNL     1      -5.362   0.168 -32.896  1.00  0.00     0.291 C 
HETATM   21  O   UNL     1      -5.910   0.818 -33.785  1.00  0.00    -0.264 OA
HETATM   22  H   UNL     1      -4.579   0.158 -30.971  1.00  0.00     0.190 HD
BRANCH  20  23
HETATM   23  C   UNL     1      -4.799  -1.172 -33.092  1.00  0.00     0.158 A 
HETATM   24  N   UNL     1      -3.603  -1.519 -32.568  1.00  0.00    -0.168 NA
HETATM   25  N   UNL     1      -3.441  -2.797 -32.958  1.00  0.00    -0.277 N 
HETATM   26  H   UNL     1      -2.597  -3.284 -32.674  1.00  0.00     0.189 HD
HETATM   27  C   UNL     1      -4.466  -3.294 -33.715  1.00  0.00     0.063 A 
HETATM   28  C   UNL     1      -5.378  -2.251 -33.824  1.00  0.00     0.028 A 
HETATM   29  C   UNL     1      -4.664  -4.548 -34.302  1.00  0.00     0.032 A 
HETATM   30  C   UNL     1      -6.561  -2.458 -34.562  1.00  0.00     0.016 A 
HETATM   31  C   UNL     1      -6.778  -3.705 -35.161  1.00  0.00     0.001 A 
HETATM   32  C   UNL     1      -5.845  -4.732 -35.030  1.00  0.00     0.002 A 
ENDBRANCH  20  23
ENDBRANCH   2  19
TORSDOF 6
ENDMDL
MODEL 3
REMARK VINA RESULT:      -8.2      4.342      7.880
REMARK  6 active torsions:
REMARK  status: ('A' for Active; 'I' for Inactive)
REMARK    1  A    between atoms: C_4  and  C_5 
REMARK    2  A    between atoms: C_6  and  O_7 
REMARK    3  A    between atoms: O_7  and  C_8 
REMARK    4  A    between atoms: C_8  and  C_9 
REMARK       I    between atoms: C_9  and  N_10 
REMARK    5  A    between atoms: N_10  and  N_11 
REMARK       I    between atoms: N_11  and  C_12 
REMARK    6  A    between atoms: C_12  and  C_13 
ROOT
HETATM    1  C   UNL     1      -5.348   4.542 -29.793  1.00  0.00     0.260 C 
HETATM    2  N   UNL     1      -5.659   3.204 -29.727  1.00  0.00    -0.265 N 
HETATM    3  O   UNL     1      -5.648   5.290 -28.861  1.00  0.00    -0.269 OA
HETATM    4  H   UNL     1      -5.997   2.888 -28.817  1.00  0.00     0.190 HD
ENDROOT
BRANCH   1   5
HETATM    5  C   UNL     1      -4.656   5.060 -31.052  1.00  0.00     0.280 C 
BRANCH   5   6
HETATM    6  O   UNL     1      -3.292   4.650 -31.140  1.00  0.00    -0.341 OA
BRANCH   6   7
HETATM    7  C   UNL     1      -2.674   5.030 -32.308  1.00  0.00     0.080 A 
HETATM    8  C   UNL     1      -1.429   5.690 -32.230  1.00  0.00     0.007 A 
HETATM    9  C   UNL     1      -0.795   6.044 -33.440  1.00  0.00     0.015 A 
HETATM   10  C   UNL     1      -1.359   5.735 -34.678  1.00  0.00     0.001 A 
HETATM   11  C   UNL     1      -2.568   5.053 -34.735  1.00  0.00     0.003 A 
HETATM   12  C   UNL     1      -3.220   4.694 -33.556  1.00  0.00     0.037 A 
BRANCH   8  13
HETATM   13  C   UNL     1      -0.777   6.031 -30.951  1.00  0.00    -0.023 A 
HETATM   14  C   UNL     1       0.027   5.090 -30.284  1.00  0.00     0.012 A 
HETATM   15  C   UNL     1       0.681   5.414 -29.093  1.00  0.00     0.001 A 
HETATM   16  C   UNL     1       0.542   6.686 -28.546  1.00  0.00     0.000 A 
HETATM   17  C   UNL     1      -0.252   7.633 -29.189  1.00  0.00     0.001 A 
HETATM   18  C   UNL     1      -0.903   7.308 -30.383  1.00  0.00     0.012 A 
ENDBRANCH   8  13
ENDBRANCH   6   7
ENDBRANCH   5   6
ENDBRANCH   1   5
BRANCH   2  19
HETATM   19  N   UNL     1      -4.965   2.247 -30.475  1.00  0.00    -0.262 N 
HETATM   20  C   UNL     1      -5.248   0.907 -30.253  1.00  0.00     0.291 C 
HETATM   21  O   UNL     1      -5.980   0.530 -29.339  1.00  0.00    -0.264 OA
HETATM   22  H   UNL     1      -4.516   2.511 -31.354  1.00  0.00     0.190 HD
BRANCH  20  23
HETATM   23  C   UNL     1      -4.610   0.002 -31.216  1.00  0.00     0.158 A 
HETATM   24  N   UNL     1      -3.292  -0.286 -31.148  1.00  0.00    -0.168 NA
HETATM   25  N   UNL     1      -3.095  -1.131 -32.177  1.00  0.00    -0.277 N 
HETATM   26  H   UNL     1      -2.161  -1.496 -32.329  1.00  0.00     0.189 HD
HETATM   27  C   UNL     1      -4.216  -1.398 -32.914  1.00  0.00     0.063 A 
HETATM   28  C   UNL     1      -5.233  -0.668 -32.310  1.00  0.00     0.028 A 
HETATM   29  C   UNL     1      -4.418  -2.205 -34.039  1.00  0.00     0.032 A 
HETATM   30  C   UNL     1      -6.532  -0.736 -32.853  1.00  0.00     0.016 A 
HETATM   31  C   UNL     1      -6.756  -1.534 -33.981  1.00  0.00     0.001 A 
HETATM   32  C   UNL     1      -5.715  -2.257 -34.562  1.00  0.00     0.002 A 
ENDBRANCH  20  23
ENDBRANCH   2  19
TORSDOF 6
ENDMDL
MODEL 4
REMARK VINA RESULT:      -8.2      7.226     10.373
REMARK  6 active torsions:
REMARK  status: ('A' for Active; 'I' for Inactive)
REMARK    1  A    between atoms: C_4  and  C_5 
REMARK    2  A    between atoms: C_6  and  O_7 
REMARK    3  A    between atoms: O_7  and  C_8 
REMARK    4  A    between atoms: C_8  and  C_9 
REMARK       I    between atoms: C_9  and  N_10 
REMARK    5  A    between atoms: N_10  and  N_11 
REMARK       I    between atoms: N_11  and  C_12 
REMARK    6  A    between atoms: C_12  and  C_13 
ROOT
HETATM    1  C   UNL     1      -4.210   7.245 -26.734  1.00  0.00     0.260 C 
HETATM    2  N   UNL     1      -4.685   7.091 -28.015  1.00  0.00    -0.265 N 
HETATM    3  O   UNL     1      -4.974   7.590 -25.831  1.00  0.00    -0.269 OA
HETATM    4  H   UNL     1      -5.701   7.132 -28.103  1.00  0.00     0.190 HD
ENDROOT
BRANCH   1   5
HETATM    5  C   UNL     1      -2.722   7.006 -26.484  1.00  0.00     0.280 C 
BRANCH   5   6
HETATM    6  O   UNL     1      -1.889   7.716 -27.399  1.00  0.00    -0.341 OA
BRANCH   6   7
HETATM    7  C   UNL     1      -0.700   8.139 -26.851  1.00  0.00     0.080 A 
HETATM    8  C   UNL     1       0.505   7.775 -27.490  1.00  0.00     0.007 A 
HETATM    9  C   UNL     1       1.713   8.243 -26.932  1.00  0.00     0.015 A 
HETATM   10  C   UNL     1       1.727   9.059 -25.801  1.00  0.00     0.001 A 
HETATM   11  C   UNL     1       0.529   9.436 -25.207  1.00  0.00     0.003 A 
HETATM   12  C   UNL     1      -0.680   8.986 -25.733  1.00  0.00     0.037 A 
BRANCH   8  13
HETATM   13  C   UNL     1       0.553   6.926 -28.696  1.00  0.00    -0.023 A 
HETATM   14  C   UNL     1       0.505   7.501 -29.979  1.00  0.00     0.012 A 
HETATM   15  C   UNL     1       0.589   6.711 -31.128  1.00  0.00     0.001 A 
HETATM   16  C   UNL     1       0.721   5.330 -31.016  1.00  0.00     0.000 A 
HETATM   17  C   UNL     1       0.768   4.739 -29.755  1.00  0.00     0.001 A 
HETATM   18  C   UNL     1       0.688   5.532 -28.606  1.00  0.00     0.012 A 
ENDBRANCH   8  13
ENDBRANCH   6   7
ENDBRANCH   5   6
ENDBRANCH   1   5
BRANCH   2  19
HETATM   19  N   UNL     1      -4.034   6.279 -28.951  1.00  0.00    -0.262 N 
HETATM   20  C   UNL     1      -4.728   5.907 -30.093  1.00  0.00     0.291 C 
HETATM   21  O   UNL     1      -5.924   6.151 -30.248  1.00  0.00    -0.264 OA
HETATM   22  H   UNL     1      -3.015   6.225 -28.962  1.00  0.00     0.190 HD
BRANCH  20  23
HETATM   23  C   UNL     1      -3.898   5.222 -31.091  1.00  0.00     0.158 A 
HETATM   24  N   UNL     1      -3.816   3.874 -31.135  1.00  0.00    -0.168 NA
HETATM   25  N   UNL     1      -2.980   3.638 -32.163  1.00  0.00    -0.277 N 
HETATM   26  H   UNL     1      -2.765   2.675 -32.396  1.00  0.00     0.189 HD
HETATM   27  C   UNL     1      -2.510   4.763 -32.782  1.00  0.00     0.063 A 
HETATM   28  C   UNL     1      -3.094   5.825 -32.102  1.00  0.00     0.028 A 
HETATM   29  C   UNL     1      -1.637   4.933 -33.862  1.00  0.00     0.032 A 
HETATM   30  C   UNL     1      -2.794   7.140 -32.512  1.00  0.00     0.016 A 
HETATM   31  C   UNL     1      -1.921   7.334 -33.589  1.00  0.00     0.001 A 
HETATM   32  C   UNL     1      -1.354   6.247 -34.252  1.00  0.00     0.002 A 
ENDBRANCH  20  23
ENDBRANCH   2  19
TORSDOF 6
ENDMDL
MODEL 5
REMARK VINA RESULT:      -8.2      1.834      2.484
REMARK  6 active torsions:
REMARK  status: ('A' for Active; 'I' for Inactive)
REMARK    1  A    between atoms: C_4  and  C_5 
REMARK    2  A    between atoms: C_6  and  O_7 
REMARK    3  A    between atoms: O_7  and  C_8 
REMARK    4  A    between atoms: C_8  and  C_9 
REMARK       I    between atoms: C_9  and  N_10 
REMARK    5  A    between atoms: N_10  and  N_11 
REMARK       I    between atoms: N_11  and  C_12 
REMARK    6  A    between atoms: C_12  and  C_13 
ROOT
HETATM    1  C   UNL     1      -3.284   0.318 -31.616  1.00  0.00     0.260 C 
HETATM    2  N   UNL     1      -3.447   1.602 -32.078  1.00  0.00    -0.265 N 
HETATM    3  O   UNL     1      -2.287   0.023 -30.955  1.00  0.00    -0.269 OA
HETATM    4  H   UNL     1      -2.781   2.279 -31.703  1.00  0.00     0.190 HD
ENDROOT
BRANCH   1   5
HETATM    5  C   UNL     1      -4.350  -0.717 -31.973  1.00  0.00     0.280 C 
BRANCH   5   6
HETATM    6  O   UNL     1      -4.648  -0.742 -33.368  1.00  0.00    -0.341 OA
BRANCH   6   7
HETATM    7  C   UNL     1      -5.075  -1.968 -33.821  1.00  0.00     0.080 A 
HETATM    8  C   UNL     1      -6.423  -2.111 -34.215  1.00  0.00     0.007 A 
HETATM    9  C   UNL     1      -6.835  -3.368 -34.706  1.00  0.00     0.015 A 
HETATM   10  C   UNL     1      -5.943  -4.433 -34.826  1.00  0.00     0.001 A 
HETATM   11  C   UNL     1      -4.611  -4.263 -34.468  1.00  0.00     0.003 A 
HETATM   12  C   UNL     1      -4.176  -3.034 -33.975  1.00  0.00     0.037 A 
BRANCH   8  13
HETATM   13  C   UNL     1      -7.409  -1.017 -34.123  1.00  0.00    -0.023 A 
HETATM   14  C   UNL     1      -8.249  -0.903 -33.000  1.00  0.00     0.012 A 
HETATM   15  C   UNL     1      -9.160   0.149 -32.884  1.00  0.00     0.001 A 
HETATM   16  C   UNL     1      -9.249   1.107 -33.890  1.00  0.00     0.000 A 
HETATM   17  C   UNL     1      -8.428   1.012 -35.012  1.00  0.00     0.001 A 
HETATM   18  C   UNL     1      -7.515  -0.040 -35.124  1.00  0.00     0.012 A 
ENDBRANCH   8  13
ENDBRANCH   6   7
ENDBRANCH   5   6
ENDBRANCH   1   5
BRANCH   2  19
HETATM   19  N   UNL     1      -4.708   2.116 -32.401  1.00  0.00    -0.262 N 
HETATM   20  C   UNL     1      -5.063   3.355 -31.887  1.00  0.00     0.291 C 
HETATM   21  O   UNL     1      -4.373   3.950 -31.060  1.00  0.00    -0.264 OA
HETATM   22  H   UNL     1      -5.211   1.766 -33.217  1.00  0.00     0.190 HD
BRANCH  20  23
HETATM   23  C   UNL     1      -6.316   3.884 -32.437  1.00  0.00     0.158 A 
HETATM   24  N   UNL     1      -6.336   4.612 -33.575  1.00  0.00    -0.168 NA
HETATM   25  N   UNL     1      -7.639   4.904 -33.746  1.00  0.00    -0.277 N 
HETATM   26  H   UNL     1      -7.907   5.453 -34.555  1.00  0.00     0.189 HD
HETATM   27  C   UNL     1      -8.464   4.408 -32.773  1.00  0.00     0.063 A 
HETATM   28  C   UNL     1      -7.626   3.732 -31.894  1.00  0.00     0.028 A 
HETATM   29  C   UNL     1      -9.849   4.497 -32.596  1.00  0.00     0.032 A 
HETATM   30  C   UNL     1      -8.192   3.104 -30.766  1.00  0.00     0.016 A 
HETATM   31  C   UNL     1      -9.576   3.182 -30.567  1.00  0.00     0.001 A 
HETATM   32  C   UNL     1     -10.389   3.867 -31.469  1.00  0.00     0.002 A 
ENDBRANCH  20  23
ENDBRANCH   2  19
TORSDOF 6
ENDMDL
MODEL 6
REMARK VINA RESULT:      -8.1      2.954      3.657
REMARK  6 active torsions:
REMARK  status: ('A' for Active; 'I' for Inactive)
REMARK    1  A    between atoms: C_4  and  C_5 
REMARK    2  A    between atoms: C_6  and  O_7 
REMARK    3  A    between atoms: O_7  and  C_8 
REMARK    4  A    between atoms: C_8  and  C_9 
REMARK       I    between atoms: C_9  and  N_10 
REMARK    5  A    between atoms: N_10  and  N_11 
REMARK       I    between atoms: N_11  and  C_12 
REMARK    6  A    between atoms: C_12  and  C_13 
ROOT
HETATM    1  C   UNL     1      -5.842   0.794 -31.065  1.00  0.00     0.260 C 
HETATM    2  N   UNL     1      -5.685   2.160 -31.062  1.00  0.00    -0.265 N 
HETATM    3  O   UNL     1      -6.811   0.285 -30.499  1.00  0.00    -0.269 OA
HETATM    4  H   UNL     1      -6.487   2.683 -30.707  1.00  0.00     0.190 HD
ENDROOT
BRANCH   1   5
HETATM    5  C   UNL     1      -4.775  -0.053 -31.755  1.00  0.00     0.280 C 
BRANCH   5   6
HETATM    6  O   UNL     1      -4.897  -0.041 -33.176  1.00  0.00    -0.341 OA
BRANCH   6   7
HETATM    7  C   UNL     1      -5.251  -1.258 -33.711  1.00  0.00     0.080 A 
HETATM    8  C   UNL     1      -6.583  -1.447 -34.135  1.00  0.00     0.007 A 
HETATM    9  C   UNL     1      -6.921  -2.690 -34.710  1.00  0.00     0.015 A 
HETATM   10  C   UNL     1      -5.971  -3.697 -34.882  1.00  0.00     0.001 A 
HETATM   11  C   UNL     1      -4.656  -3.480 -34.491  1.00  0.00     0.003 A 
HETATM   12  C   UNL     1      -4.293  -2.262 -33.916  1.00  0.00     0.037 A 
BRANCH   8  13
HETATM   13  C   UNL     1      -7.629  -0.415 -33.992  1.00  0.00    -0.023 A 
HETATM   14  C   UNL     1      -8.721  -0.617 -33.129  1.00  0.00     0.012 A 
HETATM   15  C   UNL     1      -9.696   0.368 -32.956  1.00  0.00     0.001 A 
HETATM   16  C   UNL     1      -9.598   1.574 -33.644  1.00  0.00     0.000 A 
HETATM   17  C   UNL     1      -8.526   1.794 -34.506  1.00  0.00     0.001 A 
HETATM   18  C   UNL     1      -7.549   0.809 -34.675  1.00  0.00     0.012 A 
ENDBRANCH   8  13
ENDBRANCH   6   7
ENDBRANCH   5   6
ENDBRANCH   1   5
BRANCH   2  19
HETATM   19  N   UNL     1      -4.925   2.817 -32.037  1.00  0.00    -0.262 N 
HETATM   20  C   UNL     1      -5.477   3.924 -32.665  1.00  0.00     0.291 C 
HETATM   21  O   UNL     1      -6.647   4.265 -32.494  1.00  0.00    -0.264 OA
HETATM   22  H   UNL     1      -3.911   2.698 -32.063  1.00  0.00     0.190 HD
BRANCH  20  23
HETATM   23  C   UNL     1      -4.532   4.648 -33.523  1.00  0.00     0.158 A 
HETATM   24  N   UNL     1      -4.730   4.757 -34.855  1.00  0.00    -0.168 NA
HETATM   25  N   UNL     1      -3.673   5.476 -35.278  1.00  0.00    -0.277 N 
HETATM   26  H   UNL     1      -3.604   5.694 -36.266  1.00  0.00     0.189 HD
HETATM   27  C   UNL     1      -2.797   5.831 -34.290  1.00  0.00     0.063 A 
HETATM   28  C   UNL     1      -3.330   5.301 -33.121  1.00  0.00     0.028 A 
HETATM   29  C   UNL     1      -1.603   6.559 -34.325  1.00  0.00     0.032 A 
HETATM   30  C   UNL     1      -2.639   5.501 -31.908  1.00  0.00     0.016 A 
HETATM   31  C   UNL     1      -1.440   6.223 -31.920  1.00  0.00     0.001 A 
HETATM   32  C   UNL     1      -0.933   6.744 -33.110  1.00  0.00     0.002 A 
ENDBRANCH  20  23
ENDBRANCH   2  19
TORSDOF 6
ENDMDL
MODEL 7
REMARK VINA RESULT:      -7.8      3.307      4.631
REMARK  6 active torsions:
REMARK  status: ('A' for Active; 'I' for Inactive)
REMARK    1  A    between atoms: C_4  and  C_5 
REMARK    2  A    between atoms: C_6  and  O_7 
REMARK    3  A    between atoms: O_7  and  C_8 
REMARK    4  A    between atoms: C_8  and  C_9 
REMARK       I    between atoms: C_9  and  N_10 
REMARK    5  A    between atoms: N_10  and  N_11 
REMARK       I    between atoms: N_11  and  C_12 
REMARK    6  A    between atoms: C_12  and  C_13 
ROOT
HETATM    1  C   UNL     1      -7.604   3.014 -31.080  1.00  0.00     0.260 C 
HETATM    2  N   UNL     1      -7.172   4.291 -31.350  1.00  0.00    -0.265 N 
HETATM    3  O   UNL     1      -8.801   2.798 -30.883  1.00  0.00    -0.269 OA
HETATM    4  H   UNL     1      -7.918   4.968 -31.521  1.00  0.00     0.190 HD
ENDROOT
BRANCH   1   5
HETATM    5  C   UNL     1      -6.560   1.902 -31.004  1.00  0.00     0.280 C 
BRANCH   5   6
HETATM    6  O   UNL     1      -7.138   0.599 -31.077  1.00  0.00    -0.341 OA
BRANCH   6   7
HETATM    7  C   UNL     1      -6.637  -0.172 -32.100  1.00  0.00     0.080 A 
HETATM    8  C   UNL     1      -7.378  -0.272 -33.296  1.00  0.00     0.007 A 
HETATM    9  C   UNL     1      -6.834  -1.042 -34.346  1.00  0.00     0.015 A 
HETATM   10  C   UNL     1      -5.593  -1.668 -34.224  1.00  0.00     0.001 A 
HETATM   11  C   UNL     1      -4.861  -1.529 -33.052  1.00  0.00     0.003 A 
HETATM   12  C   UNL     1      -5.375  -0.777 -31.996  1.00  0.00     0.037 A 
BRANCH   8  13
HETATM   13  C   UNL     1      -8.689   0.378 -33.489  1.00  0.00    -0.023 A 
HETATM   14  C   UNL     1      -8.796   1.569 -34.229  1.00  0.00     0.012 A 
HETATM   15  C   UNL     1     -10.035   2.173 -34.451  1.00  0.00     0.001 A 
HETATM   16  C   UNL     1     -11.193   1.597 -33.934  1.00  0.00     0.000 A 
HETATM   17  C   UNL     1     -11.110   0.419 -33.197  1.00  0.00     0.001 A 
HETATM   18  C   UNL     1      -9.868  -0.186 -32.979  1.00  0.00     0.012 A 
ENDBRANCH   8  13
ENDBRANCH   6   7
ENDBRANCH   5   6
ENDBRANCH   1   5
BRANCH   2  19
HETATM   19  N   UNL     1      -5.973   4.537 -32.029  1.00  0.00    -0.262 N 
HETATM   20  C   UNL     1      -6.040   5.031 -33.323  1.00  0.00     0.291 C 
HETATM   21  O   UNL     1      -7.101   5.134 -33.937  1.00  0.00    -0.264 OA
HETATM   22  H   UNL     1      -5.104   4.656 -31.507  1.00  0.00     0.190 HD
BRANCH  20  23
HETATM   23  C   UNL     1      -4.738   5.432 -33.870  1.00  0.00     0.158 A 
HETATM   24  N   UNL     1      -4.359   5.083 -35.118  1.00  0.00    -0.168 NA
HETATM   25  N   UNL     1      -3.135   5.628 -35.245  1.00  0.00    -0.277 N 
HETATM   26  H   UNL     1      -2.640   5.501 -36.121  1.00  0.00     0.189 HD
HETATM   27  C   UNL     1      -2.698   6.306 -34.140  1.00  0.00     0.063 A 
HETATM   28  C   UNL     1      -3.728   6.196 -33.214  1.00  0.00     0.028 A 
HETATM   29  C   UNL     1      -1.506   6.991 -33.882  1.00  0.00     0.032 A 
HETATM   30  C   UNL     1      -3.571   6.801 -31.950  1.00  0.00     0.016 A 
HETATM   31  C   UNL     1      -2.386   7.490 -31.669  1.00  0.00     0.001 A 
HETATM   32  C   UNL     1      -1.372   7.583 -32.621  1.00  0.00     0.002 A 
ENDBRANCH  20  23
ENDBRANCH   2  19
TORSDOF 6
ENDMDL
MODEL 8
REMARK VINA RESULT:      -7.8      3.718      4.465
REMARK  6 active torsions:
REMARK  status: ('A' for Active; 'I' for Inactive)
REMARK    1  A    between atoms: C_4  and  C_5 
REMARK    2  A    between atoms: C_6  and  O_7 
REMARK    3  A    between atoms: O_7  and  C_8 
REMARK    4  A    between atoms: C_8  and  C_9 
REMARK       I    between atoms: C_9  and  N_10 
REMARK    5  A    between atoms: N_10  and  N_11 
REMARK       I    between atoms: N_11  and  C_12 
REMARK    6  A    between atoms: C_12  and  C_13 
ROOT
HETATM    1  C   UNL     1      -5.990   1.692 -30.703  1.00  0.00     0.260 C 
HETATM    2  N   UNL     1      -5.336   2.797 -30.210  1.00  0.00    -0.265 N 
HETATM    3  O   UNL     1      -7.207   1.577 -30.548  1.00  0.00    -0.269 OA
HETATM    4  H   UNL     1      -5.948   3.540 -29.869  1.00  0.00     0.190 HD
ENDROOT
BRANCH   1   5
HETATM    5  C   UNL     1      -5.162   0.620 -31.408  1.00  0.00     0.280 C 
BRANCH   5   6
HETATM    6  O   UNL     1      -5.256   0.698 -32.830  1.00  0.00    -0.341 OA
BRANCH   6   7
HETATM    7  C   UNL     1      -5.379  -0.527 -33.444  1.00  0.00     0.080 A 
HETATM    8  C   UNL     1      -6.641  -0.904 -33.951  1.00  0.00     0.007 A 
HETATM    9  C   UNL     1      -6.742  -2.150 -34.606  1.00  0.00     0.015 A 
HETATM   10  C   UNL     1      -5.632  -2.978 -34.774  1.00  0.00     0.001 A 
HETATM   11  C   UNL     1      -4.390  -2.574 -34.299  1.00  0.00     0.003 A 
HETATM   12  C   UNL     1      -4.261  -1.350 -33.645  1.00  0.00     0.037 A 
BRANCH   8  13
HETATM   13  C   UNL     1      -7.848  -0.065 -33.816  1.00  0.00    -0.023 A 
HETATM   14  C   UNL     1      -8.876  -0.428 -32.927  1.00  0.00     0.012 A 
HETATM   15  C   UNL     1     -10.005   0.378 -32.762  1.00  0.00     0.001 A 
HETATM   16  C   UNL     1     -10.128   1.562 -33.484  1.00  0.00     0.000 A 
HETATM   17  C   UNL     1      -9.122   1.939 -34.371  1.00  0.00     0.001 A 
HETATM   18  C   UNL     1      -7.991   1.133 -34.533  1.00  0.00     0.012 A 
ENDBRANCH   8  13
ENDBRANCH   6   7
ENDBRANCH   5   6
ENDBRANCH   1   5
BRANCH   2  19
HETATM   19  N   UNL     1      -4.110   3.223 -30.733  1.00  0.00    -0.262 N 
HETATM   20  C   UNL     1      -4.065   4.443 -31.392  1.00  0.00     0.291 C 
HETATM   21  O   UNL     1      -5.077   5.094 -31.647  1.00  0.00    -0.264 OA
HETATM   22  H   UNL     1      -3.237   2.828 -30.380  1.00  0.00     0.190 HD
BRANCH  20  23
HETATM   23  C   UNL     1      -2.706   4.881 -31.730  1.00  0.00     0.158 A 
HETATM   24  N   UNL     1      -2.082   4.449 -32.848  1.00  0.00    -0.168 NA
HETATM   25  N   UNL     1      -0.885   5.063 -32.804  1.00  0.00    -0.277 N 
HETATM   26  H   UNL     1      -0.229   4.892 -33.558  1.00  0.00     0.189 HD
HETATM   27  C   UNL     1      -0.697   5.864 -31.711  1.00  0.00     0.063 A 
HETATM   28  C   UNL     1      -1.876   5.767 -30.981  1.00  0.00     0.028 A 
HETATM   29  C   UNL     1       0.389   6.648 -31.310  1.00  0.00     0.032 A 
HETATM   30  C   UNL     1      -1.989   6.491 -29.777  1.00  0.00     0.016 A 
HETATM   31  C   UNL     1      -0.913   7.281 -29.355  1.00  0.00     0.001 A 
HETATM   32  C   UNL     1       0.255   7.358 -30.111  1.00  0.00     0.002 A 
ENDBRANCH  20  23
ENDBRANCH   2  19
TORSDOF 6
ENDMDL
MODEL 9
REMARK VINA RESULT:      -7.7     14.365     16.137
REMARK  6 active torsions:
REMARK  status: ('A' for Active; 'I' for Inactive)
REMARK    1  A    between atoms: C_4  and  C_5 
REMARK    2  A    between atoms: C_6  and  O_7 
REMARK    3  A    between atoms: O_7  and  C_8 
REMARK    4  A    between atoms: C_8  and  C_9 
REMARK       I    between atoms: C_9  and  N_10 
REMARK    5  A    between atoms: N_10  and  N_11 
REMARK       I    between atoms: N_11  and  C_12 
REMARK    6  A    between atoms: C_12  and  C_13 
ROOT
HETATM    1  C   UNL     1      -7.351 -13.939 -37.119  1.00  0.00     0.260 C 
HETATM    2  N   UNL     1      -6.624 -12.792 -36.907  1.00  0.00    -0.265 N 
HETATM    3  O   UNL     1      -8.573 -13.932 -36.959  1.00  0.00    -0.269 OA
HETATM    4  H   UNL     1      -7.184 -11.949 -36.771  1.00  0.00     0.190 HD
ENDROOT
BRANCH   1   5
HETATM    5  C   UNL     1      -6.598 -15.206 -37.522  1.00  0.00     0.280 C 
BRANCH   5   6
HETATM    6  O   UNL     1      -6.885 -15.614 -38.859  1.00  0.00    -0.341 OA
BRANCH   6   7
HETATM    7  C   UNL     1      -6.140 -14.956 -39.810  1.00  0.00     0.080 A 
HETATM    8  C   UNL     1      -6.777 -13.990 -40.617  1.00  0.00     0.007 A 
HETATM    9  C   UNL     1      -5.991 -13.303 -41.566  1.00  0.00     0.015 A 
HETATM   10  C   UNL     1      -4.623 -13.545 -41.694  1.00  0.00     0.001 A 
HETATM   11  C   UNL     1      -4.006 -14.475 -40.865  1.00  0.00     0.003 A 
HETATM   12  C   UNL     1      -4.758 -15.172 -39.921  1.00  0.00     0.037 A 
BRANCH   8  13
HETATM   13  C   UNL     1      -8.217 -13.681 -40.519  1.00  0.00    -0.023 A 
HETATM   14  C   UNL     1      -8.650 -12.377 -40.217  1.00  0.00     0.012 A 
HETATM   15  C   UNL     1     -10.010 -12.064 -40.160  1.00  0.00     0.001 A 
HETATM   16  C   UNL     1     -10.963 -13.049 -40.403  1.00  0.00     0.000 A 
HETATM   17  C   UNL     1     -10.556 -14.347 -40.701  1.00  0.00     0.001 A 
HETATM   18  C   UNL     1      -9.194 -14.659 -40.762  1.00  0.00     0.012 A 
ENDBRANCH   8  13
ENDBRANCH   6   7
ENDBRANCH   5   6
ENDBRANCH   1   5
BRANCH   2  19
HETATM   19  N   UNL     1      -5.373 -12.591 -37.501  1.00  0.00    -0.262 N 
HETATM   20  C   UNL     1      -4.238 -12.868 -36.753  1.00  0.00     0.291 C 
HETATM   21  O   UNL     1      -4.289 -13.152 -35.557  1.00  0.00    -0.264 OA
HETATM   22  H   UNL     1      -5.289 -12.555 -38.518  1.00  0.00     0.190 HD
BRANCH  20  23
HETATM   23  C   UNL     1      -2.993 -12.809 -37.527  1.00  0.00     0.158 A 
HETATM   24  N   UNL     1      -2.721 -11.771 -38.347  1.00  0.00    -0.168 NA
HETATM   25  N   UNL     1      -1.515 -12.077 -38.862  1.00  0.00    -0.277 N 
HETATM   26  H   UNL     1      -1.093 -11.429 -39.518  1.00  0.00     0.189 HD
HETATM   27  C   UNL     1      -0.995 -13.264 -38.423  1.00  0.00     0.063 A 
HETATM   28  C   UNL     1      -1.943 -13.774 -37.542  1.00  0.00     0.028 A 
HETATM   29  C   UNL     1       0.204 -13.920 -38.720  1.00  0.00     0.032 A 
HETATM   30  C   UNL     1      -1.690 -15.012 -36.917  1.00  0.00     0.016 A 
HETATM   31  C   UNL     1      -0.498 -15.687 -37.202  1.00  0.00     0.001 A 
HETATM   32  C   UNL     1       0.433 -15.147 -38.089  1.00  0.00     0.002 A 
ENDBRANCH  20  23
ENDBRANCH   2  19
TORSDOF 6
ENDMDL
MODEL 10
REMARK VINA RESULT:      -7.6     14.666     16.178
REMARK  6 active torsions:
REMARK  status: ('A' for Active; 'I' for Inactive)
REMARK    1  A    between atoms: C_4  and  C_5 
REMARK    2  A    between atoms: C_6  and  O_7 
REMARK    3  A    between atoms: O_7  and  C_8 
REMARK    4  A    between atoms: C_8  and  C_9 
REMARK       I    between atoms: C_9  and  N_10 
REMARK    5  A    between atoms: N_10  and  N_11 
REMARK       I    between atoms: N_11  and  C_12 
REMARK    6  A    between atoms: C_12  and  C_13 
ROOT
HETATM    1  C   UNL     1      -4.048 -14.101 -41.389  1.00  0.00     0.260 C 
HETATM    2  N   UNL     1      -3.463 -13.368 -40.384  1.00  0.00    -0.265 N 
HETATM    3  O   UNL     1      -3.747 -13.884 -42.564  1.00  0.00    -0.269 OA
HETATM    4  H   UNL     1      -2.685 -12.777 -40.682  1.00  0.00     0.190 HD
ENDROOT
BRANCH   1   5
HETATM    5  C   UNL     1      -5.088 -15.151 -41.004  1.00  0.00     0.280 C 
BRANCH   5   6
HETATM    6  O   UNL     1      -6.169 -14.605 -40.250  1.00  0.00    -0.341 OA
BRANCH   6   7
HETATM    7  C   UNL     1      -6.542 -15.380 -39.176  1.00  0.00     0.080 A 
HETATM    8  C   UNL     1      -7.861 -15.268 -38.688  1.00  0.00     0.007 A 
HETATM    9  C   UNL     1      -8.236 -16.092 -37.606  1.00  0.00     0.015 A 
HETATM   10  C   UNL     1      -7.347 -17.011 -37.047  1.00  0.00     0.001 A 
HETATM   11  C   UNL     1      -6.063 -17.133 -37.564  1.00  0.00     0.003 A 
HETATM   12  C   UNL     1      -5.664 -16.328 -38.630  1.00  0.00     0.037 A 
BRANCH   8  13
HETATM   13  C   UNL     1      -8.850 -14.325 -39.247  1.00  0.00    -0.023 A 
HETATM   14  C   UNL     1      -8.683 -12.938 -39.093  1.00  0.00     0.012 A 
HETATM   15  C   UNL     1      -9.591 -12.035 -39.650  1.00  0.00     0.001 A 
HETATM   16  C   UNL     1     -10.685 -12.503 -40.373  1.00  0.00     0.000 A 
HETATM   17  C   UNL     1     -10.870 -13.874 -40.537  1.00  0.00     0.001 A 
HETATM   18  C   UNL     1      -9.958 -14.776 -39.981  1.00  0.00     0.012 A 
ENDBRANCH   8  13
ENDBRANCH   6   7
ENDBRANCH   5   6
ENDBRANCH   1   5
BRANCH   2  19
HETATM   19  N   UNL     1      -3.384 -13.847 -39.072  1.00  0.00    -0.262 N 
HETATM   20  C   UNL     1      -3.770 -13.004 -38.040  1.00  0.00     0.291 C 
HETATM   21  O   UNL     1      -4.049 -11.820 -38.224  1.00  0.00    -0.264 OA
HETATM   22  H   UNL     1      -3.355 -14.852 -38.894  1.00  0.00     0.190 HD
BRANCH  20  23
HETATM   23  C   UNL     1      -3.831 -13.664 -36.731  1.00  0.00     0.158 A 
HETATM   24  N   UNL     1      -2.737 -14.228 -36.173  1.00  0.00    -0.168 NA
HETATM   25  N   UNL     1      -3.189 -14.715 -35.002  1.00  0.00    -0.277 N 
HETATM   26  H   UNL     1      -2.532 -15.190 -34.393  1.00  0.00     0.189 HD
HETATM   27  C   UNL     1      -4.521 -14.502 -34.776  1.00  0.00     0.063 A 
HETATM   28  C   UNL     1      -4.976 -13.813 -35.894  1.00  0.00     0.028 A 
HETATM   29  C   UNL     1      -5.348 -14.851 -33.703  1.00  0.00     0.032 A 
HETATM   30  C   UNL     1      -6.336 -13.447 -35.959  1.00  0.00     0.016 A 
HETATM   31  C   UNL     1      -7.183 -13.789 -34.898  1.00  0.00     0.001 A 
HETATM   32  C   UNL     1      -6.695 -14.478 -33.789  1.00  0.00     0.002 A 
ENDBRANCH  20  23
ENDBRANCH   2  19
TORSDOF 6
ENDMDL
