MODEL 1
REMARK VINA RESULT:      -9.0      0.000      0.000
REMARK  8 active torsions:
REMARK  status: ('A' for Active; 'I' for Inactive)
REMARK    1  A    between atoms: C_2  and  O_3 
REMARK    2  A    between atoms: O_3  and  C_4 
REMARK    3  A    between atoms: C_4  and  C_5 
REMARK    4  A    between atoms: C_10  and  C_11 
REMARK       I    between atoms: C_11  and  N_12 
REMARK    5  A    between atoms: N_12  and  C_13 
REMARK    6  A    between atoms: C_15  and  C_16 
REMARK    7  A    between atoms: C_16  and  C_17 
REMARK    8  A    between atoms: C_17  and  C_18 
ROOT
HETATM    1  C   UNL     1      -6.770   2.793 -32.215  1.00  0.00     0.725 A 
HETATM    2  N   UNL     1      -6.839   1.973 -33.233  1.00  0.00    -0.046 NA
HETATM    3  C   UNL     1      -7.828   1.094 -32.893  1.00  0.00     0.166 A 
HETATM    4  N   UNL     1      -8.406   1.336 -31.709  1.00  0.00    -0.144 NA
HETATM    5  N   UNL     1      -7.722   2.422 -31.305  1.00  0.00    -0.106 N 
HETATM    6  H   UNL     1      -7.951   2.844 -30.414  1.00  0.00     0.208 HD
ENDROOT
BRANCH   1   7
HETATM    7  N   UNL     1      -5.931   3.863 -32.026  1.00  0.00    -0.152 N 
HETATM    8  C   UNL     1      -5.015   3.878 -30.993  1.00  0.00     0.272 C 
HETATM    9  O   UNL     1      -4.904   3.035 -30.112  1.00  0.00    -0.267 OA
HETATM   10  H   UNL     1      -6.009   4.677 -32.612  1.00  0.00     0.187 HD
BRANCH   8  11
HETATM   11  C   UNL     1      -4.147   5.071 -30.987  1.00  0.00     0.063 A 
HETATM   12  C   UNL     1      -4.303   6.237 -30.241  1.00  0.00     0.022 A 
HETATM   13  N   UNL     1      -3.305   7.102 -30.616  1.00  0.00    -0.354 N 
HETATM   14  C   UNL     1      -5.330   6.673 -29.257  1.00  0.00     0.069 C 
HETATM   15  C   UNL     1      -2.559   6.582 -31.648  1.00  0.00     0.115 A 
HETATM   16  H   UNL     1      -3.180   8.045 -30.268  1.00  0.00     0.166 HD
HETATM   17  C   UNL     1      -3.003   5.279 -31.846  1.00  0.00    -0.011 A 
HETATM   18  C   UNL     1      -2.452   4.275 -32.807  1.00  0.00     0.052 C 
BRANCH  15  19
HETATM   19  C   UNL     1      -1.561   7.395 -32.310  1.00  0.00     0.310 C 
HETATM   20  O   UNL     1      -1.806   8.458 -32.867  1.00  0.00    -0.258 OA
BRANCH  19  21
HETATM   21  O   UNL     1      -0.349   6.780 -32.294  1.00  0.00    -0.317 OA
BRANCH  21  22
HETATM   22  C   UNL     1       0.316   6.726 -31.025  1.00  0.00     0.175 C 
HETATM   23  C   UNL     1       0.753   5.302 -30.736  1.00  0.00     0.034 C 
ENDBRANCH  21  22
ENDBRANCH  19  21
ENDBRANCH  15  19
ENDBRANCH   8  11
ENDBRANCH   1   7
BRANCH   3  24
HETATM   24  C   UNL     1      -8.203  -0.028 -33.789  1.00  0.00     0.087 C 
BRANCH  24  25
HETATM   25  C   UNL     1      -7.153  -0.243 -34.881  1.00  0.00     0.048 C 
BRANCH  25  26
HETATM   26  C   UNL     1      -5.998  -1.070 -34.414  1.00  0.00    -0.030 A 
HETATM   27  C   UNL     1      -5.859  -2.488 -34.565  1.00  0.00    -0.002 A 
HETATM   28  C   UNL     1      -4.635  -2.852 -34.003  1.00  0.00     0.042 A 
HETATM   29  C   UNL     1      -6.666  -3.496 -35.133  1.00  0.00     0.014 A 
HETATM   30  C   UNL     1      -4.176  -4.174 -33.980  1.00  0.00     0.030 A 
HETATM   31  N   UNL     1      -4.052  -1.701 -33.530  1.00  0.00    -0.365 N 
HETATM   32  C   UNL     1      -4.996  -5.155 -34.548  1.00  0.00     0.002 A 
HETATM   33  C   UNL     1      -6.224  -4.824 -35.117  1.00  0.00     0.001 A 
HETATM   34  H   UNL     1      -3.151  -1.662 -33.075  1.00  0.00     0.165 HD
HETATM   35  C   UNL     1      -4.863  -0.622 -33.768  1.00  0.00     0.096 A 
ENDBRANCH  25  26
ENDBRANCH  24  25
ENDBRANCH   3  24
TORSDOF 8
ENDMDL
MODEL 2
REMARK VINA RESULT:      -8.9      1.198      1.834
REMARK  8 active torsions:
REMARK  status: ('A' for Active; 'I' for Inactive)
REMARK    1  A    between atoms: C_2  and  O_3 
REMARK    2  A    between atoms: O_3  and  C_4 
REMARK    3  A    between atoms: C_4  and  C_5 
REMARK    4  A    between atoms: C_10  and  C_11 
REMARK       I    between atoms: C_11  and  N_12 
REMARK    5  A    between atoms: N_12  and  C_13 
REMARK    6  A    between atoms: C_15  and  C_16 
REMARK    7  A    between atoms: C_16  and  C_17 
REMARK    8  A    between atoms: C_17  and  C_18 
ROOT
HETATM    1  C   UNL     1      -6.594   2.309 -32.554  1.00  0.00     0.725 A 
HETATM    2  N   UNL     1      -6.607   1.445 -33.538  1.00  0.00    -0.046 NA
HETATM    3  C   UNL     1      -7.435   0.448 -33.102  1.00  0.00     0.166 A 
HETATM    4  N   UNL     1      -7.965   0.656 -31.890  1.00  0.00    -0.144 NA
HETATM    5  N   UNL     1      -7.423   1.844 -31.569  1.00  0.00    -0.106 N 
HETATM    6  H   UNL     1      -7.654   2.267 -30.679  1.00  0.00     0.208 HD
ENDROOT
BRANCH   1   7
HETATM    7  N   UNL     1      -5.909   3.495 -32.458  1.00  0.00    -0.152 N 
HETATM    8  C   UNL     1      -5.009   3.719 -31.436  1.00  0.00     0.272 C 
HETATM    9  O   UNL     1      -4.789   2.973 -30.489  1.00  0.00    -0.267 OA
HETATM   10  H   UNL     1      -6.093   4.239 -33.109  1.00  0.00     0.187 HD
BRANCH   8  11
HETATM   11  C   UNL     1      -4.311   5.015 -31.533  1.00  0.00     0.063 A 
HETATM   12  C   UNL     1      -4.748   6.256 -31.076  1.00  0.00     0.022 A 
HETATM   13  N   UNL     1      -3.810   7.185 -31.452  1.00  0.00    -0.354 N 
HETATM   14  C   UNL     1      -5.989   6.694 -30.382  1.00  0.00     0.069 C 
HETATM   15  C   UNL     1      -2.824   6.614 -32.221  1.00  0.00     0.115 A 
HETATM   16  H   UNL     1      -3.870   8.184 -31.288  1.00  0.00     0.166 HD
HETATM   17  C   UNL     1      -3.059   5.243 -32.218  1.00  0.00    -0.011 A 
HETATM   18  C   UNL     1      -2.216   4.182 -32.851  1.00  0.00     0.052 C 
BRANCH  15  19
HETATM   19  C   UNL     1      -1.825   7.442 -32.864  1.00  0.00     0.310 C 
HETATM   20  O   UNL     1      -1.795   7.663 -34.068  1.00  0.00    -0.258 OA
BRANCH  19  21
HETATM   21  O   UNL     1      -0.898   7.864 -31.965  1.00  0.00    -0.317 OA
BRANCH  21  22
HETATM   22  C   UNL     1       0.101   6.907 -31.588  1.00  0.00     0.175 C 
HETATM   23  C   UNL     1       0.111   6.744 -30.079  1.00  0.00     0.034 C 
ENDBRANCH  21  22
ENDBRANCH  19  21
ENDBRANCH  15  19
ENDBRANCH   8  11
ENDBRANCH   1   7
BRANCH   3  24
HETATM   24  C   UNL     1      -7.698  -0.752 -33.933  1.00  0.00     0.087 C 
BRANCH  24  25
HETATM   25  C   UNL     1      -6.565  -0.999 -34.930  1.00  0.00     0.048 C 
BRANCH  25  26
HETATM   26  C   UNL     1      -5.784  -2.237 -34.619  1.00  0.00    -0.030 A 
HETATM   27  C   UNL     1      -4.764  -2.363 -33.621  1.00  0.00    -0.002 A 
HETATM   28  C   UNL     1      -4.306  -3.680 -33.654  1.00  0.00     0.042 A 
HETATM   29  C   UNL     1      -4.192  -1.473 -32.688  1.00  0.00     0.014 A 
HETATM   30  C   UNL     1      -3.302  -4.154 -32.801  1.00  0.00     0.030 A 
HETATM   31  N   UNL     1      -5.020  -4.330 -34.633  1.00  0.00    -0.365 N 
HETATM   32  C   UNL     1      -2.749  -3.251 -31.887  1.00  0.00     0.002 A 
HETATM   33  C   UNL     1      -3.185  -1.929 -31.830  1.00  0.00     0.001 A 
HETATM   34  H   UNL     1      -4.902  -5.303 -34.875  1.00  0.00     0.165 HD
HETATM   35  C   UNL     1      -5.910  -3.472 -35.223  1.00  0.00     0.096 A 
ENDBRANCH  25  26
ENDBRANCH  24  25
ENDBRANCH   3  24
TORSDOF 8
ENDMDL
MODEL 3
REMARK VINA RESULT:      -8.5      2.032      2.955
REMARK  8 active torsions:
REMARK  status: ('A' for Active; 'I' for Inactive)
REMARK    1  A    between atoms: C_2  and  O_3 
REMARK    2  A    between atoms: O_3  and  C_4 
REMARK    3  A    between atoms: C_4  and  C_5 
REMARK    4  A    between atoms: C_10  and  C_11 
REMARK       I    between atoms: C_11  and  N_12 
REMARK    5  A    between atoms: N_12  and  C_13 
REMARK    6  A    between atoms: C_15  and  C_16 
REMARK    7  A    between atoms: C_16  and  C_17 
REMARK    8  A    between atoms: C_17  and  C_18 
ROOT
HETATM    1  C   UNL     1      -5.761   2.904 -33.246  1.00  0.00     0.725 A 
HETATM    2  N   UNL     1      -5.592   1.606 -33.286  1.00  0.00    -0.046 NA
HETATM    3  C   UNL     1      -6.843   1.108 -33.519  1.00  0.00     0.166 A 
HETATM    4  N   UNL     1      -7.797   2.039 -33.650  1.00  0.00    -0.144 NA
HETATM    5  N   UNL     1      -7.084   3.167 -33.481  1.00  0.00    -0.106 N 
HETATM    6  H   UNL     1      -7.556   4.060 -33.533  1.00  0.00     0.208 HD
ENDROOT
BRANCH   1   7
HETATM    7  N   UNL     1      -4.830   3.888 -33.027  1.00  0.00    -0.152 N 
HETATM    8  C   UNL     1      -4.518   4.807 -34.009  1.00  0.00     0.272 C 
HETATM    9  O   UNL     1      -4.934   4.805 -35.161  1.00  0.00    -0.267 OA
HETATM   10  H   UNL     1      -4.325   3.922 -32.158  1.00  0.00     0.187 HD
BRANCH   8  11
HETATM   11  C   UNL     1      -3.555   5.836 -33.574  1.00  0.00     0.063 A 
HETATM   12  C   UNL     1      -2.227   5.985 -33.968  1.00  0.00     0.022 A 
HETATM   13  N   UNL     1      -1.699   7.029 -33.250  1.00  0.00    -0.354 N 
HETATM   14  C   UNL     1      -1.360   5.211 -34.897  1.00  0.00     0.069 C 
HETATM   15  C   UNL     1      -2.604   7.508 -32.331  1.00  0.00     0.115 A 
HETATM   16  H   UNL     1      -0.740   7.352 -33.297  1.00  0.00     0.166 HD
HETATM   17  C   UNL     1      -3.803   6.844 -32.567  1.00  0.00    -0.011 A 
HETATM   18  C   UNL     1      -5.110   7.070 -31.877  1.00  0.00     0.052 C 
BRANCH  15  19
HETATM   19  C   UNL     1      -2.200   8.498 -31.355  1.00  0.00     0.310 C 
HETATM   20  O   UNL     1      -2.022   9.680 -31.616  1.00  0.00    -0.258 OA
BRANCH  19  21
HETATM   21  O   UNL     1      -1.974   7.918 -30.147  1.00  0.00    -0.317 OA
BRANCH  21  22
HETATM   22  C   UNL     1      -1.194   6.715 -30.158  1.00  0.00     0.175 C 
HETATM   23  C   UNL     1       0.220   7.016 -29.698  1.00  0.00     0.034 C 
ENDBRANCH  21  22
ENDBRANCH  19  21
ENDBRANCH  15  19
ENDBRANCH   8  11
ENDBRANCH   1   7
BRANCH   3  24
HETATM   24  C   UNL     1      -7.085  -0.353 -33.609  1.00  0.00     0.087 C 
BRANCH  24  25
HETATM   25  C   UNL     1      -6.482  -0.940 -34.886  1.00  0.00     0.048 C 
BRANCH  25  26
HETATM   26  C   UNL     1      -5.760  -2.227 -34.642  1.00  0.00    -0.030 A 
HETATM   27  C   UNL     1      -4.749  -2.454 -33.652  1.00  0.00    -0.002 A 
HETATM   28  C   UNL     1      -4.352  -3.786 -33.755  1.00  0.00     0.042 A 
HETATM   29  C   UNL     1      -4.138  -1.641 -32.673  1.00  0.00     0.014 A 
HETATM   30  C   UNL     1      -3.373  -4.351 -32.928  1.00  0.00     0.030 A 
HETATM   31  N   UNL     1      -5.093  -4.349 -34.767  1.00  0.00    -0.365 N 
HETATM   32  C   UNL     1      -2.781  -3.524 -31.967  1.00  0.00     0.002 A 
HETATM   33  C   UNL     1      -3.156  -2.189 -31.839  1.00  0.00     0.001 A 
HETATM   34  H   UNL     1      -5.019  -5.313 -35.061  1.00  0.00     0.165 HD
HETATM   35  C   UNL     1      -5.941  -3.421 -35.311  1.00  0.00     0.096 A 
ENDBRANCH  25  26
ENDBRANCH  24  25
ENDBRANCH   3  24
TORSDOF 8
ENDMDL
MODEL 4
REMARK VINA RESULT:      -8.3      5.795      9.254
REMARK  8 active torsions:
REMARK  status: ('A' for Active; 'I' for Inactive)
REMARK    1  A    between atoms: C_2  and  O_3 
REMARK    2  A    between atoms: O_3  and  C_4 
REMARK    3  A    between atoms: C_4  and  C_5 
REMARK    4  A    between atoms: C_10  and  C_11 
REMARK       I    between atoms: C_11  and  N_12 
REMARK    5  A    between atoms: N_12  and  C_13 
REMARK    6  A    between atoms: C_15  and  C_16 
REMARK    7  A    between atoms: C_16  and  C_17 
REMARK    8  A    between atoms: C_17  and  C_18 
ROOT
HETATM    1  C   UNL     1      -9.434   2.300 -32.420  1.00  0.00     0.725 A 
HETATM    2  N   UNL     1      -8.560   1.962 -31.506  1.00  0.00    -0.046 NA
HETATM    3  C   UNL     1      -7.359   2.362 -32.021  1.00  0.00     0.166 A 
HETATM    4  N   UNL     1      -7.439   2.961 -33.216  1.00  0.00    -0.144 NA
HETATM    5  N   UNL     1      -8.764   2.916 -33.442  1.00  0.00    -0.106 N 
HETATM    6  H   UNL     1      -9.131   3.311 -34.298  1.00  0.00     0.208 HD
ENDROOT
BRANCH   1   7
HETATM    7  N   UNL     1     -10.794   2.116 -32.422  1.00  0.00    -0.152 N 
HETATM    8  C   UNL     1     -11.651   3.127 -32.811  1.00  0.00     0.272 C 
HETATM    9  O   UNL     1     -11.333   4.275 -33.095  1.00  0.00    -0.267 OA
HETATM   10  H   UNL     1     -11.189   1.252 -32.090  1.00  0.00     0.187 HD
BRANCH   8  11
HETATM   11  C   UNL     1     -13.072   2.729 -32.822  1.00  0.00     0.063 A 
HETATM   12  C   UNL     1     -13.708   1.860 -33.705  1.00  0.00     0.022 A 
HETATM   13  N   UNL     1     -15.042   1.851 -33.383  1.00  0.00    -0.354 N 
HETATM   14  C   UNL     1     -13.223   1.079 -34.875  1.00  0.00     0.069 C 
HETATM   15  C   UNL     1     -15.319   2.755 -32.383  1.00  0.00     0.115 A 
HETATM   16  H   UNL     1     -15.765   1.335 -33.872  1.00  0.00     0.166 HD
HETATM   17  C   UNL     1     -14.097   3.258 -31.950  1.00  0.00    -0.011 A 
HETATM   18  C   UNL     1     -13.863   4.217 -30.827  1.00  0.00     0.052 C 
BRANCH  15  19
HETATM   19  C   UNL     1     -16.689   3.031 -32.005  1.00  0.00     0.310 C 
HETATM   20  O   UNL     1     -17.470   2.178 -31.603  1.00  0.00    -0.258 OA
BRANCH  19  21
HETATM   21  O   UNL     1     -16.999   4.334 -32.232  1.00  0.00    -0.317 OA
BRANCH  21  22
HETATM   22  C   UNL     1     -17.754   4.993 -31.207  1.00  0.00     0.175 C 
HETATM   23  C   UNL     1     -17.017   6.239 -30.749  1.00  0.00     0.034 C 
ENDBRANCH  21  22
ENDBRANCH  19  21
ENDBRANCH  15  19
ENDBRANCH   8  11
ENDBRANCH   1   7
BRANCH   3  24
HETATM   24  C   UNL     1      -6.091   2.132 -31.286  1.00  0.00     0.087 C 
BRANCH  24  25
HETATM   25  C   UNL     1      -6.034   0.719 -30.703  1.00  0.00     0.048 C 
BRANCH  25  26
HETATM   26  C   UNL     1      -5.161  -0.197 -31.501  1.00  0.00    -0.030 A 
HETATM   27  C   UNL     1      -5.558  -0.948 -32.655  1.00  0.00    -0.002 A 
HETATM   28  C   UNL     1      -4.442  -1.658 -33.098  1.00  0.00     0.042 A 
HETATM   29  C   UNL     1      -6.770  -1.084 -33.365  1.00  0.00     0.014 A 
HETATM   30  C   UNL     1      -4.475  -2.500 -34.216  1.00  0.00     0.030 A 
HETATM   31  N   UNL     1      -3.407  -1.350 -32.247  1.00  0.00    -0.365 N 
HETATM   32  C   UNL     1      -5.689  -2.620 -34.901  1.00  0.00     0.002 A 
HETATM   33  C   UNL     1      -6.821  -1.924 -34.484  1.00  0.00     0.001 A 
HETATM   34  H   UNL     1      -2.470  -1.719 -32.331  1.00  0.00     0.165 HD
HETATM   35  C   UNL     1      -3.827  -0.474 -31.281  1.00  0.00     0.096 A 
ENDBRANCH  25  26
ENDBRANCH  24  25
ENDBRANCH   3  24
TORSDOF 8
ENDMDL
MODEL 5
REMARK VINA RESULT:      -8.2      2.748      3.904
REMARK  8 active torsions:
REMARK  status: ('A' for Active; 'I' for Inactive)
REMARK    1  A    between atoms: C_2  and  O_3 
REMARK    2  A    between atoms: O_3  and  C_4 
REMARK    3  A    between atoms: C_4  and  C_5 
REMARK    4  A    between atoms: C_10  and  C_11 
REMARK       I    between atoms: C_11  and  N_12 
REMARK    5  A    between atoms: N_12  and  C_13 
REMARK    6  A    between atoms: C_15  and  C_16 
REMARK    7  A    between atoms: C_16  and  C_17 
REMARK    8  A    between atoms: C_17  and  C_18 
ROOT
HETATM    1  C   UNL     1      -3.897   3.910 -31.433  1.00  0.00     0.725 A 
HETATM    2  N   UNL     1      -4.819   3.167 -30.874  1.00  0.00    -0.046 NA
HETATM    3  C   UNL     1      -5.549   2.688 -31.925  1.00  0.00     0.166 A 
HETATM    4  N   UNL     1      -5.113   3.078 -33.130  1.00  0.00    -0.144 NA
HETATM    5  N   UNL     1      -4.062   3.844 -32.790  1.00  0.00    -0.106 N 
HETATM    6  H   UNL     1      -3.518   4.285 -33.520  1.00  0.00     0.208 HD
ENDROOT
BRANCH   1   7
HETATM    7  N   UNL     1      -2.901   4.642 -30.835  1.00  0.00    -0.152 N 
HETATM    8  C   UNL     1      -2.537   5.882 -31.321  1.00  0.00     0.272 C 
HETATM    9  O   UNL     1      -2.962   6.414 -32.339  1.00  0.00    -0.267 OA
HETATM   10  H   UNL     1      -2.387   4.259 -30.060  1.00  0.00     0.187 HD
BRANCH   8  11
HETATM   11  C   UNL     1      -1.505   6.557 -30.511  1.00  0.00     0.063 A 
HETATM   12  C   UNL     1      -0.144   6.268 -30.450  1.00  0.00     0.022 A 
HETATM   13  N   UNL     1       0.411   7.100 -29.510  1.00  0.00    -0.354 N 
HETATM   14  C   UNL     1       0.700   5.244 -31.124  1.00  0.00     0.069 C 
HETATM   15  C   UNL     1      -0.552   7.856 -28.884  1.00  0.00     0.115 A 
HETATM   16  H   UNL     1       1.383   7.100 -29.221  1.00  0.00     0.166 HD
HETATM   17  C   UNL     1      -1.749   7.605 -29.547  1.00  0.00    -0.011 A 
HETATM   18  C   UNL     1      -3.075   8.247 -29.287  1.00  0.00     0.052 C 
BRANCH  15  19
HETATM   19  C   UNL     1      -0.210   8.680 -27.744  1.00  0.00     0.310 C 
HETATM   20  O   UNL     1      -0.549   9.849 -27.621  1.00  0.00    -0.258 OA
BRANCH  19  21
HETATM   21  O   UNL     1       0.596   8.002 -26.885  1.00  0.00    -0.317 OA
BRANCH  21  22
HETATM   22  C   UNL     1       1.894   8.566 -26.656  1.00  0.00     0.175 C 
HETATM   23  C   UNL     1       2.166   8.637 -25.164  1.00  0.00     0.034 C 
ENDBRANCH  21  22
ENDBRANCH  19  21
ENDBRANCH  15  19
ENDBRANCH   8  11
ENDBRANCH   1   7
BRANCH   3  24
HETATM   24  C   UNL     1      -6.725   1.809 -31.708  1.00  0.00     0.087 C 
BRANCH  24  25
HETATM   25  C   UNL     1      -6.344   0.551 -30.925  1.00  0.00     0.048 C 
BRANCH  25  26
HETATM   26  C   UNL     1      -5.373  -0.314 -31.664  1.00  0.00    -0.030 A 
HETATM   27  C   UNL     1      -5.662  -1.113 -32.817  1.00  0.00    -0.002 A 
HETATM   28  C   UNL     1      -4.479  -1.748 -33.195  1.00  0.00     0.042 A 
HETATM   29  C   UNL     1      -6.827  -1.351 -33.576  1.00  0.00     0.014 A 
HETATM   30  C   UNL     1      -4.401  -2.611 -34.294  1.00  0.00     0.030 A 
HETATM   31  N   UNL     1      -3.508  -1.349 -32.307  1.00  0.00    -0.365 N 
HETATM   32  C   UNL     1      -5.570  -2.832 -35.029  1.00  0.00     0.002 A 
HETATM   33  C   UNL     1      -6.767  -2.213 -34.677  1.00  0.00     0.001 A 
HETATM   34  H   UNL     1      -2.544  -1.650 -32.342  1.00  0.00     0.165 HD
HETATM   35  C   UNL     1      -4.033  -0.489 -31.380  1.00  0.00     0.096 A 
ENDBRANCH  25  26
ENDBRANCH  24  25
ENDBRANCH   3  24
TORSDOF 8
ENDMDL
MODEL 6
REMARK VINA RESULT:      -8.2      1.720      2.295
REMARK  8 active torsions:
REMARK  status: ('A' for Active; 'I' for Inactive)
REMARK    1  A    between atoms: C_2  and  O_3 
REMARK    2  A    between atoms: O_3  and  C_4 
REMARK    3  A    between atoms: C_4  and  C_5 
REMARK    4  A    between atoms: C_10  and  C_11 
REMARK       I    between atoms: C_11  and  N_12 
REMARK    5  A    between atoms: N_12  and  C_13 
REMARK    6  A    between atoms: C_15  and  C_16 
REMARK    7  A    between atoms: C_16  and  C_17 
REMARK    8  A    between atoms: C_17  and  C_18 
ROOT
HETATM    1  C   UNL     1      -6.127   3.578 -32.903  1.00  0.00     0.725 A 
HETATM    2  N   UNL     1      -6.014   2.886 -34.009  1.00  0.00    -0.046 NA
HETATM    3  C   UNL     1      -7.079   2.031 -33.984  1.00  0.00     0.166 A 
HETATM    4  N   UNL     1      -7.877   2.168 -32.917  1.00  0.00    -0.144 NA
HETATM    5  N   UNL     1      -7.256   3.159 -32.253  1.00  0.00    -0.106 N 
HETATM    6  H   UNL     1      -7.648   3.487 -31.380  1.00  0.00     0.208 HD
ENDROOT
BRANCH   1   7
HETATM    7  N   UNL     1      -5.310   4.569 -32.420  1.00  0.00    -0.152 N 
HETATM    8  C   UNL     1      -4.417   4.323 -31.396  1.00  0.00     0.272 C 
HETATM    9  O   UNL     1      -4.312   3.280 -30.763  1.00  0.00    -0.267 OA
HETATM   10  H   UNL     1      -5.388   5.507 -32.775  1.00  0.00     0.187 HD
BRANCH   8  11
HETATM   11  C   UNL     1      -3.569   5.482 -31.056  1.00  0.00     0.063 A 
HETATM   12  C   UNL     1      -2.302   5.786 -31.546  1.00  0.00     0.022 A 
HETATM   13  N   UNL     1      -1.868   6.913 -30.894  1.00  0.00    -0.354 N 
HETATM   14  C   UNL     1      -1.405   5.098 -32.514  1.00  0.00     0.069 C 
HETATM   15  C   UNL     1      -2.765   7.303 -29.926  1.00  0.00     0.115 A 
HETATM   16  H   UNL     1      -0.965   7.355 -31.016  1.00  0.00     0.166 HD
HETATM   17  C   UNL     1      -3.879   6.483 -30.060  1.00  0.00    -0.011 A 
HETATM   18  C   UNL     1      -5.156   6.563 -29.286  1.00  0.00     0.052 C 
BRANCH  15  19
HETATM   19  C   UNL     1      -2.429   8.369 -29.006  1.00  0.00     0.310 C 
HETATM   20  O   UNL     1      -2.889   9.502 -29.077  1.00  0.00    -0.258 OA
BRANCH  19  21
HETATM   21  O   UNL     1      -1.487   7.960 -28.117  1.00  0.00    -0.317 OA
BRANCH  21  22
HETATM   22  C   UNL     1      -0.288   8.744 -28.059  1.00  0.00     0.175 C 
HETATM   23  C   UNL     1       0.912   7.870 -28.374  1.00  0.00     0.034 C 
ENDBRANCH  21  22
ENDBRANCH  19  21
ENDBRANCH  15  19
ENDBRANCH   8  11
ENDBRANCH   1   7
BRANCH   3  24
HETATM   24  C   UNL     1      -7.299   1.043 -35.069  1.00  0.00     0.087 C 
BRANCH  24  25
HETATM   25  C   UNL     1      -7.512  -0.364 -34.507  1.00  0.00     0.048 C 
BRANCH  25  26
HETATM   26  C   UNL     1      -6.224  -1.055 -34.188  1.00  0.00    -0.030 A 
HETATM   27  C   UNL     1      -5.948  -2.450 -34.364  1.00  0.00    -0.002 A 
HETATM   28  C   UNL     1      -4.633  -2.672 -33.957  1.00  0.00     0.042 A 
HETATM   29  C   UNL     1      -6.701  -3.544 -34.839  1.00  0.00     0.014 A 
HETATM   30  C   UNL     1      -4.031  -3.935 -33.999  1.00  0.00     0.030 A 
HETATM   31  N   UNL     1      -4.128  -1.460 -33.549  1.00  0.00    -0.365 N 
HETATM   32  C   UNL     1      -4.799  -5.004 -34.471  1.00  0.00     0.002 A 
HETATM   33  C   UNL     1      -6.115  -4.815 -34.886  1.00  0.00     0.001 A 
HETATM   34  H   UNL     1      -3.188  -1.319 -33.206  1.00  0.00     0.165 HD
HETATM   35  C   UNL     1      -5.076  -0.480 -33.680  1.00  0.00     0.096 A 
ENDBRANCH  25  26
ENDBRANCH  24  25
ENDBRANCH   3  24
TORSDOF 8
ENDMDL
MODEL 7
REMARK VINA RESULT:      -8.1      3.260     10.125
REMARK  8 active torsions:
REMARK  status: ('A' for Active; 'I' for Inactive)
REMARK    1  A    between atoms: C_2  and  O_3 
REMARK    2  A    between atoms: O_3  and  C_4 
REMARK    3  A    between atoms: C_4  and  C_5 
REMARK    4  A    between atoms: C_10  and  C_11 
REMARK       I    between atoms: C_11  and  N_12 
REMARK    5  A    between atoms: N_12  and  C_13 
REMARK    6  A    between atoms: C_15  and  C_16 
REMARK    7  A    between atoms: C_16  and  C_17 
REMARK    8  A    between atoms: C_17  and  C_18 
ROOT
HETATM    1  C   UNL     1      -2.554   3.882 -32.381  1.00  0.00     0.725 A 
HETATM    2  N   UNL     1      -1.722   4.157 -31.409  1.00  0.00    -0.046 NA
HETATM    3  C   UNL     1      -0.872   5.084 -31.943  1.00  0.00     0.166 A 
HETATM    4  N   UNL     1      -1.145   5.426 -33.209  1.00  0.00    -0.144 NA
HETATM    5  N   UNL     1      -2.219   4.656 -33.459  1.00  0.00    -0.106 N 
HETATM    6  H   UNL     1      -2.659   4.706 -34.369  1.00  0.00     0.208 HD
ENDROOT
BRANCH   1   7
HETATM    7  N   UNL     1      -3.606   3.000 -32.392  1.00  0.00    -0.152 N 
HETATM    8  C   UNL     1      -4.766   3.263 -31.691  1.00  0.00     0.272 C 
HETATM    9  O   UNL     1      -4.958   4.212 -30.940  1.00  0.00    -0.267 OA
HETATM   10  H   UNL     1      -3.524   2.121 -32.875  1.00  0.00     0.187 HD
BRANCH   8  11
HETATM   11  C   UNL     1      -5.816   2.244 -31.877  1.00  0.00     0.063 A 
HETATM   12  C   UNL     1      -6.150   1.195 -31.024  1.00  0.00     0.022 A 
HETATM   13  N   UNL     1      -7.132   0.460 -31.640  1.00  0.00    -0.354 N 
HETATM   14  C   UNL     1      -5.603   0.751 -29.713  1.00  0.00     0.069 C 
HETATM   15  C   UNL     1      -7.386   0.933 -32.906  1.00  0.00     0.115 A 
HETATM   16  H   UNL     1      -7.553  -0.386 -31.274  1.00  0.00     0.166 HD
HETATM   17  C   UNL     1      -6.644   2.099 -33.054  1.00  0.00    -0.011 A 
HETATM   18  C   UNL     1      -6.640   3.023 -34.230  1.00  0.00     0.052 C 
BRANCH  15  19
HETATM   19  C   UNL     1      -8.266   0.204 -33.796  1.00  0.00     0.310 C 
HETATM   20  O   UNL     1      -7.922  -0.236 -34.885  1.00  0.00    -0.258 OA
BRANCH  19  21
HETATM   21  O   UNL     1      -9.526   0.151 -33.291  1.00  0.00    -0.317 OA
BRANCH  21  22
HETATM   22  C   UNL     1     -10.227   1.399 -33.205  1.00  0.00     0.175 C 
HETATM   23  C   UNL     1     -11.258   1.485 -34.315  1.00  0.00     0.034 C 
ENDBRANCH  21  22
ENDBRANCH  19  21
ENDBRANCH  15  19
ENDBRANCH   8  11
ENDBRANCH   1   7
BRANCH   3  24
HETATM   24  C   UNL     1       0.253   5.642 -31.153  1.00  0.00     0.087 C 
BRANCH  24  25
HETATM   25  C   UNL     1       0.042   7.128 -30.856  1.00  0.00     0.048 C 
BRANCH  25  26
HETATM   26  C   UNL     1      -0.565   7.365 -29.509  1.00  0.00    -0.030 A 
HETATM   27  C   UNL     1       0.113   7.876 -28.356  1.00  0.00    -0.002 A 
HETATM   28  C   UNL     1      -0.818   7.951 -27.320  1.00  0.00     0.042 A 
HETATM   29  C   UNL     1       1.439   8.286 -28.101  1.00  0.00     0.014 A 
HETATM   30  C   UNL     1      -0.492   8.416 -26.041  1.00  0.00     0.030 A 
HETATM   31  N   UNL     1      -2.016   7.504 -27.825  1.00  0.00    -0.365 N 
HETATM   32  C   UNL     1       0.829   8.814 -25.813  1.00  0.00     0.002 A 
HETATM   33  C   UNL     1       1.783   8.751 -26.826  1.00  0.00     0.001 A 
HETATM   34  H   UNL     1      -2.876   7.453 -27.296  1.00  0.00     0.165 HD
HETATM   35  C   UNL     1      -1.877   7.145 -29.140  1.00  0.00     0.096 A 
ENDBRANCH  25  26
ENDBRANCH  24  25
ENDBRANCH   3  24
TORSDOF 8
ENDMDL
MODEL 8
REMARK VINA RESULT:      -7.9      3.478      9.962
REMARK  8 active torsions:
REMARK  status: ('A' for Active; 'I' for Inactive)
REMARK    1  A    between atoms: C_2  and  O_3 
REMARK    2  A    between atoms: O_3  and  C_4 
REMARK    3  A    between atoms: C_4  and  C_5 
REMARK    4  A    between atoms: C_10  and  C_11 
REMARK       I    between atoms: C_11  and  N_12 
REMARK    5  A    between atoms: N_12  and  C_13 
REMARK    6  A    between atoms: C_15  and  C_16 
REMARK    7  A    between atoms: C_16  and  C_17 
REMARK    8  A    between atoms: C_17  and  C_18 
ROOT
HETATM    1  C   UNL     1      -4.647   3.557 -32.834  1.00  0.00     0.725 A 
HETATM    2  N   UNL     1      -4.222   4.791 -32.734  1.00  0.00    -0.046 NA
HETATM    3  C   UNL     1      -3.003   4.680 -32.126  1.00  0.00     0.166 A 
HETATM    4  N   UNL     1      -2.628   3.424 -31.856  1.00  0.00    -0.144 NA
HETATM    5  N   UNL     1      -3.683   2.732 -32.321  1.00  0.00    -0.106 N 
HETATM    6  H   UNL     1      -3.679   1.722 -32.253  1.00  0.00     0.208 HD
ENDROOT
BRANCH   1   7
HETATM    7  N   UNL     1      -5.828   3.092 -33.357  1.00  0.00    -0.152 N 
HETATM    8  C   UNL     1      -6.552   2.105 -32.720  1.00  0.00     0.272 C 
HETATM    9  O   UNL     1      -6.209   1.488 -31.718  1.00  0.00    -0.267 OA
HETATM   10  H   UNL     1      -6.157   3.433 -34.245  1.00  0.00     0.187 HD
BRANCH   8  11
HETATM   11  C   UNL     1      -7.830   1.783 -33.384  1.00  0.00     0.063 A 
HETATM   12  C   UNL     1      -8.036   0.957 -34.486  1.00  0.00     0.022 A 
HETATM   13  N   UNL     1      -9.370   1.016 -34.801  1.00  0.00    -0.354 N 
HETATM   14  C   UNL     1      -7.108   0.162 -35.335  1.00  0.00     0.069 C 
HETATM   15  C   UNL     1     -10.029   1.924 -34.005  1.00  0.00     0.115 A 
HETATM   16  H   UNL     1      -9.814   0.544 -35.579  1.00  0.00     0.166 HD
HETATM   17  C   UNL     1      -9.114   2.358 -33.052  1.00  0.00    -0.011 A 
HETATM   18  C   UNL     1      -9.373   3.293 -31.914  1.00  0.00     0.052 C 
BRANCH  15  19
HETATM   19  C   UNL     1     -11.409   2.269 -34.277  1.00  0.00     0.310 C 
HETATM   20  O   UNL     1     -11.782   2.839 -35.294  1.00  0.00    -0.258 OA
BRANCH  19  21
HETATM   21  O   UNL     1     -12.203   1.945 -33.223  1.00  0.00    -0.317 OA
BRANCH  21  22
HETATM   22  C   UNL     1     -13.499   1.424 -33.543  1.00  0.00     0.175 C 
HETATM   23  C   UNL     1     -13.404  -0.070 -33.794  1.00  0.00     0.034 C 
ENDBRANCH  21  22
ENDBRANCH  19  21
ENDBRANCH  15  19
ENDBRANCH   8  11
ENDBRANCH   1   7
BRANCH   3  24
HETATM   24  C   UNL     1      -2.192   5.880 -31.804  1.00  0.00     0.087 C 
BRANCH  24  25
HETATM   25  C   UNL     1      -0.694   5.578 -31.886  1.00  0.00     0.048 C 
BRANCH  25  26
HETATM   26  C   UNL     1      -0.038   5.555 -30.542  1.00  0.00    -0.030 A 
HETATM   27  C   UNL     1      -0.073   6.605 -29.567  1.00  0.00    -0.002 A 
HETATM   28  C   UNL     1       0.651   6.172 -28.457  1.00  0.00     0.042 A 
HETATM   29  C   UNL     1      -0.661   7.887 -29.530  1.00  0.00     0.014 A 
HETATM   30  C   UNL     1       0.819   6.955 -27.310  1.00  0.00     0.030 A 
HETATM   31  N   UNL     1       1.108   4.907 -28.744  1.00  0.00    -0.365 N 
HETATM   32  C   UNL     1       0.229   8.223 -27.299  1.00  0.00     0.002 A 
HETATM   33  C   UNL     1      -0.500   8.685 -28.391  1.00  0.00     0.001 A 
HETATM   34  H   UNL     1       1.661   4.343 -28.115  1.00  0.00     0.165 HD
HETATM   35  C   UNL     1       0.702   4.525 -29.996  1.00  0.00     0.096 A 
ENDBRANCH  25  26
ENDBRANCH  24  25
ENDBRANCH   3  24
TORSDOF 8
ENDMDL
MODEL 9
REMARK VINA RESULT:      -7.9      3.155      4.710
REMARK  8 active torsions:
REMARK  status: ('A' for Active; 'I' for Inactive)
REMARK    1  A    between atoms: C_2  and  O_3 
REMARK    2  A    between atoms: O_3  and  C_4 
REMARK    3  A    between atoms: C_4  and  C_5 
REMARK    4  A    between atoms: C_10  and  C_11 
REMARK       I    between atoms: C_11  and  N_12 
REMARK    5  A    between atoms: N_12  and  C_13 
REMARK    6  A    between atoms: C_15  and  C_16 
REMARK    7  A    between atoms: C_16  and  C_17 
REMARK    8  A    between atoms: C_17  and  C_18 
ROOT
HETATM    1  C   UNL     1      -3.694   5.446 -31.758  1.00  0.00     0.725 A 
HETATM    2  N   UNL     1      -4.145   4.273 -32.126  1.00  0.00    -0.046 NA
HETATM    3  C   UNL     1      -5.025   4.551 -33.134  1.00  0.00     0.166 A 
HETATM    4  N   UNL     1      -5.134   5.851 -33.436  1.00  0.00    -0.144 NA
HETATM    5  N   UNL     1      -4.275   6.395 -32.555  1.00  0.00    -0.106 N 
HETATM    6  H   UNL     1      -4.143   7.398 -32.552  1.00  0.00     0.208 HD
ENDROOT
BRANCH   1   7
HETATM    7  N   UNL     1      -2.791   5.751 -30.770  1.00  0.00    -0.152 N 
HETATM    8  C   UNL     1      -1.682   6.530 -31.031  1.00  0.00     0.272 C 
HETATM    9  O   UNL     1      -1.331   6.945 -32.130  1.00  0.00    -0.267 OA
HETATM   10  H   UNL     1      -2.902   5.366 -29.847  1.00  0.00     0.187 HD
BRANCH   8  11
HETATM   11  C   UNL     1      -0.864   6.818 -29.838  1.00  0.00     0.063 A 
HETATM   12  C   UNL     1       0.176   6.057 -29.311  1.00  0.00     0.022 A 
HETATM   13  N   UNL     1       0.592   6.670 -28.156  1.00  0.00    -0.354 N 
HETATM   14  C   UNL     1       0.790   4.767 -29.727  1.00  0.00     0.069 C 
HETATM   15  C   UNL     1      -0.202   7.753 -27.856  1.00  0.00     0.115 A 
HETATM   16  H   UNL     1       1.315   6.330 -27.533  1.00  0.00     0.166 HD
HETATM   17  C   UNL     1      -1.066   7.926 -28.931  1.00  0.00    -0.011 A 
HETATM   18  C   UNL     1      -2.072   9.017 -29.114  1.00  0.00     0.052 C 
BRANCH  15  19
HETATM   19  C   UNL     1      -0.047   8.446 -26.594  1.00  0.00     0.310 C 
HETATM   20  O   UNL     1      -0.839   8.356 -25.665  1.00  0.00    -0.258 OA
BRANCH  19  21
HETATM   21  O   UNL     1       1.043   9.257 -26.619  1.00  0.00    -0.317 OA
BRANCH  21  22
HETATM   22  C   UNL     1       1.535   9.697 -25.347  1.00  0.00     0.175 C 
HETATM   23  C   UNL     1       2.793   8.928 -24.989  1.00  0.00     0.034 C 
ENDBRANCH  21  22
ENDBRANCH  19  21
ENDBRANCH  15  19
ENDBRANCH   8  11
ENDBRANCH   1   7
BRANCH   3  24
HETATM   24  C   UNL     1      -5.782   3.470 -33.814  1.00  0.00     0.087 C 
BRANCH  24  25
HETATM   25  C   UNL     1      -5.606   2.130 -33.097  1.00  0.00     0.048 C 
BRANCH  25  26
HETATM   26  C   UNL     1      -6.174   0.985 -33.873  1.00  0.00    -0.030 A 
HETATM   27  C   UNL     1      -5.646  -0.346 -33.923  1.00  0.00    -0.002 A 
HETATM   28  C   UNL     1      -6.482  -1.099 -34.748  1.00  0.00     0.042 A 
HETATM   29  C   UNL     1      -4.530  -0.979 -33.336  1.00  0.00     0.014 A 
HETATM   30  C   UNL     1      -6.259  -2.454 -35.017  1.00  0.00     0.030 A 
HETATM   31  N   UNL     1      -7.480  -0.259 -35.182  1.00  0.00    -0.365 N 
HETATM   32  C   UNL     1      -5.145  -3.058 -34.424  1.00  0.00     0.002 A 
HETATM   33  C   UNL     1      -4.291  -2.333 -33.596  1.00  0.00     0.001 A 
HETATM   34  H   UNL     1      -8.235  -0.537 -35.792  1.00  0.00     0.165 HD
HETATM   35  C   UNL     1      -7.306   0.998 -34.665  1.00  0.00     0.096 A 
ENDBRANCH  25  26
ENDBRANCH  24  25
ENDBRANCH   3  24
TORSDOF 8
ENDMDL
MODEL 10
REMARK VINA RESULT:      -7.8      1.816      2.928
REMARK  8 active torsions:
REMARK  status: ('A' for Active; 'I' for Inactive)
REMARK    1  A    between atoms: C_2  and  O_3 
REMARK    2  A    between atoms: O_3  and  C_4 
REMARK    3  A    between atoms: C_4  and  C_5 
REMARK    4  A    between atoms: C_10  and  C_11 
REMARK       I    between atoms: C_11  and  N_12 
REMARK    5  A    between atoms: N_12  and  C_13 
REMARK    6  A    between atoms: C_15  and  C_16 
REMARK    7  A    between atoms: C_16  and  C_17 
REMARK    8  A    between atoms: C_17  and  C_18 
ROOT
HETATM    1  C   UNL     1      -6.602   2.505 -32.571  1.00  0.00     0.725 A 
HETATM    2  N   UNL     1      -6.395   1.441 -33.304  1.00  0.00    -0.046 NA
HETATM    3  C   UNL     1      -7.547   0.716 -33.181  1.00  0.00     0.166 A 
HETATM    4  N   UNL     1      -8.486   1.290 -32.418  1.00  0.00    -0.144 NA
HETATM    5  N   UNL     1      -7.865   2.424 -32.050  1.00  0.00    -0.106 N 
HETATM    6  H   UNL     1      -8.351   3.080 -31.452  1.00  0.00     0.208 HD
ENDROOT
BRANCH   1   7
HETATM    7  N   UNL     1      -5.760   3.562 -32.328  1.00  0.00    -0.152 N 
HETATM    8  C   UNL     1      -5.035   3.644 -31.156  1.00  0.00     0.272 C 
HETATM    9  O   UNL     1      -5.117   2.882 -30.200  1.00  0.00    -0.267 OA
HETATM   10  H   UNL     1      -5.697   4.320 -32.987  1.00  0.00     0.187 HD
BRANCH   8  11
HETATM   11  C   UNL     1      -4.127   4.805 -31.099  1.00  0.00     0.063 A 
HETATM   12  C   UNL     1      -2.958   5.012 -31.827  1.00  0.00     0.022 A 
HETATM   13  N   UNL     1      -2.405   6.190 -31.391  1.00  0.00    -0.354 N 
HETATM   14  C   UNL     1      -2.248   4.193 -32.846  1.00  0.00     0.069 C 
HETATM   15  C   UNL     1      -3.118   6.714 -30.338  1.00  0.00     0.115 A 
HETATM   16  H   UNL     1      -1.530   6.587 -31.713  1.00  0.00     0.166 HD
HETATM   17  C   UNL     1      -4.250   5.920 -30.187  1.00  0.00    -0.011 A 
HETATM   18  C   UNL     1      -5.375   6.127 -29.223  1.00  0.00     0.052 C 
BRANCH  15  19
HETATM   19  C   UNL     1      -2.617   7.865 -29.615  1.00  0.00     0.310 C 
HETATM   20  O   UNL     1      -1.722   7.810 -28.782  1.00  0.00    -0.258 OA
BRANCH  19  21
HETATM   21  O   UNL     1      -3.326   8.979 -29.932  1.00  0.00    -0.317 OA
BRANCH  21  22
HETATM   22  C   UNL     1      -2.599  10.030 -30.583  1.00  0.00     0.175 C 
HETATM   23  C   UNL     1      -2.346  11.161 -29.603  1.00  0.00     0.034 C 
ENDBRANCH  21  22
ENDBRANCH  19  21
ENDBRANCH  15  19
ENDBRANCH   8  11
ENDBRANCH   1   7
BRANCH   3  24
HETATM   24  C   UNL     1      -7.707  -0.596 -33.854  1.00  0.00     0.087 C 
BRANCH  24  25
HETATM   25  C   UNL     1      -6.595  -0.837 -34.877  1.00  0.00     0.048 C 
BRANCH  25  26
HETATM   26  C   UNL     1      -5.846  -2.107 -34.624  1.00  0.00    -0.030 A 
HETATM   27  C   UNL     1      -4.830  -2.305 -33.634  1.00  0.00    -0.002 A 
HETATM   28  C   UNL     1      -4.405  -3.630 -33.727  1.00  0.00     0.042 A 
HETATM   29  C   UNL     1      -4.234  -1.472 -32.662  1.00  0.00     0.014 A 
HETATM   30  C   UNL     1      -3.413  -4.167 -32.898  1.00  0.00     0.030 A 
HETATM   31  N   UNL     1      -5.135  -4.216 -34.734  1.00  0.00    -0.365 N 
HETATM   32  C   UNL     1      -2.837  -3.321 -31.944  1.00  0.00     0.002 A 
HETATM   33  C   UNL     1      -3.240  -1.993 -31.826  1.00  0.00     0.001 A 
HETATM   34  H   UNL     1      -5.042  -5.180 -35.020  1.00  0.00     0.165 HD
HETATM   35  C   UNL     1      -6.004  -3.310 -35.283  1.00  0.00     0.096 A 
ENDBRANCH  25  26
ENDBRANCH  24  25
ENDBRANCH   3  24
TORSDOF 8
ENDMDL
