MODEL 1
REMARK VINA RESULT:      -9.8      0.000      0.000
REMARK  8 active torsions:
REMARK  status: ('A' for Active; 'I' for Inactive)
REMARK    1  A    between atoms: C_3  and  S_4 
REMARK    2  A    between atoms: S_4  and  C_5 
REMARK    3  A    between atoms: C_5  and  C_6 
REMARK       I    between atoms: C_6  and  N_7 
REMARK    4  A    between atoms: N_7  and  C_8 
REMARK    5  A    between atoms: C_8  and  C_9 
REMARK    6  A    between atoms: C_18  and  C_19 
REMARK    7  A    between atoms: C_19  and  O_20 
REMARK    8  A    between atoms: O_20  and  C_21 
ROOT
HETATM    1  C   UNL     1      -5.085   4.496 -34.207  1.00  0.00     0.160 C 
HETATM    2  N   UNL     1      -3.934   4.246 -33.379  1.00  0.00    -0.314 N 
HETATM    3  C   UNL     1      -2.813   5.015 -33.247  1.00  0.00     0.191 A 
HETATM    4  N   UNL     1      -1.999   4.467 -32.375  1.00  0.00    -0.123 NA
HETATM    5  N   UNL     1      -2.568   3.297 -31.948  1.00  0.00    -0.132 NA
HETATM    6  C   UNL     1      -3.734   3.162 -32.553  1.00  0.00     0.154 A 
ENDROOT
BRANCH   3   7
HETATM    7  S   UNL     1      -2.508   6.460 -34.142  1.00  0.00    -0.081 SA
BRANCH   7   8
HETATM    8  C   UNL     1      -1.084   7.138 -33.244  1.00  0.00     0.185 C 
BRANCH   8   9
HETATM    9  C   UNL     1      -1.497   7.954 -32.029  1.00  0.00     0.227 C 
HETATM   10  N   UNL     1      -1.351   7.322 -30.818  1.00  0.00    -0.356 N 
HETATM   11  H   UNL     1      -1.009   6.362 -30.814  1.00  0.00     0.162 HD
HETATM   12  O   UNL     1      -1.987   9.077 -32.144  1.00  0.00    -0.273 OA
BRANCH  10  13
HETATM   13  C   UNL     1      -1.861   7.869 -29.584  1.00  0.00     0.161 C 
BRANCH  13  14
HETATM   14  C   UNL     1      -0.769   8.438 -28.714  1.00  0.00    -0.041 A 
HETATM   15  C   UNL     1      -1.046   9.510 -27.852  1.00  0.00     0.009 A 
HETATM   16  C   UNL     1      -0.054  10.025 -27.015  1.00  0.00     0.001 A 
HETATM   17  C   UNL     1       1.226   9.476 -27.028  1.00  0.00     0.000 A 
HETATM   18  C   UNL     1       1.514   8.409 -27.877  1.00  0.00     0.001 A 
HETATM   19  C   UNL     1       0.523   7.889 -28.711  1.00  0.00     0.009 A 
ENDBRANCH  13  14
ENDBRANCH  10  13
ENDBRANCH   8   9
ENDBRANCH   7   8
ENDBRANCH   3   7
BRANCH   6  20
HETATM   20  C   UNL     1      -4.678   2.021 -32.396  1.00  0.00     0.256 C 
BRANCH  20  21
HETATM   21  O   UNL     1      -3.897   0.830 -32.497  1.00  0.00    -0.344 OA
BRANCH  21  22
HETATM   22  C   UNL     1      -4.542  -0.242 -33.051  1.00  0.00     0.069 A 
HETATM   23  C   UNL     1      -3.964  -1.494 -33.276  1.00  0.00     0.044 A 
HETATM   24  C   UNL     1      -4.712  -2.530 -33.861  1.00  0.00    -0.049 A 
HETATM   25  C   UNL     1      -6.042  -2.294 -34.253  1.00  0.00    -0.052 A 
HETATM   26  C   UNL     1      -4.042  -3.858 -34.122  1.00  0.00     0.039 C 
HETATM   27  C   UNL     1      -6.896  -3.385 -34.850  1.00  0.00     0.039 C 
HETATM   28  C   UNL     1      -6.608  -1.031 -34.030  1.00  0.00     0.010 A 
HETATM   29  C   UNL     1      -6.080  -4.552 -35.403  1.00  0.00     0.005 C 
HETATM   30  C   UNL     1      -5.028  -4.993 -34.393  1.00  0.00     0.005 C 
HETATM   31  C   UNL     1      -5.857  -0.010 -33.446  1.00  0.00     0.037 A 
ENDBRANCH  21  22
ENDBRANCH  20  21
ENDBRANCH   6  20
TORSDOF 8
ENDMDL
MODEL 2
REMARK VINA RESULT:      -9.5      1.822     10.755
REMARK  8 active torsions:
REMARK  status: ('A' for Active; 'I' for Inactive)
REMARK    1  A    between atoms: C_3  and  S_4 
REMARK    2  A    between atoms: S_4  and  C_5 
REMARK    3  A    between atoms: C_5  and  C_6 
REMARK       I    between atoms: C_6  and  N_7 
REMARK    4  A    between atoms: N_7  and  C_8 
REMARK    5  A    between atoms: C_8  and  C_9 
REMARK    6  A    between atoms: C_18  and  C_19 
REMARK    7  A    between atoms: C_19  and  O_20 
REMARK    8  A    between atoms: O_20  and  C_21 
ROOT
HETATM    1  C   UNL     1      -2.618   4.098 -32.096  1.00  0.00     0.160 C 
HETATM    2  N   UNL     1      -3.281   4.603 -33.270  1.00  0.00    -0.314 N 
HETATM    3  C   UNL     1      -4.608   4.521 -33.583  1.00  0.00     0.191 A 
HETATM    4  N   UNL     1      -4.832   5.126 -34.727  1.00  0.00    -0.123 NA
HETATM    5  N   UNL     1      -3.632   5.585 -35.201  1.00  0.00    -0.132 NA
HETATM    6  C   UNL     1      -2.696   5.269 -34.324  1.00  0.00     0.154 A 
ENDROOT
BRANCH   3   7
HETATM    7  S   UNL     1      -5.789   3.696 -32.631  1.00  0.00    -0.081 SA
BRANCH   7   8
HETATM    8  C   UNL     1      -5.163   1.993 -32.690  1.00  0.00     0.185 C 
BRANCH   8   9
HETATM    9  C   UNL     1      -6.209   1.006 -33.186  1.00  0.00     0.227 C 
HETATM   10  N   UNL     1      -5.714  -0.104 -33.826  1.00  0.00    -0.356 N 
HETATM   11  H   UNL     1      -4.706  -0.180 -33.949  1.00  0.00     0.162 HD
HETATM   12  O   UNL     1      -7.413   1.232 -33.070  1.00  0.00    -0.273 OA
BRANCH  10  13
HETATM   13  C   UNL     1      -6.558  -1.047 -34.519  1.00  0.00     0.161 C 
BRANCH  13  14
HETATM   14  C   UNL     1      -5.972  -2.436 -34.538  1.00  0.00    -0.041 A 
HETATM   15  C   UNL     1      -4.672  -2.656 -34.057  1.00  0.00     0.009 A 
HETATM   16  C   UNL     1      -4.128  -3.942 -34.036  1.00  0.00     0.001 A 
HETATM   17  C   UNL     1      -4.876  -5.024 -34.495  1.00  0.00     0.000 A 
HETATM   18  C   UNL     1      -6.169  -4.821 -34.973  1.00  0.00     0.001 A 
HETATM   19  C   UNL     1      -6.717  -3.537 -34.989  1.00  0.00     0.009 A 
ENDBRANCH  13  14
ENDBRANCH  10  13
ENDBRANCH   8   9
ENDBRANCH   7   8
ENDBRANCH   3   7
BRANCH   6  20
HETATM   20  C   UNL     1      -1.241   5.558 -34.451  1.00  0.00     0.256 C 
BRANCH  20  21
HETATM   21  O   UNL     1      -1.078   6.950 -34.178  1.00  0.00    -0.344 OA
BRANCH  21  22
HETATM   22  C   UNL     1      -1.074   7.287 -32.852  1.00  0.00     0.069 A 
HETATM   23  C   UNL     1      -0.192   6.773 -31.899  1.00  0.00     0.044 A 
HETATM   24  C   UNL     1      -0.277   7.177 -30.556  1.00  0.00    -0.049 A 
HETATM   25  C   UNL     1      -1.280   8.083 -30.164  1.00  0.00    -0.052 A 
HETATM   26  C   UNL     1       0.671   6.572 -29.548  1.00  0.00     0.039 C 
HETATM   27  C   UNL     1      -1.387   8.576 -28.741  1.00  0.00     0.039 C 
HETATM   28  C   UNL     1      -2.165   8.585 -31.127  1.00  0.00     0.010 A 
HETATM   29  C   UNL     1      -0.661   7.681 -27.738  1.00  0.00     0.005 C 
HETATM   30  C   UNL     1       0.740   7.351 -28.236  1.00  0.00     0.005 C 
HETATM   31  C   UNL     1      -2.069   8.178 -32.458  1.00  0.00     0.037 A 
ENDBRANCH  21  22
ENDBRANCH  20  21
ENDBRANCH   6  20
TORSDOF 8
ENDMDL
MODEL 3
REMARK VINA RESULT:      -9.4      1.890      2.809
REMARK  8 active torsions:
REMARK  status: ('A' for Active; 'I' for Inactive)
REMARK    1  A    between atoms: C_3  and  S_4 
REMARK    2  A    between atoms: S_4  and  C_5 
REMARK    3  A    between atoms: C_5  and  C_6 
REMARK       I    between atoms: C_6  and  N_7 
REMARK    4  A    between atoms: N_7  and  C_8 
REMARK    5  A    between atoms: C_8  and  C_9 
REMARK    6  A    between atoms: C_18  and  C_19 
REMARK    7  A    between atoms: C_19  and  O_20 
REMARK    8  A    between atoms: O_20  and  C_21 
ROOT
HETATM    1  C   UNL     1      -5.812   2.226 -32.843  1.00  0.00     0.160 C 
HETATM    2  N   UNL     1      -4.516   2.579 -32.323  1.00  0.00    -0.314 N 
HETATM    3  C   UNL     1      -3.808   3.726 -32.544  1.00  0.00     0.191 A 
HETATM    4  N   UNL     1      -2.681   3.689 -31.872  1.00  0.00    -0.123 NA
HETATM    5  N   UNL     1      -2.620   2.484 -31.222  1.00  0.00    -0.132 NA
HETATM    6  C   UNL     1      -3.725   1.814 -31.494  1.00  0.00     0.154 A 
ENDROOT
BRANCH   3   7
HETATM    7  S   UNL     1      -4.312   4.998 -33.597  1.00  0.00    -0.081 SA
BRANCH   7   8
HETATM    8  C   UNL     1      -2.952   5.022 -34.799  1.00  0.00     0.185 C 
BRANCH   8   9
HETATM    9  C   UNL     1      -1.734   5.773 -34.284  1.00  0.00     0.227 C 
HETATM   10  N   UNL     1      -1.854   6.289 -33.016  1.00  0.00    -0.356 N 
HETATM   11  H   UNL     1      -2.738   6.163 -32.526  1.00  0.00     0.162 HD
HETATM   12  O   UNL     1      -0.742   5.953 -34.989  1.00  0.00    -0.273 OA
BRANCH  10  13
HETATM   13  C   UNL     1      -0.877   7.182 -32.440  1.00  0.00     0.161 C 
BRANCH  13  14
HETATM   14  C   UNL     1      -0.282   6.636 -31.167  1.00  0.00    -0.041 A 
HETATM   15  C   UNL     1      -0.308   7.406 -29.994  1.00  0.00     0.009 A 
HETATM   16  C   UNL     1       0.209   6.901 -28.799  1.00  0.00     0.001 A 
HETATM   17  C   UNL     1       0.759   5.622 -28.761  1.00  0.00     0.000 A 
HETATM   18  C   UNL     1       0.789   4.845 -29.917  1.00  0.00     0.001 A 
HETATM   19  C   UNL     1       0.267   5.346 -31.112  1.00  0.00     0.009 A 
ENDBRANCH  13  14
ENDBRANCH  10  13
ENDBRANCH   8   9
ENDBRANCH   7   8
ENDBRANCH   3   7
BRANCH   6  20
HETATM   20  C   UNL     1      -4.065   0.448 -31.010  1.00  0.00     0.256 C 
BRANCH  20  21
HETATM   21  O   UNL     1      -3.061  -0.428 -31.525  1.00  0.00    -0.344 OA
BRANCH  21  22
HETATM   22  C   UNL     1      -3.531  -1.481 -32.263  1.00  0.00     0.069 A 
HETATM   23  C   UNL     1      -4.542  -1.397 -33.222  1.00  0.00     0.044 A 
HETATM   24  C   UNL     1      -4.959  -2.543 -33.921  1.00  0.00    -0.049 A 
HETATM   25  C   UNL     1      -4.375  -3.788 -33.627  1.00  0.00    -0.052 A 
HETATM   26  C   UNL     1      -6.081  -2.420 -34.924  1.00  0.00     0.039 C 
HETATM   27  C   UNL     1      -4.762  -5.040 -34.377  1.00  0.00     0.039 C 
HETATM   28  C   UNL     1      -3.366  -3.861 -32.656  1.00  0.00     0.010 A 
HETATM   29  C   UNL     1      -6.107  -4.920 -35.092  1.00  0.00     0.005 C 
HETATM   30  C   UNL     1      -6.181  -3.614 -35.872  1.00  0.00     0.005 C 
HETATM   31  C   UNL     1      -2.959  -2.716 -31.971  1.00  0.00     0.037 A 
ENDBRANCH  21  22
ENDBRANCH  20  21
ENDBRANCH   6  20
TORSDOF 8
ENDMDL
MODEL 4
REMARK VINA RESULT:      -9.3      1.018      1.219
REMARK  8 active torsions:
REMARK  status: ('A' for Active; 'I' for Inactive)
REMARK    1  A    between atoms: C_3  and  S_4 
REMARK    2  A    between atoms: S_4  and  C_5 
REMARK    3  A    between atoms: C_5  and  C_6 
REMARK       I    between atoms: C_6  and  N_7 
REMARK    4  A    between atoms: N_7  and  C_8 
REMARK    5  A    between atoms: C_8  and  C_9 
REMARK    6  A    between atoms: C_18  and  C_19 
REMARK    7  A    between atoms: C_19  and  O_20 
REMARK    8  A    between atoms: O_20  and  C_21 
ROOT
HETATM    1  C   UNL     1      -4.408   4.791 -34.189  1.00  0.00     0.160 C 
HETATM    2  N   UNL     1      -3.493   4.360 -33.164  1.00  0.00    -0.314 N 
HETATM    3  C   UNL     1      -2.383   5.011 -32.703  1.00  0.00     0.191 A 
HETATM    4  N   UNL     1      -1.825   4.311 -31.743  1.00  0.00    -0.123 NA
HETATM    5  N   UNL     1      -2.551   3.160 -31.586  1.00  0.00    -0.132 NA
HETATM    6  C   UNL     1      -3.556   3.188 -32.443  1.00  0.00     0.154 A 
ENDROOT
BRANCH   3   7
HETATM    7  S   UNL     1      -1.791   6.503 -33.339  1.00  0.00    -0.081 SA
BRANCH   7   8
HETATM    8  C   UNL     1      -1.588   7.478 -31.821  1.00  0.00     0.185 C 
BRANCH   8   9
HETATM    9  C   UNL     1      -0.451   6.968 -30.950  1.00  0.00     0.227 C 
HETATM   10  N   UNL     1      -0.799   6.638 -29.662  1.00  0.00    -0.356 N 
HETATM   11  H   UNL     1      -1.765   6.778 -29.373  1.00  0.00     0.162 HD
HETATM   12  O   UNL     1       0.707   6.921 -31.364  1.00  0.00    -0.273 OA
BRANCH  10  13
HETATM   13  C   UNL     1       0.177   6.315 -28.648  1.00  0.00     0.161 C 
BRANCH  13  14
HETATM   14  C   UNL     1       0.549   7.511 -27.809  1.00  0.00    -0.041 A 
HETATM   15  C   UNL     1      -0.197   8.696 -27.906  1.00  0.00     0.009 A 
HETATM   16  C   UNL     1       0.115   9.801 -27.110  1.00  0.00     0.001 A 
HETATM   17  C   UNL     1       1.174   9.735 -26.208  1.00  0.00     0.000 A 
HETATM   18  C   UNL     1       1.921   8.564 -26.099  1.00  0.00     0.001 A 
HETATM   19  C   UNL     1       1.608   7.457 -26.890  1.00  0.00     0.009 A 
ENDBRANCH  13  14
ENDBRANCH  10  13
ENDBRANCH   8   9
ENDBRANCH   7   8
ENDBRANCH   3   7
BRANCH   6  20
HETATM   20  C   UNL     1      -4.583   2.126 -32.627  1.00  0.00     0.256 C 
BRANCH  20  21
HETATM   21  O   UNL     1      -3.903   0.877 -32.499  1.00  0.00    -0.344 OA
BRANCH  21  22
HETATM   22  C   UNL     1      -4.549  -0.196 -33.052  1.00  0.00     0.069 A 
HETATM   23  C   UNL     1      -3.971  -1.446 -33.278  1.00  0.00     0.044 A 
HETATM   24  C   UNL     1      -4.719  -2.484 -33.862  1.00  0.00    -0.049 A 
HETATM   25  C   UNL     1      -6.051  -2.248 -34.250  1.00  0.00    -0.052 A 
HETATM   26  C   UNL     1      -4.049  -3.811 -34.126  1.00  0.00     0.039 C 
HETATM   27  C   UNL     1      -6.906  -3.340 -34.845  1.00  0.00     0.039 C 
HETATM   28  C   UNL     1      -6.617  -0.985 -34.025  1.00  0.00     0.010 A 
HETATM   29  C   UNL     1      -6.091  -4.506 -35.402  1.00  0.00     0.005 C 
HETATM   30  C   UNL     1      -5.035  -4.946 -34.395  1.00  0.00     0.005 C 
HETATM   31  C   UNL     1      -5.865   0.035 -33.442  1.00  0.00     0.037 A 
ENDBRANCH  21  22
ENDBRANCH  20  21
ENDBRANCH   6  20
TORSDOF 8
ENDMDL
MODEL 5
REMARK VINA RESULT:      -9.3      1.303      1.976
REMARK  8 active torsions:
REMARK  status: ('A' for Active; 'I' for Inactive)
REMARK    1  A    between atoms: C_3  and  S_4 
REMARK    2  A    between atoms: S_4  and  C_5 
REMARK    3  A    between atoms: C_5  and  C_6 
REMARK       I    between atoms: C_6  and  N_7 
REMARK    4  A    between atoms: N_7  and  C_8 
REMARK    5  A    between atoms: C_8  and  C_9 
REMARK    6  A    between atoms: C_18  and  C_19 
REMARK    7  A    between atoms: C_19  and  O_20 
REMARK    8  A    between atoms: O_20  and  C_21 
ROOT
HETATM    1  C   UNL     1      -2.840   3.799 -32.096  1.00  0.00     0.160 C 
HETATM    2  N   UNL     1      -3.541   4.348 -33.227  1.00  0.00    -0.314 N 
HETATM    3  C   UNL     1      -3.040   5.144 -34.219  1.00  0.00     0.191 A 
HETATM    4  N   UNL     1      -3.984   5.416 -35.089  1.00  0.00    -0.123 NA
HETATM    5  N   UNL     1      -5.141   4.825 -34.652  1.00  0.00    -0.132 NA
HETATM    6  C   UNL     1      -4.875   4.183 -33.529  1.00  0.00     0.154 A 
ENDROOT
BRANCH   3   7
HETATM    7  S   UNL     1      -1.418   5.734 -34.272  1.00  0.00    -0.081 SA
BRANCH   7   8
HETATM    8  C   UNL     1      -1.632   7.415 -33.620  1.00  0.00     0.185 C 
BRANCH   8   9
HETATM    9  C   UNL     1      -2.009   7.423 -32.147  1.00  0.00     0.227 C 
HETATM   10  N   UNL     1      -1.056   6.923 -31.294  1.00  0.00    -0.356 N 
HETATM   11  H   UNL     1      -0.191   6.562 -31.694  1.00  0.00     0.162 HD
HETATM   12  O   UNL     1      -3.119   7.796 -31.768  1.00  0.00    -0.273 OA
BRANCH  10  13
HETATM   13  C   UNL     1      -1.310   6.683 -29.893  1.00  0.00     0.161 C 
BRANCH  13  14
HETATM   14  C   UNL     1      -0.589   7.664 -29.003  1.00  0.00    -0.041 A 
HETATM   15  C   UNL     1      -1.291   8.733 -28.425  1.00  0.00     0.009 A 
HETATM   16  C   UNL     1      -0.645   9.630 -27.572  1.00  0.00     0.001 A 
HETATM   17  C   UNL     1       0.709   9.470 -27.285  1.00  0.00     0.000 A 
HETATM   18  C   UNL     1       1.417   8.411 -27.850  1.00  0.00     0.001 A 
HETATM   19  C   UNL     1       0.772   7.510 -28.699  1.00  0.00     0.009 A 
ENDBRANCH  13  14
ENDBRANCH  10  13
ENDBRANCH   8   9
ENDBRANCH   7   8
ENDBRANCH   3   7
BRANCH   6  20
HETATM   20  C   UNL     1      -5.850   3.419 -32.703  1.00  0.00     0.256 C 
BRANCH  20  21
HETATM   21  O   UNL     1      -6.736   2.771 -33.616  1.00  0.00    -0.344 OA
BRANCH  21  22
HETATM   22  C   UNL     1      -6.460   1.453 -33.859  1.00  0.00     0.069 A 
HETATM   23  C   UNL     1      -5.372   0.754 -33.333  1.00  0.00     0.044 A 
HETATM   24  C   UNL     1      -5.171  -0.600 -33.652  1.00  0.00    -0.049 A 
HETATM   25  C   UNL     1      -6.056  -1.246 -34.534  1.00  0.00    -0.052 A 
HETATM   26  C   UNL     1      -3.962  -1.311 -33.093  1.00  0.00     0.039 C 
HETATM   27  C   UNL     1      -5.904  -2.708 -34.877  1.00  0.00     0.039 C 
HETATM   28  C   UNL     1      -7.140  -0.531 -35.062  1.00  0.00     0.010 A 
HETATM   29  C   UNL     1      -4.507  -3.252 -34.582  1.00  0.00     0.005 C 
HETATM   30  C   UNL     1      -4.056  -2.833 -33.189  1.00  0.00     0.005 C 
HETATM   31  C   UNL     1      -7.331   0.812 -34.736  1.00  0.00     0.037 A 
ENDBRANCH  21  22
ENDBRANCH  20  21
ENDBRANCH   6  20
TORSDOF 8
ENDMDL
MODEL 6
REMARK VINA RESULT:      -9.2      1.777      2.491
REMARK  8 active torsions:
REMARK  status: ('A' for Active; 'I' for Inactive)
REMARK    1  A    between atoms: C_3  and  S_4 
REMARK    2  A    between atoms: S_4  and  C_5 
REMARK    3  A    between atoms: C_5  and  C_6 
REMARK       I    between atoms: C_6  and  N_7 
REMARK    4  A    between atoms: N_7  and  C_8 
REMARK    5  A    between atoms: C_8  and  C_9 
REMARK    6  A    between atoms: C_18  and  C_19 
REMARK    7  A    between atoms: C_19  and  O_20 
REMARK    8  A    between atoms: O_20  and  C_21 
ROOT
HETATM    1  C   UNL     1      -3.369   2.629 -32.010  1.00  0.00     0.160 C 
HETATM    2  N   UNL     1      -4.281   3.423 -32.792  1.00  0.00    -0.314 N 
HETATM    3  C   UNL     1      -4.044   4.630 -33.387  1.00  0.00     0.191 A 
HETATM    4  N   UNL     1      -5.115   5.023 -34.036  1.00  0.00    -0.123 NA
HETATM    5  N   UNL     1      -6.092   4.083 -33.841  1.00  0.00    -0.132 NA
HETATM    6  C   UNL     1      -5.591   3.119 -33.090  1.00  0.00     0.154 A 
ENDROOT
BRANCH   3   7
HETATM    7  S   UNL     1      -2.568   5.515 -33.248  1.00  0.00    -0.081 SA
BRANCH   7   8
HETATM    8  C   UNL     1      -2.538   5.879 -31.470  1.00  0.00     0.185 C 
BRANCH   8   9
HETATM    9  C   UNL     1      -1.282   5.355 -30.791  1.00  0.00     0.227 C 
HETATM   10  N   UNL     1      -0.945   5.982 -29.616  1.00  0.00    -0.356 N 
HETATM   11  H   UNL     1      -1.526   6.755 -29.297  1.00  0.00     0.162 HD
HETATM   12  O   UNL     1      -0.592   4.475 -31.303  1.00  0.00    -0.273 OA
BRANCH  10  13
HETATM   13  C   UNL     1       0.306   5.745 -28.935  1.00  0.00     0.161 C 
BRANCH  13  14
HETATM   14  C   UNL     1       0.697   6.891 -28.036  1.00  0.00    -0.041 A 
HETATM   15  C   UNL     1       0.595   6.756 -26.643  1.00  0.00     0.009 A 
HETATM   16  C   UNL     1       0.985   7.796 -25.796  1.00  0.00     0.001 A 
HETATM   17  C   UNL     1       1.480   8.983 -26.331  1.00  0.00     0.000 A 
HETATM   18  C   UNL     1       1.589   9.130 -27.712  1.00  0.00     0.001 A 
HETATM   19  C   UNL     1       1.205   8.090 -28.560  1.00  0.00     0.009 A 
ENDBRANCH  13  14
ENDBRANCH  10  13
ENDBRANCH   8   9
ENDBRANCH   7   8
ENDBRANCH   3   7
BRANCH   6  20
HETATM   20  C   UNL     1      -6.315   1.907 -32.617  1.00  0.00     0.256 C 
BRANCH  20  21
HETATM   21  O   UNL     1      -6.699   1.181 -33.785  1.00  0.00    -0.344 OA
BRANCH  21  22
HETATM   22  C   UNL     1      -6.139  -0.061 -33.907  1.00  0.00     0.069 A 
HETATM   23  C   UNL     1      -6.802  -1.193 -34.384  1.00  0.00     0.044 A 
HETATM   24  C   UNL     1      -6.138  -2.430 -34.463  1.00  0.00    -0.049 A 
HETATM   25  C   UNL     1      -4.805  -2.533 -34.027  1.00  0.00    -0.052 A 
HETATM   26  C   UNL     1      -6.900  -3.640 -34.949  1.00  0.00     0.039 C 
HETATM   27  C   UNL     1      -4.038  -3.829 -34.126  1.00  0.00     0.039 C 
HETATM   28  C   UNL     1      -4.152  -1.391 -33.541  1.00  0.00     0.010 A 
HETATM   29  C   UNL     1      -4.942  -5.052 -34.277  1.00  0.00     0.005 C 
HETATM   30  C   UNL     1      -5.996  -4.805 -35.348  1.00  0.00     0.005 C 
HETATM   31  C   UNL     1      -4.821  -0.169 -33.471  1.00  0.00     0.037 A 
ENDBRANCH  21  22
ENDBRANCH  20  21
ENDBRANCH   6  20
TORSDOF 8
ENDMDL
MODEL 7
REMARK VINA RESULT:      -9.1      1.763      2.842
REMARK  8 active torsions:
REMARK  status: ('A' for Active; 'I' for Inactive)
REMARK    1  A    between atoms: C_3  and  S_4 
REMARK    2  A    between atoms: S_4  and  C_5 
REMARK    3  A    between atoms: C_5  and  C_6 
REMARK       I    between atoms: C_6  and  N_7 
REMARK    4  A    between atoms: N_7  and  C_8 
REMARK    5  A    between atoms: C_8  and  C_9 
REMARK    6  A    between atoms: C_18  and  C_19 
REMARK    7  A    between atoms: C_19  and  O_20 
REMARK    8  A    between atoms: O_20  and  C_21 
ROOT
HETATM    1  C   UNL     1      -3.897   3.139 -31.553  1.00  0.00     0.160 C 
HETATM    2  N   UNL     1      -5.051   3.771 -32.138  1.00  0.00    -0.314 N 
HETATM    3  C   UNL     1      -5.218   5.092 -32.444  1.00  0.00     0.191 A 
HETATM    4  N   UNL     1      -6.397   5.275 -32.991  1.00  0.00    -0.123 NA
HETATM    5  N   UNL     1      -7.041   4.066 -33.016  1.00  0.00    -0.132 NA
HETATM    6  C   UNL     1      -6.231   3.159 -32.500  1.00  0.00     0.154 A 
ENDROOT
BRANCH   3   7
HETATM    7  S   UNL     1      -4.060   6.328 -32.106  1.00  0.00    -0.081 SA
BRANCH   7   8
HETATM    8  C   UNL     1      -3.094   6.338 -33.643  1.00  0.00     0.185 C 
BRANCH   8   9
HETATM    9  C   UNL     1      -1.598   6.248 -33.389  1.00  0.00     0.227 C 
HETATM   10  N   UNL     1      -1.225   5.414 -32.362  1.00  0.00    -0.356 N 
HETATM   11  H   UNL     1      -1.956   4.943 -31.833  1.00  0.00     0.162 HD
HETATM   12  O   UNL     1      -0.794   6.929 -34.025  1.00  0.00    -0.273 OA
BRANCH  10  13
HETATM   13  C   UNL     1       0.128   5.348 -31.863  1.00  0.00     0.161 C 
BRANCH  13  14
HETATM   14  C   UNL     1       0.265   5.968 -30.495  1.00  0.00    -0.041 A 
HETATM   15  C   UNL     1       0.637   5.174 -29.399  1.00  0.00     0.009 A 
HETATM   16  C   UNL     1       0.801   5.740 -28.133  1.00  0.00     0.001 A 
HETATM   17  C   UNL     1       0.596   7.105 -27.946  1.00  0.00     0.000 A 
HETATM   18  C   UNL     1       0.230   7.906 -29.025  1.00  0.00     0.001 A 
HETATM   19  C   UNL     1       0.070   7.343 -30.293  1.00  0.00     0.009 A 
ENDBRANCH  13  14
ENDBRANCH  10  13
ENDBRANCH   8   9
ENDBRANCH   7   8
ENDBRANCH   3   7
BRANCH   6  20
HETATM   20  C   UNL     1      -6.536   1.714 -32.315  1.00  0.00     0.256 C 
BRANCH  20  21
HETATM   21  O   UNL     1      -6.670   1.156 -33.622  1.00  0.00    -0.344 OA
BRANCH  21  22
HETATM   22  C   UNL     1      -6.109  -0.081 -33.787  1.00  0.00     0.069 A 
HETATM   23  C   UNL     1      -6.779  -1.206 -34.272  1.00  0.00     0.044 A 
HETATM   24  C   UNL     1      -6.113  -2.437 -34.396  1.00  0.00    -0.049 A 
HETATM   25  C   UNL     1      -4.768  -2.543 -33.998  1.00  0.00    -0.052 A 
HETATM   26  C   UNL     1      -6.882  -3.639 -34.888  1.00  0.00     0.039 C 
HETATM   27  C   UNL     1      -3.998  -3.832 -34.147  1.00  0.00     0.039 C 
HETATM   28  C   UNL     1      -4.107  -1.408 -33.505  1.00  0.00     0.010 A 
HETATM   29  C   UNL     1      -4.900  -5.056 -34.301  1.00  0.00     0.005 C 
HETATM   30  C   UNL     1      -5.984  -4.791 -35.337  1.00  0.00     0.005 C 
HETATM   31  C   UNL     1      -4.779  -0.191 -33.389  1.00  0.00     0.037 A 
ENDBRANCH  21  22
ENDBRANCH  20  21
ENDBRANCH   6  20
TORSDOF 8
ENDMDL
MODEL 8
REMARK VINA RESULT:      -9.1      1.888     10.656
REMARK  8 active torsions:
REMARK  status: ('A' for Active; 'I' for Inactive)
REMARK    1  A    between atoms: C_3  and  S_4 
REMARK    2  A    between atoms: S_4  and  C_5 
REMARK    3  A    between atoms: C_5  and  C_6 
REMARK       I    between atoms: C_6  and  N_7 
REMARK    4  A    between atoms: N_7  and  C_8 
REMARK    5  A    between atoms: C_8  and  C_9 
REMARK    6  A    between atoms: C_18  and  C_19 
REMARK    7  A    between atoms: C_19  and  O_20 
REMARK    8  A    between atoms: O_20  and  C_21 
ROOT
HETATM    1  C   UNL     1      -3.446   3.910 -31.681  1.00  0.00     0.160 C 
HETATM    2  N   UNL     1      -3.836   4.464 -32.951  1.00  0.00    -0.314 N 
HETATM    3  C   UNL     1      -5.086   4.498 -33.503  1.00  0.00     0.191 A 
HETATM    4  N   UNL     1      -5.042   5.114 -34.662  1.00  0.00    -0.123 NA
HETATM    5  N   UNL     1      -3.740   5.462 -34.904  1.00  0.00    -0.132 NA
HETATM    6  C   UNL     1      -3.012   5.070 -33.874  1.00  0.00     0.154 A 
ENDROOT
BRANCH   3   7
HETATM    7  S   UNL     1      -6.488   3.785 -32.792  1.00  0.00    -0.081 SA
BRANCH   7   8
HETATM    8  C   UNL     1      -6.526   2.172 -33.624  1.00  0.00     0.185 C 
BRANCH   8   9
HETATM    9  C   UNL     1      -5.663   1.136 -32.921  1.00  0.00     0.227 C 
HETATM   10  N   UNL     1      -5.135   0.162 -33.733  1.00  0.00    -0.356 N 
HETATM   11  H   UNL     1      -5.371   0.180 -34.724  1.00  0.00     0.162 HD
HETATM   12  O   UNL     1      -5.511   1.145 -31.700  1.00  0.00    -0.273 OA
BRANCH  10  13
HETATM   13  C   UNL     1      -4.450  -0.999 -33.216  1.00  0.00     0.161 C 
BRANCH  13  14
HETATM   14  C   UNL     1      -4.991  -2.286 -33.787  1.00  0.00    -0.041 A 
HETATM   15  C   UNL     1      -6.304  -2.337 -34.281  1.00  0.00     0.009 A 
HETATM   16  C   UNL     1      -6.808  -3.511 -34.844  1.00  0.00     0.001 A 
HETATM   17  C   UNL     1      -6.008  -4.649 -34.919  1.00  0.00     0.000 A 
HETATM   18  C   UNL     1      -4.702  -4.612 -34.435  1.00  0.00     0.001 A 
HETATM   19  C   UNL     1      -4.194  -3.437 -33.877  1.00  0.00     0.009 A 
ENDBRANCH  13  14
ENDBRANCH  10  13
ENDBRANCH   8   9
ENDBRANCH   7   8
ENDBRANCH   3   7
BRANCH   6  20
HETATM   20  C   UNL     1      -1.539   5.229 -33.729  1.00  0.00     0.256 C 
BRANCH  20  21
HETATM   21  O   UNL     1      -1.324   6.520 -33.158  1.00  0.00    -0.344 OA
BRANCH  21  22
HETATM   22  C   UNL     1      -0.849   6.517 -31.874  1.00  0.00     0.069 A 
HETATM   23  C   UNL     1      -1.073   7.526 -30.936  1.00  0.00     0.044 A 
HETATM   24  C   UNL     1      -0.533   7.432 -29.642  1.00  0.00    -0.049 A 
HETATM   25  C   UNL     1       0.267   6.326 -29.302  1.00  0.00    -0.052 A 
HETATM   26  C   UNL     1      -0.766   8.561 -28.668  1.00  0.00     0.039 C 
HETATM   27  C   UNL     1       0.838   6.161 -27.914  1.00  0.00     0.039 C 
HETATM   28  C   UNL     1       0.492   5.323 -30.255  1.00  0.00     0.010 A 
HETATM   29  C   UNL     1       0.870   7.464 -27.118  1.00  0.00     0.005 C 
HETATM   30  C   UNL     1      -0.470   8.182 -27.218  1.00  0.00     0.005 C 
HETATM   31  C   UNL     1      -0.052   5.426 -31.535  1.00  0.00     0.037 A 
ENDBRANCH  21  22
ENDBRANCH  20  21
ENDBRANCH   6  20
TORSDOF 8
ENDMDL
MODEL 9
REMARK VINA RESULT:      -9.0      2.824     10.456
REMARK  8 active torsions:
REMARK  status: ('A' for Active; 'I' for Inactive)
REMARK    1  A    between atoms: C_3  and  S_4 
REMARK    2  A    between atoms: S_4  and  C_5 
REMARK    3  A    between atoms: C_5  and  C_6 
REMARK       I    between atoms: C_6  and  N_7 
REMARK    4  A    between atoms: N_7  and  C_8 
REMARK    5  A    between atoms: C_8  and  C_9 
REMARK    6  A    between atoms: C_18  and  C_19 
REMARK    7  A    between atoms: C_19  and  O_20 
REMARK    8  A    between atoms: O_20  and  C_21 
ROOT
HETATM    1  C   UNL     1      -5.100   2.878 -32.057  1.00  0.00     0.160 C 
HETATM    2  N   UNL     1      -6.207   3.496 -32.740  1.00  0.00    -0.314 N 
HETATM    3  C   UNL     1      -7.541   3.335 -32.491  1.00  0.00     0.191 A 
HETATM    4  N   UNL     1      -8.239   4.090 -33.307  1.00  0.00    -0.123 NA
HETATM    5  N   UNL     1      -7.360   4.733 -34.138  1.00  0.00    -0.132 NA
HETATM    6  C   UNL     1      -6.136   4.375 -33.798  1.00  0.00     0.154 A 
ENDROOT
BRANCH   3   7
HETATM    7  S   UNL     1      -8.192   2.257 -31.309  1.00  0.00    -0.081 SA
BRANCH   7   8
HETATM    8  C   UNL     1      -8.952   0.992 -32.366  1.00  0.00     0.185 C 
BRANCH   8   9
HETATM    9  C   UNL     1      -8.035   0.551 -33.496  1.00  0.00     0.227 C 
HETATM   10  N   UNL     1      -6.894  -0.107 -33.106  1.00  0.00    -0.356 N 
HETATM   11  H   UNL     1      -6.726  -0.231 -32.109  1.00  0.00     0.162 HD
HETATM   12  O   UNL     1      -8.280   0.829 -34.669  1.00  0.00    -0.273 OA
BRANCH  10  13
HETATM   13  C   UNL     1      -5.827  -0.431 -34.022  1.00  0.00     0.161 C 
BRANCH  13  14
HETATM   14  C   UNL     1      -5.718  -1.914 -34.273  1.00  0.00    -0.041 A 
HETATM   15  C   UNL     1      -4.495  -2.572 -34.070  1.00  0.00     0.009 A 
HETATM   16  C   UNL     1      -4.387  -3.950 -34.266  1.00  0.00     0.001 A 
HETATM   17  C   UNL     1      -5.498  -4.688 -34.667  1.00  0.00     0.000 A 
HETATM   18  C   UNL     1      -6.719  -4.049 -34.870  1.00  0.00     0.001 A 
HETATM   19  C   UNL     1      -6.831  -2.672 -34.669  1.00  0.00     0.009 A 
ENDBRANCH  13  14
ENDBRANCH  10  13
ENDBRANCH   8   9
ENDBRANCH   7   8
ENDBRANCH   3   7
BRANCH   6  20
HETATM   20  C   UNL     1      -4.876   4.822 -34.454  1.00  0.00     0.256 C 
BRANCH  20  21
HETATM   21  O   UNL     1      -4.543   6.085 -33.877  1.00  0.00    -0.344 OA
BRANCH  21  22
HETATM   22  C   UNL     1      -3.401   6.096 -33.123  1.00  0.00     0.069 A 
HETATM   23  C   UNL     1      -3.127   7.007 -32.100  1.00  0.00     0.044 A 
HETATM   24  C   UNL     1      -1.917   6.940 -31.389  1.00  0.00    -0.049 A 
HETATM   25  C   UNL     1      -0.961   5.966 -31.733  1.00  0.00    -0.052 A 
HETATM   26  C   UNL     1      -1.641   7.965 -30.315  1.00  0.00     0.039 C 
HETATM   27  C   UNL     1       0.336   5.830 -30.974  1.00  0.00     0.039 C 
HETATM   28  C   UNL     1      -1.244   5.063 -32.767  1.00  0.00     0.010 A 
HETATM   29  C   UNL     1       0.699   7.080 -30.173  1.00  0.00     0.005 C 
HETATM   30  C   UNL     1      -0.503   7.568 -29.376  1.00  0.00     0.005 C 
HETATM   31  C   UNL     1      -2.450   5.138 -33.464  1.00  0.00     0.037 A 
ENDBRANCH  21  22
ENDBRANCH  20  21
ENDBRANCH   6  20
TORSDOF 8
ENDMDL
MODEL 10
REMARK VINA RESULT:      -9.0      3.296      4.732
REMARK  8 active torsions:
REMARK  status: ('A' for Active; 'I' for Inactive)
REMARK    1  A    between atoms: C_3  and  S_4 
REMARK    2  A    between atoms: S_4  and  C_5 
REMARK    3  A    between atoms: C_5  and  C_6 
REMARK       I    between atoms: C_6  and  N_7 
REMARK    4  A    between atoms: N_7  and  C_8 
REMARK    5  A    between atoms: C_8  and  C_9 
REMARK    6  A    between atoms: C_18  and  C_19 
REMARK    7  A    between atoms: C_19  and  O_20 
REMARK    8  A    between atoms: O_20  and  C_21 
ROOT
HETATM    1  C   UNL     1      -8.729   3.871 -32.099  1.00  0.00     0.160 C 
HETATM    2  N   UNL     1      -7.923   2.938 -31.356  1.00  0.00    -0.314 N 
HETATM    3  C   UNL     1      -7.274   3.149 -30.172  1.00  0.00     0.191 A 
HETATM    4  N   UNL     1      -6.668   2.046 -29.796  1.00  0.00    -0.123 NA
HETATM    5  N   UNL     1      -6.885   1.098 -30.761  1.00  0.00    -0.132 NA
HETATM    6  C   UNL     1      -7.640   1.635 -31.702  1.00  0.00     0.154 A 
ENDROOT
BRANCH   3   7
HETATM    7  S   UNL     1      -7.226   4.660 -29.339  1.00  0.00    -0.081 SA
BRANCH   7   8
HETATM    8  C   UNL     1      -5.486   5.130 -29.558  1.00  0.00     0.185 C 
BRANCH   8   9
HETATM    9  C   UNL     1      -4.929   4.684 -30.901  1.00  0.00     0.227 C 
HETATM   10  N   UNL     1      -3.903   3.772 -30.838  1.00  0.00    -0.356 N 
HETATM   11  H   UNL     1      -3.571   3.482 -29.920  1.00  0.00     0.162 HD
HETATM   12  O   UNL     1      -5.335   5.163 -31.958  1.00  0.00    -0.273 OA
BRANCH  10  13
HETATM   13  C   UNL     1      -3.134   3.381 -31.995  1.00  0.00     0.161 C 
BRANCH  13  14
HETATM   14  C   UNL     1      -2.335   4.525 -32.568  1.00  0.00    -0.041 A 
HETATM   15  C   UNL     1      -1.533   5.311 -31.726  1.00  0.00     0.009 A 
HETATM   16  C   UNL     1      -0.762   6.352 -32.246  1.00  0.00     0.001 A 
HETATM   17  C   UNL     1      -0.782   6.621 -33.613  1.00  0.00     0.000 A 
HETATM   18  C   UNL     1      -1.571   5.847 -34.461  1.00  0.00     0.001 A 
HETATM   19  C   UNL     1      -2.339   4.801 -33.944  1.00  0.00     0.009 A 
ENDBRANCH  13  14
ENDBRANCH  10  13
ENDBRANCH   8   9
ENDBRANCH   7   8
ENDBRANCH   3   7
BRANCH   6  20
HETATM   20  C   UNL     1      -8.100   0.963 -32.948  1.00  0.00     0.256 C 
BRANCH  20  21
HETATM   21  O   UNL     1      -6.988   0.960 -33.844  1.00  0.00    -0.344 OA
BRANCH  21  22
HETATM   22  C   UNL     1      -6.340  -0.240 -33.962  1.00  0.00     0.069 A 
HETATM   23  C   UNL     1      -6.932  -1.428 -34.393  1.00  0.00     0.044 A 
HETATM   24  C   UNL     1      -6.179  -2.613 -34.472  1.00  0.00    -0.049 A 
HETATM   25  C   UNL     1      -4.827  -2.605 -34.082  1.00  0.00    -0.052 A 
HETATM   26  C   UNL     1      -6.863  -3.887 -34.907  1.00  0.00     0.039 C 
HETATM   27  C   UNL     1      -3.968  -3.842 -34.185  1.00  0.00     0.039 C 
HETATM   28  C   UNL     1      -4.247  -1.407 -33.643  1.00  0.00     0.010 A 
HETATM   29  C   UNL     1      -4.780  -5.132 -34.280  1.00  0.00     0.005 C 
HETATM   30  C   UNL     1      -5.887  -4.990 -35.316  1.00  0.00     0.005 C 
HETATM   31  C   UNL     1      -5.003  -0.237 -33.572  1.00  0.00     0.037 A 
ENDBRANCH  21  22
ENDBRANCH  20  21
ENDBRANCH   6  20
TORSDOF 8
ENDMDL
