MODEL 1
REMARK VINA RESULT:      -9.2      0.000      0.000
REMARK  6 active torsions:
REMARK  status: ('A' for Active; 'I' for Inactive)
REMARK    1  A    between atoms: C_2  and  O_3 
REMARK    2  A    between atoms: C_2  and  C_4 
REMARK    3  A    between atoms: C_7  and  N_8 
REMARK       I    between atoms: N_8  and  C_9 
REMARK    4  A    between atoms: C_9  and  C_10 
REMARK    5  A    between atoms: C_13  and  C_14 
REMARK    6  A    between atoms: C_19  and  C_20 
ROOT
HETATM    1  C   UNL     1      -7.272   2.066 -33.347  1.00  0.00     0.096 C 
HETATM    2  C   UNL     1      -6.458   0.949 -33.374  1.00  0.00     0.138 C 
HETATM    3  N   UNL     1      -5.274   1.333 -32.783  1.00  0.00    -0.240 N 
HETATM    4  C   UNL     1      -4.110   0.479 -32.636  1.00  0.00     0.221 C 
HETATM    5  C   UNL     1      -4.474  -0.992 -32.903  1.00  0.00     0.068 C 
HETATM    6  C   UNL     1      -5.399  -1.105 -34.120  1.00  0.00     0.143 C 
HETATM    7  N   UNL     1      -6.618  -0.316 -33.859  1.00  0.00    -0.363 N 
HETATM    8  N   UNL     1      -5.202   2.651 -32.547  1.00  0.00    -0.181 NA
HETATM    9  C   UNL     1      -6.425   3.089 -32.856  1.00  0.00     0.160 C 
HETATM   10  H   UNL     1      -7.297  -0.445 -34.614  1.00  0.00     0.162 HD
ENDROOT
BRANCH   1  11
HETATM   11  C   UNL     1      -8.658   2.229 -33.756  1.00  0.00     0.261 C 
HETATM   12  N   UNL     1      -9.540   1.434 -33.049  1.00  0.00    -0.323 N 
HETATM   13  H   UNL     1      -9.135   0.906 -32.285  1.00  0.00     0.169 HD
HETATM   14  O   UNL     1      -8.952   3.044 -34.621  1.00  0.00    -0.267 OA
BRANCH  12  15
HETATM   15  C   UNL     1     -10.943   1.382 -33.181  1.00  0.00     0.035 A 
HETATM   16  C   UNL     1     -11.781   2.489 -33.046  1.00  0.00     0.030 A 
HETATM   17  C   UNL     1     -13.170   2.351 -33.166  1.00  0.00     0.012 A 
HETATM   18  C   UNL     1     -13.751   1.103 -33.422  1.00  0.00    -0.030 A 
HETATM   19  C   UNL     1     -12.905  -0.002 -33.581  1.00  0.00     0.012 A 
HETATM   20  C   UNL     1     -11.517   0.136 -33.460  1.00  0.00     0.030 A 
BRANCH  18  21
HETATM   21  C   UNL     1     -15.254   0.985 -33.547  1.00  0.00     0.147 C 
HETATM   22  C   UNL     1     -15.968   2.136 -32.851  1.00  0.00     0.044 C 
BRANCH  21  23
HETATM   23  O   UNL     1     -15.636   0.964 -34.922  1.00  0.00    -0.391 OA
HETATM   24  H   UNL     1     -15.411   0.083 -35.265  1.00  0.00     0.210 HD
ENDBRANCH  21  23
ENDBRANCH  18  21
ENDBRANCH  12  15
ENDBRANCH   1  11
BRANCH   4  25
HETATM   25  C   UNL     1      -3.497   0.605 -31.256  1.00  0.00     0.409 C 
HETATM   26  F   UNL     1      -4.408   0.432 -30.272  1.00  0.00    -0.169 F 
HETATM   27  F   UNL     1      -2.558  -0.365 -31.087  1.00  0.00    -0.169 F 
HETATM   28  F   UNL     1      -2.865   1.777 -31.049  1.00  0.00    -0.169 F 
ENDBRANCH   4  25
BRANCH   6  29
HETATM   29  C   UNL     1      -5.672  -2.544 -34.420  1.00  0.00     0.075 A 
HETATM   30  O   UNL     1      -4.623  -3.403 -34.264  1.00  0.00    -0.325 OA
HETATM   31  C   UNL     1      -5.079  -4.646 -34.565  1.00  0.00     0.142 A 
HETATM   32  C   UNL     1      -6.409  -4.599 -34.912  1.00  0.00     0.027 A 
HETATM   33  C   UNL     1      -6.794  -3.240 -34.820  1.00  0.00     0.037 A 
ENDBRANCH   6  29
TORSDOF 6
ENDMDL
MODEL 2
REMARK VINA RESULT:      -9.0      3.643      8.411
REMARK  6 active torsions:
REMARK  status: ('A' for Active; 'I' for Inactive)
REMARK    1  A    between atoms: C_2  and  O_3 
REMARK    2  A    between atoms: C_2  and  C_4 
REMARK    3  A    between atoms: C_7  and  N_8 
REMARK       I    between atoms: N_8  and  C_9 
REMARK    4  A    between atoms: C_9  and  C_10 
REMARK    5  A    between atoms: C_13  and  C_14 
REMARK    6  A    between atoms: C_19  and  C_20 
ROOT
HETATM    1  C   UNL     1      -8.381   2.501 -33.072  1.00  0.00     0.096 C 
HETATM    2  C   UNL     1      -9.695   2.841 -33.339  1.00  0.00     0.138 C 
HETATM    3  N   UNL     1      -9.692   4.199 -33.568  1.00  0.00    -0.240 N 
HETATM    4  C   UNL     1     -10.876   4.992 -33.848  1.00  0.00     0.221 C 
HETATM    5  C   UNL     1     -12.070   4.087 -34.195  1.00  0.00     0.068 C 
HETATM    6  C   UNL     1     -12.122   2.878 -33.253  1.00  0.00     0.143 C 
HETATM    7  N   UNL     1     -10.858   2.128 -33.380  1.00  0.00    -0.363 N 
HETATM    8  N   UNL     1      -8.517   4.782 -33.291  1.00  0.00    -0.181 NA
HETATM    9  C   UNL     1      -7.714   3.749 -33.024  1.00  0.00     0.160 C 
HETATM   10  H   UNL     1     -10.897   1.264 -32.832  1.00  0.00     0.162 HD
ENDROOT
BRANCH   1  11
HETATM   11  C   UNL     1      -7.776   1.201 -32.838  1.00  0.00     0.261 C 
HETATM   12  N   UNL     1      -7.079   0.711 -33.927  1.00  0.00    -0.323 N 
HETATM   13  H   UNL     1      -7.001   1.343 -34.715  1.00  0.00     0.169 HD
HETATM   14  O   UNL     1      -7.874   0.664 -31.741  1.00  0.00    -0.267 OA
BRANCH  12  15
HETATM   15  C   UNL     1      -6.358  -0.497 -34.011  1.00  0.00     0.035 A 
HETATM   16  C   UNL     1      -5.047  -0.657 -33.559  1.00  0.00     0.030 A 
HETATM   17  C   UNL     1      -4.388  -1.884 -33.702  1.00  0.00     0.012 A 
HETATM   18  C   UNL     1      -5.023  -2.979 -34.301  1.00  0.00    -0.030 A 
HETATM   19  C   UNL     1      -6.348  -2.822 -34.731  1.00  0.00     0.012 A 
HETATM   20  C   UNL     1      -7.006  -1.595 -34.588  1.00  0.00     0.030 A 
BRANCH  18  21
HETATM   21  C   UNL     1      -4.287  -4.293 -34.441  1.00  0.00     0.147 C 
HETATM   22  C   UNL     1      -3.408  -4.576 -33.229  1.00  0.00     0.044 C 
BRANCH  21  23
HETATM   23  O   UNL     1      -5.214  -5.364 -34.605  1.00  0.00    -0.391 OA
HETATM   24  H   UNL     1      -5.357  -5.472 -35.560  1.00  0.00     0.210 HD
ENDBRANCH  21  23
ENDBRANCH  18  21
ENDBRANCH  12  15
ENDBRANCH   1  11
BRANCH   4  25
HETATM   25  C   UNL     1     -10.637   5.969 -34.979  1.00  0.00     0.409 C 
HETATM   26  F   UNL     1      -9.835   5.457 -35.940  1.00  0.00    -0.169 F 
HETATM   27  F   UNL     1     -11.822   6.263 -35.583  1.00  0.00    -0.169 F 
HETATM   28  F   UNL     1     -10.121   7.148 -34.578  1.00  0.00    -0.169 F 
ENDBRANCH   4  25
BRANCH   6  29
HETATM   29  C   UNL     1     -13.335   2.056 -33.545  1.00  0.00     0.075 A 
HETATM   30  O   UNL     1     -14.419   2.273 -32.744  1.00  0.00    -0.325 OA
HETATM   31  C   UNL     1     -15.407   1.451 -33.181  1.00  0.00     0.142 A 
HETATM   32  C   UNL     1     -14.976   0.708 -34.255  1.00  0.00     0.027 A 
HETATM   33  C   UNL     1     -13.635   1.097 -34.491  1.00  0.00     0.037 A 
ENDBRANCH   6  29
TORSDOF 6
ENDMDL
MODEL 3
REMARK VINA RESULT:      -8.9      4.816      8.105
REMARK  6 active torsions:
REMARK  status: ('A' for Active; 'I' for Inactive)
REMARK    1  A    between atoms: C_2  and  O_3 
REMARK    2  A    between atoms: C_2  and  C_4 
REMARK    3  A    between atoms: C_7  and  N_8 
REMARK       I    between atoms: N_8  and  C_9 
REMARK    4  A    between atoms: C_9  and  C_10 
REMARK    5  A    between atoms: C_13  and  C_14 
REMARK    6  A    between atoms: C_19  and  C_20 
ROOT
HETATM    1  C   UNL     1      -5.284   2.839 -31.590  1.00  0.00     0.096 C 
HETATM    2  C   UNL     1      -4.551   3.950 -31.214  1.00  0.00     0.138 C 
HETATM    3  N   UNL     1      -5.460   4.831 -30.670  1.00  0.00    -0.240 N 
HETATM    4  C   UNL     1      -5.131   6.157 -30.178  1.00  0.00     0.221 C 
HETATM    5  C   UNL     1      -3.609   6.320 -30.022  1.00  0.00     0.068 C 
HETATM    6  C   UNL     1      -2.876   5.708 -31.221  1.00  0.00     0.143 C 
HETATM    7  N   UNL     1      -3.230   4.278 -31.311  1.00  0.00    -0.363 N 
HETATM    8  N   UNL     1      -6.734   4.450 -30.834  1.00  0.00    -0.181 NA
HETATM    9  C   UNL     1      -6.626   3.226 -31.359  1.00  0.00     0.160 C 
HETATM   10  H   UNL     1      -2.687   3.819 -32.046  1.00  0.00     0.162 HD
ENDROOT
BRANCH   1  11
HETATM   11  C   UNL     1      -4.846   1.568 -32.142  1.00  0.00     0.261 C 
HETATM   12  N   UNL     1      -5.884   0.771 -32.587  1.00  0.00    -0.323 N 
HETATM   13  H   UNL     1      -6.804   1.195 -32.556  1.00  0.00     0.169 HD
HETATM   14  O   UNL     1      -3.651   1.308 -32.218  1.00  0.00    -0.267 OA
BRANCH  12  15
HETATM   15  C   UNL     1      -5.792  -0.496 -33.199  1.00  0.00     0.035 A 
HETATM   16  C   UNL     1      -4.635  -1.276 -33.207  1.00  0.00     0.030 A 
HETATM   17  C   UNL     1      -4.615  -2.515 -33.860  1.00  0.00     0.012 A 
HETATM   18  C   UNL     1      -5.751  -3.002 -34.519  1.00  0.00    -0.030 A 
HETATM   19  C   UNL     1      -6.918  -2.227 -34.488  1.00  0.00     0.012 A 
HETATM   20  C   UNL     1      -6.937  -0.988 -33.836  1.00  0.00     0.030 A 
BRANCH  18  21
HETATM   21  C   UNL     1      -5.700  -4.344 -35.215  1.00  0.00     0.147 C 
HETATM   22  C   UNL     1      -4.762  -5.310 -34.503  1.00  0.00     0.044 C 
BRANCH  21  23
HETATM   23  O   UNL     1      -7.004  -4.920 -35.274  1.00  0.00    -0.391 OA
HETATM   24  H   UNL     1      -6.926  -5.833 -34.949  1.00  0.00     0.210 HD
ENDBRANCH  21  23
ENDBRANCH  18  21
ENDBRANCH  12  15
ENDBRANCH   1  11
BRANCH   4  25
HETATM   25  C   UNL     1      -5.808   6.444 -28.854  1.00  0.00     0.409 C 
HETATM   26  F   UNL     1      -5.852   5.355 -28.054  1.00  0.00    -0.169 F 
HETATM   27  F   UNL     1      -5.100   7.390 -28.178  1.00  0.00    -0.169 F 
HETATM   28  F   UNL     1      -7.058   6.931 -28.979  1.00  0.00    -0.169 F 
ENDBRANCH   4  25
BRANCH   6  29
HETATM   29  C   UNL     1      -1.407   5.952 -31.099  1.00  0.00     0.075 A 
HETATM   30  O   UNL     1      -0.634   4.861 -30.824  1.00  0.00    -0.325 OA
HETATM   31  C   UNL     1       0.654   5.289 -30.772  1.00  0.00     0.142 A 
HETATM   32  C   UNL     1       0.721   6.641 -31.012  1.00  0.00     0.027 A 
HETATM   33  C   UNL     1      -0.611   7.073 -31.223  1.00  0.00     0.037 A 
ENDBRANCH   6  29
TORSDOF 6
ENDMDL
MODEL 4
REMARK VINA RESULT:      -8.8      4.690      7.482
REMARK  6 active torsions:
REMARK  status: ('A' for Active; 'I' for Inactive)
REMARK    1  A    between atoms: C_2  and  O_3 
REMARK    2  A    between atoms: C_2  and  C_4 
REMARK    3  A    between atoms: C_7  and  N_8 
REMARK       I    between atoms: N_8  and  C_9 
REMARK    4  A    between atoms: C_9  and  C_10 
REMARK    5  A    between atoms: C_13  and  C_14 
REMARK    6  A    between atoms: C_19  and  C_20 
ROOT
HETATM    1  C   UNL     1      -6.540   2.440 -30.779  1.00  0.00     0.096 C 
HETATM    2  C   UNL     1      -5.799   3.536 -31.184  1.00  0.00     0.138 C 
HETATM    3  N   UNL     1      -6.284   4.603 -30.461  1.00  0.00    -0.240 N 
HETATM    4  C   UNL     1      -5.820   5.972 -30.599  1.00  0.00     0.221 C 
HETATM    5  C   UNL     1      -4.501   6.025 -31.388  1.00  0.00     0.068 C 
HETATM    6  C   UNL     1      -4.554   5.074 -32.590  1.00  0.00     0.143 C 
HETATM    7  N   UNL     1      -4.800   3.705 -32.097  1.00  0.00    -0.363 N 
HETATM    8  N   UNL     1      -7.392   4.314 -29.764  1.00  0.00    -0.181 NA
HETATM    9  C   UNL     1      -7.526   2.995 -29.928  1.00  0.00     0.160 C 
HETATM   10  H   UNL     1      -4.749   3.033 -32.866  1.00  0.00     0.162 HD
ENDROOT
BRANCH   1  11
HETATM   11  C   UNL     1      -6.417   1.037 -31.140  1.00  0.00     0.261 C 
HETATM   12  N   UNL     1      -6.395   0.817 -32.505  1.00  0.00    -0.323 N 
HETATM   13  H   UNL     1      -6.381   1.651 -33.081  1.00  0.00     0.169 HD
HETATM   14  O   UNL     1      -6.302   0.185 -30.268  1.00  0.00    -0.267 OA
BRANCH  12  15
HETATM   15  C   UNL     1      -6.254  -0.416 -33.173  1.00  0.00     0.035 A 
HETATM   16  C   UNL     1      -7.308  -1.099 -33.782  1.00  0.00     0.030 A 
HETATM   17  C   UNL     1      -7.092  -2.334 -34.405  1.00  0.00     0.012 A 
HETATM   18  C   UNL     1      -5.818  -2.915 -34.433  1.00  0.00    -0.030 A 
HETATM   19  C   UNL     1      -4.758  -2.215 -33.842  1.00  0.00     0.012 A 
HETATM   20  C   UNL     1      -4.974  -0.981 -33.218  1.00  0.00     0.030 A 
BRANCH  18  21
HETATM   21  C   UNL     1      -5.615  -4.251 -35.113  1.00  0.00     0.147 C 
HETATM   22  C   UNL     1      -4.689  -5.155 -34.310  1.00  0.00     0.044 C 
BRANCH  21  23
HETATM   23  O   UNL     1      -6.868  -4.909 -35.294  1.00  0.00    -0.391 OA
HETATM   24  H   UNL     1      -7.179  -5.172 -34.412  1.00  0.00     0.210 HD
ENDBRANCH  21  23
ENDBRANCH  18  21
ENDBRANCH  12  15
ENDBRANCH   1  11
BRANCH   4  25
HETATM   25  C   UNL     1      -5.629   6.634 -29.251  1.00  0.00     0.409 C 
HETATM   26  F   UNL     1      -5.141   5.779 -28.324  1.00  0.00    -0.169 F 
HETATM   27  F   UNL     1      -4.718   7.639 -29.364  1.00  0.00    -0.169 F 
HETATM   28  F   UNL     1      -6.750   7.199 -28.760  1.00  0.00    -0.169 F 
ENDBRANCH   4  25
BRANCH   6  29
HETATM   29  C   UNL     1      -3.302   5.202 -33.396  1.00  0.00     0.075 A 
HETATM   30  O   UNL     1      -2.144   5.371 -32.693  1.00  0.00    -0.325 OA
HETATM   31  C   UNL     1      -1.136   5.446 -33.598  1.00  0.00     0.142 A 
HETATM   32  C   UNL     1      -1.627   5.326 -34.877  1.00  0.00     0.027 A 
HETATM   33  C   UNL     1      -3.029   5.169 -34.749  1.00  0.00     0.037 A 
ENDBRANCH   6  29
TORSDOF 6
ENDMDL
MODEL 5
REMARK VINA RESULT:      -8.2      1.724      2.063
REMARK  6 active torsions:
REMARK  status: ('A' for Active; 'I' for Inactive)
REMARK    1  A    between atoms: C_2  and  O_3 
REMARK    2  A    between atoms: C_2  and  C_4 
REMARK    3  A    between atoms: C_7  and  N_8 
REMARK       I    between atoms: N_8  and  C_9 
REMARK    4  A    between atoms: C_9  and  C_10 
REMARK    5  A    between atoms: C_13  and  C_14 
REMARK    6  A    between atoms: C_19  and  C_20 
ROOT
HETATM    1  C   UNL     1      -7.730   1.598 -32.302  1.00  0.00     0.096 C 
HETATM    2  C   UNL     1      -6.809   0.632 -32.666  1.00  0.00     0.138 C 
HETATM    3  N   UNL     1      -5.577   1.137 -32.315  1.00  0.00    -0.240 N 
HETATM    4  C   UNL     1      -4.312   0.467 -32.555  1.00  0.00     0.221 C 
HETATM    5  C   UNL     1      -4.537  -1.009 -32.928  1.00  0.00     0.068 C 
HETATM    6  C   UNL     1      -5.711  -1.144 -33.905  1.00  0.00     0.143 C 
HETATM    7  N   UNL     1      -6.920  -0.588 -33.268  1.00  0.00    -0.363 N 
HETATM    8  N   UNL     1      -5.619   2.419 -31.926  1.00  0.00    -0.181 NA
HETATM    9  C   UNL     1      -6.927   2.687 -31.884  1.00  0.00     0.160 C 
HETATM   10  H   UNL     1      -7.741  -0.746 -33.858  1.00  0.00     0.162 HD
ENDROOT
BRANCH   1  11
HETATM   11  C   UNL     1      -9.182   1.580 -32.357  1.00  0.00     0.261 C 
HETATM   12  N   UNL     1      -9.757   2.827 -32.192  1.00  0.00    -0.323 N 
HETATM   13  H   UNL     1      -9.108   3.603 -32.139  1.00  0.00     0.169 HD
HETATM   14  O   UNL     1      -9.777   0.533 -32.578  1.00  0.00    -0.267 OA
BRANCH  12  15
HETATM   15  C   UNL     1     -11.129   3.151 -32.225  1.00  0.00     0.035 A 
HETATM   16  C   UNL     1     -11.986   2.808 -33.272  1.00  0.00     0.030 A 
HETATM   17  C   UNL     1     -13.333   3.189 -33.244  1.00  0.00     0.012 A 
HETATM   18  C   UNL     1     -13.854   3.921 -32.170  1.00  0.00    -0.030 A 
HETATM   19  C   UNL     1     -12.996   4.243 -31.110  1.00  0.00     0.012 A 
HETATM   20  C   UNL     1     -11.649   3.862 -31.138  1.00  0.00     0.030 A 
BRANCH  18  21
HETATM   21  C   UNL     1     -15.313   4.319 -32.167  1.00  0.00     0.147 C 
HETATM   22  C   UNL     1     -16.226   3.103 -32.064  1.00  0.00     0.044 C 
BRANCH  21  23
HETATM   23  O   UNL     1     -15.584   5.197 -31.076  1.00  0.00    -0.391 OA
HETATM   24  H   UNL     1     -15.693   6.088 -31.450  1.00  0.00     0.210 HD
ENDBRANCH  21  23
ENDBRANCH  18  21
ENDBRANCH  12  15
ENDBRANCH   1  11
BRANCH   4  25
HETATM   25  C   UNL     1      -3.400   0.549 -31.349  1.00  0.00     0.409 C 
HETATM   26  F   UNL     1      -4.040   0.235 -30.200  1.00  0.00    -0.169 F 
HETATM   27  F   UNL     1      -2.387  -0.350 -31.484  1.00  0.00    -0.169 F 
HETATM   28  F   UNL     1      -2.813   1.753 -31.194  1.00  0.00    -0.169 F 
ENDBRANCH   4  25
BRANCH   6  29
HETATM   29  C   UNL     1      -5.861  -2.570 -34.327  1.00  0.00     0.075 A 
HETATM   30  O   UNL     1      -4.741  -3.346 -34.245  1.00  0.00    -0.325 OA
HETATM   31  C   UNL     1      -5.090  -4.593 -34.651  1.00  0.00     0.142 A 
HETATM   32  C   UNL     1      -6.422  -4.632 -34.992  1.00  0.00     0.027 A 
HETATM   33  C   UNL     1      -6.922  -3.324 -34.785  1.00  0.00     0.037 A 
ENDBRANCH   6  29
TORSDOF 6
ENDMDL
MODEL 6
REMARK VINA RESULT:      -8.2      4.646      8.420
REMARK  6 active torsions:
REMARK  status: ('A' for Active; 'I' for Inactive)
REMARK    1  A    between atoms: C_2  and  O_3 
REMARK    2  A    between atoms: C_2  and  C_4 
REMARK    3  A    between atoms: C_7  and  N_8 
REMARK       I    between atoms: N_8  and  C_9 
REMARK    4  A    between atoms: C_9  and  C_10 
REMARK    5  A    between atoms: C_13  and  C_14 
REMARK    6  A    between atoms: C_19  and  C_20 
ROOT
HETATM    1  C   UNL     1      -7.099   3.023 -31.016  1.00  0.00     0.096 C 
HETATM    2  C   UNL     1      -7.436   1.957 -31.831  1.00  0.00     0.138 C 
HETATM    3  N   UNL     1      -8.792   2.064 -32.046  1.00  0.00    -0.240 N 
HETATM    4  C   UNL     1      -9.582   1.122 -32.818  1.00  0.00     0.221 C 
HETATM    5  C   UNL     1      -8.674   0.195 -33.644  1.00  0.00     0.068 C 
HETATM    6  C   UNL     1      -7.473  -0.265 -32.809  1.00  0.00     0.143 C 
HETATM    7  N   UNL     1      -6.722   0.926 -32.368  1.00  0.00    -0.363 N 
HETATM    8  N   UNL     1      -9.378   3.003 -31.290  1.00  0.00    -0.181 NA
HETATM    9  C   UNL     1      -8.347   3.608 -30.693  1.00  0.00     0.160 C 
HETATM   10  H   UNL     1      -5.863   0.650 -31.885  1.00  0.00     0.162 HD
ENDROOT
BRANCH   1  11
HETATM   11  C   UNL     1      -5.800   3.462 -30.533  1.00  0.00     0.261 C 
HETATM   12  N   UNL     1      -5.138   4.300 -31.410  1.00  0.00    -0.323 N 
HETATM   13  H   UNL     1      -5.663   4.573 -32.233  1.00  0.00     0.169 HD
HETATM   14  O   UNL     1      -5.410   3.121 -29.423  1.00  0.00    -0.267 OA
BRANCH  12  15
HETATM   15  C   UNL     1      -3.884   4.919 -31.225  1.00  0.00     0.035 A 
HETATM   16  C   UNL     1      -3.711   6.168 -30.628  1.00  0.00     0.030 A 
HETATM   17  C   UNL     1      -2.434   6.728 -30.504  1.00  0.00     0.012 A 
HETATM   18  C   UNL     1      -1.301   6.052 -30.974  1.00  0.00    -0.030 A 
HETATM   19  C   UNL     1      -1.476   4.788 -31.550  1.00  0.00     0.012 A 
HETATM   20  C   UNL     1      -2.754   4.228 -31.675  1.00  0.00     0.030 A 
BRANCH  18  21
HETATM   21  C   UNL     1       0.066   6.682 -30.825  1.00  0.00     0.147 C 
HETATM   22  C   UNL     1       0.238   7.336 -29.460  1.00  0.00     0.044 C 
BRANCH  21  23
HETATM   23  O   UNL     1       1.085   5.698 -31.001  1.00  0.00    -0.391 OA
HETATM   24  H   UNL     1       1.735   6.071 -31.620  1.00  0.00     0.210 HD
ENDBRANCH  21  23
ENDBRANCH  18  21
ENDBRANCH  12  15
ENDBRANCH   1  11
BRANCH   4  25
HETATM   25  C   UNL     1     -10.550   1.832 -33.741  1.00  0.00     0.409 C 
HETATM   26  F   UNL     1      -9.996   2.914 -34.333  1.00  0.00    -0.169 F 
HETATM   27  F   UNL     1     -10.919   0.991 -34.746  1.00  0.00    -0.169 F 
HETATM   28  F   UNL     1     -11.693   2.216 -33.137  1.00  0.00    -0.169 F 
ENDBRANCH   4  25
BRANCH   6  29
HETATM   29  C   UNL     1      -6.648  -1.234 -33.593  1.00  0.00     0.075 A 
HETATM   30  O   UNL     1      -5.329  -1.319 -33.253  1.00  0.00    -0.325 OA
HETATM   31  C   UNL     1      -4.769  -2.255 -34.061  1.00  0.00     0.142 A 
HETATM   32  C   UNL     1      -5.711  -2.777 -34.917  1.00  0.00     0.027 A 
HETATM   33  C   UNL     1      -6.927  -2.117 -34.616  1.00  0.00     0.037 A 
ENDBRANCH   6  29
TORSDOF 6
ENDMDL
MODEL 7
REMARK VINA RESULT:      -8.2      3.889      7.949
REMARK  6 active torsions:
REMARK  status: ('A' for Active; 'I' for Inactive)
REMARK    1  A    between atoms: C_2  and  O_3 
REMARK    2  A    between atoms: C_2  and  C_4 
REMARK    3  A    between atoms: C_7  and  N_8 
REMARK       I    between atoms: N_8  and  C_9 
REMARK    4  A    between atoms: C_9  and  C_10 
REMARK    5  A    between atoms: C_13  and  C_14 
REMARK    6  A    between atoms: C_19  and  C_20 
ROOT
HETATM    1  C   UNL     1      -8.504   2.179 -32.727  1.00  0.00     0.096 C 
HETATM    2  C   UNL     1      -7.835   3.374 -32.918  1.00  0.00     0.138 C 
HETATM    3  N   UNL     1      -8.784   4.362 -32.778  1.00  0.00    -0.240 N 
HETATM    4  C   UNL     1      -8.529   5.781 -32.942  1.00  0.00     0.221 C 
HETATM    5  C   UNL     1      -7.018   6.068 -32.948  1.00  0.00     0.068 C 
HETATM    6  C   UNL     1      -6.274   5.020 -33.785  1.00  0.00     0.143 C 
HETATM    7  N   UNL     1      -6.540   3.686 -33.214  1.00  0.00    -0.363 N 
HETATM    8  N   UNL     1     -10.035   3.888 -32.694  1.00  0.00    -0.181 NA
HETATM    9  C   UNL     1      -9.862   2.565 -32.627  1.00  0.00     0.160 C 
HETATM   10  H   UNL     1      -5.984   2.973 -33.694  1.00  0.00     0.162 HD
ENDROOT
BRANCH   1  11
HETATM   11  C   UNL     1      -7.998   0.816 -32.678  1.00  0.00     0.261 C 
HETATM   12  N   UNL     1      -7.141   0.507 -33.717  1.00  0.00    -0.323 N 
HETATM   13  H   UNL     1      -6.903   1.278 -34.330  1.00  0.00     0.169 HD
HETATM   14  O   UNL     1      -8.307   0.079 -31.750  1.00  0.00    -0.267 OA
BRANCH  12  15
HETATM   15  C   UNL     1      -6.463  -0.709 -33.937  1.00  0.00     0.035 A 
HETATM   16  C   UNL     1      -7.037  -1.824 -34.549  1.00  0.00     0.030 A 
HETATM   17  C   UNL     1      -6.305  -3.007 -34.708  1.00  0.00     0.012 A 
HETATM   18  C   UNL     1      -4.983  -3.103 -34.257  1.00  0.00    -0.030 A 
HETATM   19  C   UNL     1      -4.402  -1.974 -33.664  1.00  0.00     0.012 A 
HETATM   20  C   UNL     1      -5.134  -0.792 -33.505  1.00  0.00     0.030 A 
BRANCH  18  21
HETATM   21  C   UNL     1      -4.216  -4.394 -34.443  1.00  0.00     0.147 C 
HETATM   22  C   UNL     1      -3.406  -4.749 -33.202  1.00  0.00     0.044 C 
BRANCH  21  23
HETATM   23  O   UNL     1      -5.113  -5.464 -34.735  1.00  0.00    -0.391 OA
HETATM   24  H   UNL     1      -5.925  -5.300 -34.227  1.00  0.00     0.210 HD
ENDBRANCH  21  23
ENDBRANCH  18  21
ENDBRANCH  12  15
ENDBRANCH   1  11
BRANCH   4  25
HETATM   25  C   UNL     1      -9.193   6.596 -31.852  1.00  0.00     0.409 C 
HETATM   26  F   UNL     1     -10.497   6.839 -32.115  1.00  0.00    -0.169 F 
HETATM   27  F   UNL     1      -9.158   5.903 -30.681  1.00  0.00    -0.169 F 
HETATM   28  F   UNL     1      -8.583   7.773 -31.607  1.00  0.00    -0.169 F 
ENDBRANCH   4  25
BRANCH   6  29
HETATM   29  C   UNL     1      -4.821   5.361 -33.855  1.00  0.00     0.075 A 
HETATM   30  O   UNL     1      -4.221   5.208 -35.071  1.00  0.00    -0.325 OA
HETATM   31  C   UNL     1      -2.925   5.583 -34.926  1.00  0.00     0.142 A 
HETATM   32  C   UNL     1      -2.681   5.978 -33.631  1.00  0.00     0.027 A 
HETATM   33  C   UNL     1      -3.906   5.834 -32.936  1.00  0.00     0.037 A 
ENDBRANCH   6  29
TORSDOF 6
ENDMDL
MODEL 8
REMARK VINA RESULT:      -8.0     14.613     16.627
REMARK  6 active torsions:
REMARK  status: ('A' for Active; 'I' for Inactive)
REMARK    1  A    between atoms: C_2  and  O_3 
REMARK    2  A    between atoms: C_2  and  C_4 
REMARK    3  A    between atoms: C_7  and  N_8 
REMARK       I    between atoms: N_8  and  C_9 
REMARK    4  A    between atoms: C_9  and  C_10 
REMARK    5  A    between atoms: C_13  and  C_14 
REMARK    6  A    between atoms: C_19  and  C_20 
ROOT
HETATM    1  C   UNL     1      -5.308 -13.790 -35.866  1.00  0.00     0.096 C 
HETATM    2  C   UNL     1      -5.877 -13.466 -37.084  1.00  0.00     0.138 C 
HETATM    3  N   UNL     1      -4.823 -13.214 -37.934  1.00  0.00    -0.240 N 
HETATM    4  C   UNL     1      -4.961 -12.794 -39.317  1.00  0.00     0.221 C 
HETATM    5  C   UNL     1      -6.404 -12.998 -39.809  1.00  0.00     0.068 C 
HETATM    6  C   UNL     1      -7.407 -12.558 -38.736  1.00  0.00     0.143 C 
HETATM    7  N   UNL     1      -7.166 -13.349 -37.514  1.00  0.00    -0.363 N 
HETATM    8  N   UNL     1      -3.636 -13.172 -37.313  1.00  0.00    -0.181 NA
HETATM    9  C   UNL     1      -3.925 -13.556 -36.066  1.00  0.00     0.160 C 
HETATM   10  H   UNL     1      -7.878 -13.144 -36.808  1.00  0.00     0.162 HD
ENDROOT
BRANCH   1  11
HETATM   11  C   UNL     1      -5.928 -14.226 -34.625  1.00  0.00     0.261 C 
HETATM   12  N   UNL     1      -5.214 -15.209 -33.965  1.00  0.00    -0.323 N 
HETATM   13  H   UNL     1      -4.316 -15.443 -34.372  1.00  0.00     0.169 HD
HETATM   14  O   UNL     1      -6.962 -13.698 -34.236  1.00  0.00    -0.267 OA
BRANCH  12  15
HETATM   15  C   UNL     1      -5.527 -15.814 -32.731  1.00  0.00     0.035 A 
HETATM   16  C   UNL     1      -6.405 -16.890 -32.590  1.00  0.00     0.030 A 
HETATM   17  C   UNL     1      -6.685 -17.421 -31.325  1.00  0.00     0.012 A 
HETATM   18  C   UNL     1      -6.094 -16.888 -30.172  1.00  0.00    -0.030 A 
HETATM   19  C   UNL     1      -5.195 -15.824 -30.320  1.00  0.00     0.012 A 
HETATM   20  C   UNL     1      -4.916 -15.293 -31.585  1.00  0.00     0.030 A 
BRANCH  18  21
HETATM   21  C   UNL     1      -6.416 -17.482 -28.819  1.00  0.00     0.147 C 
HETATM   22  C   UNL     1      -5.206 -17.455 -27.893  1.00  0.00     0.044 C 
BRANCH  21  23
HETATM   23  O   UNL     1      -7.487 -16.766 -28.206  1.00  0.00    -0.391 OA
HETATM   24  H   UNL     1      -7.764 -16.078 -28.834  1.00  0.00     0.210 HD
ENDBRANCH  21  23
ENDBRANCH  18  21
ENDBRANCH  12  15
ENDBRANCH   1  11
BRANCH   4  25
HETATM   25  C   UNL     1      -4.007 -13.541 -40.225  1.00  0.00     0.409 C 
HETATM   26  F   UNL     1      -2.713 -13.253 -39.959  1.00  0.00    -0.169 F 
HETATM   27  F   UNL     1      -4.151 -14.881 -40.030  1.00  0.00    -0.169 F 
HETATM   28  F   UNL     1      -4.229 -13.329 -41.537  1.00  0.00    -0.169 F 
ENDBRANCH   4  25
BRANCH   6  29
HETATM   29  C   UNL     1      -8.800 -12.679 -39.261  1.00  0.00     0.075 A 
HETATM   30  O   UNL     1      -9.208 -11.704 -40.124  1.00  0.00    -0.325 OA
HETATM   31  C   UNL     1     -10.480 -12.005 -40.493  1.00  0.00     0.142 A 
HETATM   32  C   UNL     1     -10.897 -13.163 -39.880  1.00  0.00     0.027 A 
HETATM   33  C   UNL     1      -9.812 -13.600 -39.081  1.00  0.00     0.037 A 
ENDBRANCH   6  29
TORSDOF 6
ENDMDL
MODEL 9
REMARK VINA RESULT:      -8.0      2.453      3.065
REMARK  6 active torsions:
REMARK  status: ('A' for Active; 'I' for Inactive)
REMARK    1  A    between atoms: C_2  and  O_3 
REMARK    2  A    between atoms: C_2  and  C_4 
REMARK    3  A    between atoms: C_7  and  N_8 
REMARK       I    between atoms: N_8  and  C_9 
REMARK    4  A    between atoms: C_9  and  C_10 
REMARK    5  A    between atoms: C_13  and  C_14 
REMARK    6  A    between atoms: C_19  and  C_20 
ROOT
HETATM    1  C   UNL     1      -7.134   2.381 -33.522  1.00  0.00     0.096 C 
HETATM    2  C   UNL     1      -6.391   1.215 -33.478  1.00  0.00     0.138 C 
HETATM    3  N   UNL     1      -5.220   1.542 -32.830  1.00  0.00    -0.240 N 
HETATM    4  C   UNL     1      -4.122   0.622 -32.598  1.00  0.00     0.221 C 
HETATM    5  C   UNL     1      -4.562  -0.831 -32.851  1.00  0.00     0.068 C 
HETATM    6  C   UNL     1      -5.425  -0.919 -34.115  1.00  0.00     0.143 C 
HETATM    7  N   UNL     1      -6.604  -0.050 -33.942  1.00  0.00    -0.363 N 
HETATM    8  N   UNL     1      -5.077   2.858 -32.621  1.00  0.00    -0.181 NA
HETATM    9  C   UNL     1      -6.252   3.362 -33.008  1.00  0.00     0.160 C 
HETATM   10  H   UNL     1      -7.247  -0.157 -34.730  1.00  0.00     0.162 HD
ENDROOT
BRANCH   1  11
HETATM   11  C   UNL     1      -8.482   2.618 -34.012  1.00  0.00     0.261 C 
HETATM   12  N   UNL     1      -8.837   3.954 -34.032  1.00  0.00    -0.323 N 
HETATM   13  H   UNL     1      -8.098   4.604 -33.789  1.00  0.00     0.169 HD
HETATM   14  O   UNL     1      -9.170   1.681 -34.398  1.00  0.00    -0.267 OA
BRANCH  12  15
HETATM   15  C   UNL     1     -10.051   4.513 -34.478  1.00  0.00     0.035 A 
HETATM   16  C   UNL     1     -11.273   3.839 -34.462  1.00  0.00     0.030 A 
HETATM   17  C   UNL     1     -12.433   4.454 -34.948  1.00  0.00     0.012 A 
HETATM   18  C   UNL     1     -12.399   5.757 -35.461  1.00  0.00    -0.030 A 
HETATM   19  C   UNL     1     -11.175   6.439 -35.453  1.00  0.00     0.012 A 
HETATM   20  C   UNL     1     -10.015   5.823 -34.968  1.00  0.00     0.030 A 
BRANCH  18  21
HETATM   21  C   UNL     1     -13.668   6.396 -35.978  1.00  0.00     0.147 C 
HETATM   22  C   UNL     1     -14.493   7.000 -34.849  1.00  0.00     0.044 C 
BRANCH  21  23
HETATM   23  O   UNL     1     -13.357   7.417 -36.925  1.00  0.00    -0.391 OA
HETATM   24  H   UNL     1     -12.720   8.014 -36.499  1.00  0.00     0.210 HD
ENDBRANCH  21  23
ENDBRANCH  18  21
ENDBRANCH  12  15
ENDBRANCH   1  11
BRANCH   4  25
HETATM   25  C   UNL     1      -3.578   0.747 -31.190  1.00  0.00     0.409 C 
HETATM   26  F   UNL     1      -2.896   1.899 -31.004  1.00  0.00    -0.169 F 
HETATM   27  F   UNL     1      -4.612   0.763 -30.304  1.00  0.00    -0.169 F 
HETATM   28  F   UNL     1      -2.786  -0.280 -30.821  1.00  0.00    -0.169 F 
ENDBRANCH   4  25
BRANCH   6  29
HETATM   29  C   UNL     1      -5.770  -2.346 -34.397  1.00  0.00     0.075 A 
HETATM   30  O   UNL     1      -4.726  -3.222 -34.447  1.00  0.00    -0.325 OA
HETATM   31  C   UNL     1      -5.249  -4.451 -34.693  1.00  0.00     0.142 A 
HETATM   32  C   UNL     1      -6.618  -4.378 -34.800  1.00  0.00     0.027 A 
HETATM   33  C   UNL     1      -6.958  -3.017 -34.610  1.00  0.00     0.037 A 
ENDBRANCH   6  29
TORSDOF 6
ENDMDL
MODEL 10
REMARK VINA RESULT:      -7.9      3.288      7.736
REMARK  6 active torsions:
REMARK  status: ('A' for Active; 'I' for Inactive)
REMARK    1  A    between atoms: C_2  and  O_3 
REMARK    2  A    between atoms: C_2  and  C_4 
REMARK    3  A    between atoms: C_7  and  N_8 
REMARK       I    between atoms: N_8  and  C_9 
REMARK    4  A    between atoms: C_9  and  C_10 
REMARK    5  A    between atoms: C_13  and  C_14 
REMARK    6  A    between atoms: C_19  and  C_20 
ROOT
HETATM    1  C   UNL     1      -6.466   2.623 -31.171  1.00  0.00     0.096 C 
HETATM    2  C   UNL     1      -7.539   3.456 -31.427  1.00  0.00     0.138 C 
HETATM    3  N   UNL     1      -7.119   4.724 -31.089  1.00  0.00    -0.240 N 
HETATM    4  C   UNL     1      -7.947   5.914 -31.160  1.00  0.00     0.221 C 
HETATM    5  C   UNL     1      -9.222   5.645 -31.977  1.00  0.00     0.068 C 
HETATM    6  C   UNL     1      -9.816   4.279 -31.613  1.00  0.00     0.143 C 
HETATM    7  N   UNL     1      -8.806   3.239 -31.885  1.00  0.00    -0.363 N 
HETATM    8  N   UNL     1      -5.931   4.742 -30.468  1.00  0.00    -0.181 NA
HETATM    9  C   UNL     1      -5.520   3.473 -30.549  1.00  0.00     0.160 C 
HETATM   10  H   UNL     1      -9.203   2.307 -31.740  1.00  0.00     0.162 HD
ENDROOT
BRANCH   1  11
HETATM   11  C   UNL     1      -6.303   1.198 -31.412  1.00  0.00     0.261 C 
HETATM   12  N   UNL     1      -6.202   0.872 -32.752  1.00  0.00    -0.323 N 
HETATM   13  H   UNL     1      -6.167   1.658 -33.390  1.00  0.00     0.169 HD
HETATM   14  O   UNL     1      -6.226   0.420 -30.470  1.00  0.00    -0.267 OA
BRANCH  12  15
HETATM   15  C   UNL     1      -6.007  -0.407 -33.311  1.00  0.00     0.035 A 
HETATM   16  C   UNL     1      -4.758  -1.013 -33.454  1.00  0.00     0.030 A 
HETATM   17  C   UNL     1      -4.643  -2.278 -34.044  1.00  0.00     0.012 A 
HETATM   18  C   UNL     1      -5.773  -2.964 -34.506  1.00  0.00    -0.030 A 
HETATM   19  C   UNL     1      -7.028  -2.362 -34.339  1.00  0.00     0.012 A 
HETATM   20  C   UNL     1      -7.142  -1.098 -33.749  1.00  0.00     0.030 A 
BRANCH  18  21
HETATM   21  C   UNL     1      -5.619  -4.329 -35.139  1.00  0.00     0.147 C 
HETATM   22  C   UNL     1      -4.695  -5.225 -34.324  1.00  0.00     0.044 C 
BRANCH  21  23
HETATM   23  O   UNL     1      -6.891  -4.963 -35.264  1.00  0.00    -0.391 OA
HETATM   24  H   UNL     1      -7.529  -4.272 -35.507  1.00  0.00     0.210 HD
ENDBRANCH  21  23
ENDBRANCH  18  21
ENDBRANCH  12  15
ENDBRANCH   1  11
BRANCH   4  25
HETATM   25  C   UNL     1      -7.195   7.080 -31.767  1.00  0.00     0.409 C 
HETATM   26  F   UNL     1      -6.379   6.696 -32.774  1.00  0.00    -0.169 F 
HETATM   27  F   UNL     1      -8.082   7.961 -32.305  1.00  0.00    -0.169 F 
HETATM   28  F   UNL     1      -6.468   7.781 -30.874  1.00  0.00    -0.169 F 
ENDBRANCH   4  25
BRANCH   6  29
HETATM   29  C   UNL     1     -11.100   4.070 -32.348  1.00  0.00     0.075 A 
HETATM   30  O   UNL     1     -11.346   2.802 -32.788  1.00  0.00    -0.325 OA
HETATM   31  C   UNL     1     -12.555   2.822 -33.406  1.00  0.00     0.142 A 
HETATM   32  C   UNL     1     -13.093   4.087 -33.368  1.00  0.00     0.027 A 
HETATM   33  C   UNL     1     -12.153   4.897 -32.685  1.00  0.00     0.037 A 
ENDBRANCH   6  29
TORSDOF 6
ENDMDL
