MODEL 1
REMARK VINA RESULT:      -9.5      0.000      0.000
REMARK  5 active torsions:
REMARK  status: ('A' for Active; 'I' for Inactive)
REMARK    1  A    between atoms: C_3  and  N_4 
REMARK       I    between atoms: N_4  and  C_5 
REMARK    2  A    between atoms: C_9  and  N_10 
REMARK       I    between atoms: N_10  and  C_11 
REMARK    3  A    between atoms: C_11  and  C_12 
REMARK    4  A    between atoms: C_17  and  C_18 
REMARK    5  A    between atoms: C_24  and  C_25 
ROOT
HETATM    1  C   UNL     1      -4.540   2.350 -31.898  1.00  0.00     0.148 A 
HETATM    2  N   UNL     1      -5.849   2.128 -32.162  1.00  0.00    -0.165 NA
HETATM    3  N   UNL     1      -5.839   0.953 -32.819  1.00  0.00    -0.240 N 
HETATM    4  C   UNL     1      -4.595   0.403 -32.958  1.00  0.00     0.123 A 
HETATM    5  N   UNL     1      -4.414  -0.796 -33.552  1.00  0.00    -0.364 N 
HETATM    6  C   UNL     1      -5.508  -1.450 -34.274  1.00  0.00     0.143 C 
HETATM    7  C   UNL     1      -6.831  -1.176 -33.533  1.00  0.00     0.068 C 
HETATM    8  C   UNL     1      -7.057   0.333 -33.311  1.00  0.00     0.221 C 
HETATM    9  C   UNL     1      -3.727   1.286 -32.377  1.00  0.00     0.089 A 
HETATM   10  H   UNL     1      -3.481  -1.081 -33.849  1.00  0.00     0.162 HD
ENDROOT
BRANCH   1  11
HETATM   11  C   UNL     1      -4.070   3.564 -31.207  1.00  0.00     0.276 C 
HETATM   12  N   UNL     1      -2.731   3.810 -31.440  1.00  0.00    -0.322 N 
HETATM   13  H   UNL     1      -2.292   3.123 -32.049  1.00  0.00     0.169 HD
HETATM   14  O   UNL     1      -4.825   4.228 -30.504  1.00  0.00    -0.266 OA
BRANCH  12  15
HETATM   15  C   UNL     1      -1.927   4.833 -30.904  1.00  0.00     0.037 A 
HETATM   16  C   UNL     1      -2.375   6.134 -30.673  1.00  0.00     0.059 A 
HETATM   17  C   UNL     1      -1.548   7.119 -30.094  1.00  0.00     0.042 A 
HETATM   18  C   UNL     1      -0.208   6.805 -29.815  1.00  0.00    -0.035 A 
HETATM   19  C   UNL     1       0.823   7.785 -29.330  1.00  0.00     0.050 C 
HETATM   20  C   UNL     1       0.232   5.486 -30.037  1.00  0.00     0.011 A 
HETATM   21  C   UNL     1      -0.614   4.513 -30.574  1.00  0.00     0.030 A 
BRANCH  17  22
HETATM   22  N   UNL     1      -2.177   8.373 -29.898  1.00  0.00    -0.327 N 
HETATM   23  C   UNL     1      -2.410   9.368 -30.828  1.00  0.00     0.218 C 
HETATM   24  C   UNL     1      -3.161  10.533 -30.231  1.00  0.00     0.117 C 
HETATM   25  O   UNL     1      -2.068   9.383 -32.003  1.00  0.00    -0.274 OA
HETATM   26  H   UNL     1      -2.232   8.674 -28.932  1.00  0.00     0.169 HD
ENDBRANCH  17  22
ENDBRANCH  12  15
ENDBRANCH   1  11
BRANCH   8  27
HETATM   27  C   UNL     1      -7.515   1.033 -34.572  1.00  0.00     0.409 C 
HETATM   28  F   UNL     1      -8.462   1.967 -34.333  1.00  0.00    -0.169 F 
HETATM   29  F   UNL     1      -6.507   1.628 -35.243  1.00  0.00    -0.169 F 
HETATM   30  F   UNL     1      -8.072   0.133 -35.423  1.00  0.00    -0.169 F 
ENDBRANCH   8  27
BRANCH   6  31
HETATM   31  C   UNL     1      -5.301  -2.926 -34.422  1.00  0.00     0.075 A 
HETATM   32  O   UNL     1      -4.154  -3.437 -33.889  1.00  0.00    -0.325 OA
HETATM   33  C   UNL     1      -4.175  -4.777 -34.113  1.00  0.00     0.142 A 
HETATM   34  C   UNL     1      -5.317  -5.134 -34.791  1.00  0.00     0.027 A 
HETATM   35  C   UNL     1      -6.046  -3.938 -34.995  1.00  0.00     0.037 A 
ENDBRANCH   6  31
TORSDOF 5
ENDMDL
MODEL 2
REMARK VINA RESULT:      -9.4      2.951      4.227
REMARK  5 active torsions:
REMARK  status: ('A' for Active; 'I' for Inactive)
REMARK    1  A    between atoms: C_3  and  N_4 
REMARK       I    between atoms: N_4  and  C_5 
REMARK    2  A    between atoms: C_9  and  N_10 
REMARK       I    between atoms: N_10  and  C_11 
REMARK    3  A    between atoms: C_11  and  C_12 
REMARK    4  A    between atoms: C_17  and  C_18 
REMARK    5  A    between atoms: C_24  and  C_25 
ROOT
HETATM    1  C   UNL     1      -6.544   2.992 -31.450  1.00  0.00     0.148 A 
HETATM    2  N   UNL     1      -6.291   2.307 -32.590  1.00  0.00    -0.165 NA
HETATM    3  N   UNL     1      -7.464   1.702 -32.856  1.00  0.00    -0.240 N 
HETATM    4  C   UNL     1      -8.456   1.992 -31.961  1.00  0.00     0.123 A 
HETATM    5  N   UNL     1      -9.706   1.503 -32.108  1.00  0.00    -0.364 N 
HETATM    6  C   UNL     1      -9.996   0.463 -33.098  1.00  0.00     0.143 C 
HETATM    7  C   UNL     1      -9.139   0.716 -34.354  1.00  0.00     0.068 C 
HETATM    8  C   UNL     1      -7.642   0.836 -34.008  1.00  0.00     0.221 C 
HETATM    9  C   UNL     1      -7.893   2.823 -31.031  1.00  0.00     0.089 A 
HETATM   10  H   UNL     1     -10.361   1.539 -31.327  1.00  0.00     0.162 HD
ENDROOT
BRANCH   1  11
HETATM   11  C   UNL     1      -5.512   3.790 -30.764  1.00  0.00     0.276 C 
HETATM   12  N   UNL     1      -4.523   4.218 -31.630  1.00  0.00    -0.322 N 
HETATM   13  H   UNL     1      -4.670   3.918 -32.592  1.00  0.00     0.169 HD
HETATM   14  O   UNL     1      -5.569   4.002 -29.558  1.00  0.00    -0.266 OA
BRANCH  12  15
HETATM   15  C   UNL     1      -3.356   4.943 -31.330  1.00  0.00     0.037 A 
HETATM   16  C   UNL     1      -3.357   6.243 -30.821  1.00  0.00     0.059 A 
HETATM   17  C   UNL     1      -2.163   6.919 -30.494  1.00  0.00     0.042 A 
HETATM   18  C   UNL     1      -0.933   6.297 -30.761  1.00  0.00    -0.035 A 
HETATM   19  C   UNL     1       0.412   6.946 -30.596  1.00  0.00     0.050 C 
HETATM   20  C   UNL     1      -0.941   4.980 -31.260  1.00  0.00     0.011 A 
HETATM   21  C   UNL     1      -2.134   4.311 -31.541  1.00  0.00     0.030 A 
BRANCH  17  22
HETATM   22  N   UNL     1      -2.352   8.215 -29.956  1.00  0.00    -0.327 N 
HETATM   23  C   UNL     1      -2.340   9.427 -30.619  1.00  0.00     0.218 C 
HETATM   24  C   UNL     1      -2.638  10.581 -29.693  1.00  0.00     0.117 C 
HETATM   25  O   UNL     1      -2.109   9.624 -31.805  1.00  0.00    -0.274 OA
HETATM   26  H   UNL     1      -2.230   8.280 -28.952  1.00  0.00     0.169 HD
ENDBRANCH  17  22
ENDBRANCH  12  15
ENDBRANCH   1  11
BRANCH   8  27
HETATM   27  C   UNL     1      -7.009  -0.511 -33.739  1.00  0.00     0.409 C 
HETATM   28  F   UNL     1      -6.963  -0.811 -32.423  1.00  0.00    -0.169 F 
HETATM   29  F   UNL     1      -7.633  -1.526 -34.373  1.00  0.00    -0.169 F 
HETATM   30  F   UNL     1      -5.722  -0.511 -34.176  1.00  0.00    -0.169 F 
ENDBRANCH   8  27
BRANCH   6  31
HETATM   31  C   UNL     1     -11.445   0.405 -33.469  1.00  0.00     0.075 A 
HETATM   32  O   UNL     1     -12.119  -0.729 -33.122  1.00  0.00    -0.325 OA
HETATM   33  C   UNL     1     -13.405  -0.567 -33.528  1.00  0.00     0.142 A 
HETATM   34  C   UNL     1     -13.566   0.654 -34.140  1.00  0.00     0.027 A 
HETATM   35  C   UNL     1     -12.299   1.284 -34.105  1.00  0.00     0.037 A 
ENDBRANCH   6  31
TORSDOF 5
ENDMDL
MODEL 3
REMARK VINA RESULT:      -9.3      1.343      2.352
REMARK  5 active torsions:
REMARK  status: ('A' for Active; 'I' for Inactive)
REMARK    1  A    between atoms: C_3  and  N_4 
REMARK       I    between atoms: N_4  and  C_5 
REMARK    2  A    between atoms: C_9  and  N_10 
REMARK       I    between atoms: N_10  and  C_11 
REMARK    3  A    between atoms: C_11  and  C_12 
REMARK    4  A    between atoms: C_17  and  C_18 
REMARK    5  A    between atoms: C_24  and  C_25 
ROOT
HETATM    1  C   UNL     1      -5.241   2.405 -31.832  1.00  0.00     0.148 A 
HETATM    2  N   UNL     1      -6.474   2.028 -32.243  1.00  0.00    -0.165 NA
HETATM    3  N   UNL     1      -6.252   0.850 -32.856  1.00  0.00    -0.240 N 
HETATM    4  C   UNL     1      -4.946   0.445 -32.826  1.00  0.00     0.123 A 
HETATM    5  N   UNL     1      -4.560  -0.736 -33.355  1.00  0.00    -0.364 N 
HETATM    6  C   UNL     1      -5.477  -1.526 -34.181  1.00  0.00     0.143 C 
HETATM    7  C   UNL     1      -6.903  -1.392 -33.613  1.00  0.00     0.068 C 
HETATM    8  C   UNL     1      -7.322   0.084 -33.469  1.00  0.00     0.221 C 
HETATM    9  C   UNL     1      -4.260   1.433 -32.175  1.00  0.00     0.089 A 
HETATM   10  H   UNL     1      -3.572  -0.917 -33.529  1.00  0.00     0.162 HD
ENDROOT
BRANCH   1  11
HETATM   11  C   UNL     1      -4.998   3.677 -31.129  1.00  0.00     0.276 C 
HETATM   12  N   UNL     1      -4.151   4.510 -31.836  1.00  0.00    -0.322 N 
HETATM   13  H   UNL     1      -3.839   4.114 -32.720  1.00  0.00     0.169 HD
HETATM   14  O   UNL     1      -5.505   3.907 -30.036  1.00  0.00    -0.266 OA
BRANCH  12  15
HETATM   15  C   UNL     1      -3.648   5.767 -31.456  1.00  0.00     0.037 A 
HETATM   16  C   UNL     1      -2.476   5.947 -30.720  1.00  0.00     0.059 A 
HETATM   17  C   UNL     1      -1.985   7.229 -30.396  1.00  0.00     0.042 A 
HETATM   18  C   UNL     1      -2.738   8.357 -30.755  1.00  0.00    -0.035 A 
HETATM   19  C   UNL     1      -2.413   9.770 -30.359  1.00  0.00     0.050 C 
HETATM   20  C   UNL     1      -3.912   8.169 -31.511  1.00  0.00     0.011 A 
HETATM   21  C   UNL     1      -4.362   6.893 -31.857  1.00  0.00     0.030 A 
BRANCH  17  22
HETATM   22  N   UNL     1      -0.764   7.225 -29.677  1.00  0.00    -0.327 N 
HETATM   23  C   UNL     1      -0.577   7.183 -28.309  1.00  0.00     0.218 C 
HETATM   24  C   UNL     1       0.885   7.138 -27.940  1.00  0.00     0.117 C 
HETATM   25  O   UNL     1      -1.439   7.196 -27.440  1.00  0.00    -0.274 OA
HETATM   26  H   UNL     1       0.041   7.540 -30.206  1.00  0.00     0.169 HD
ENDBRANCH  17  22
ENDBRANCH  12  15
ENDBRANCH   1  11
BRANCH   8  27
HETATM   27  C   UNL     1      -7.698   0.703 -34.798  1.00  0.00     0.409 C 
HETATM   28  F   UNL     1      -8.114  -0.213 -35.699  1.00  0.00    -0.169 F 
HETATM   29  F   UNL     1      -8.660   1.643 -34.691  1.00  0.00    -0.169 F 
HETATM   30  F   UNL     1      -6.615   1.314 -35.345  1.00  0.00    -0.169 F 
ENDBRANCH   8  27
BRANCH   6  31
HETATM   31  C   UNL     1      -5.089  -2.970 -34.256  1.00  0.00     0.075 A 
HETATM   32  O   UNL     1      -3.905  -3.314 -33.672  1.00  0.00    -0.325 OA
HETATM   33  C   UNL     1      -3.758  -4.655 -33.834  1.00  0.00     0.142 A 
HETATM   34  C   UNL     1      -4.828  -5.177 -34.521  1.00  0.00     0.027 A 
HETATM   35  C   UNL     1      -5.689  -4.089 -34.798  1.00  0.00     0.037 A 
ENDBRANCH   6  31
TORSDOF 5
ENDMDL
MODEL 4
REMARK VINA RESULT:      -9.3      3.903      9.784
REMARK  5 active torsions:
REMARK  status: ('A' for Active; 'I' for Inactive)
REMARK    1  A    between atoms: C_3  and  N_4 
REMARK       I    between atoms: N_4  and  C_5 
REMARK    2  A    between atoms: C_9  and  N_10 
REMARK       I    between atoms: N_10  and  C_11 
REMARK    3  A    between atoms: C_11  and  C_12 
REMARK    4  A    between atoms: C_17  and  C_18 
REMARK    5  A    between atoms: C_24  and  C_25 
ROOT
HETATM    1  C   UNL     1      -4.125   3.347 -32.236  1.00  0.00     0.148 A 
HETATM    2  N   UNL     1      -3.004   3.551 -32.967  1.00  0.00    -0.165 NA
HETATM    3  N   UNL     1      -2.394   4.565 -32.324  1.00  0.00    -0.240 N 
HETATM    4  C   UNL     1      -3.053   4.991 -31.205  1.00  0.00     0.123 A 
HETATM    5  N   UNL     1      -2.553   5.968 -30.419  1.00  0.00    -0.364 N 
HETATM    6  C   UNL     1      -1.404   6.768 -30.852  1.00  0.00     0.143 C 
HETATM    7  C   UNL     1      -0.430   5.862 -31.631  1.00  0.00     0.068 C 
HETATM    8  C   UNL     1      -1.137   5.126 -32.785  1.00  0.00     0.221 C 
HETATM    9  C   UNL     1      -4.184   4.226 -31.120  1.00  0.00     0.089 A 
HETATM   10  H   UNL     1      -3.152   6.426 -29.732  1.00  0.00     0.162 HD
ENDROOT
BRANCH   1  11
HETATM   11  C   UNL     1      -5.129   2.331 -32.600  1.00  0.00     0.276 C 
HETATM   12  N   UNL     1      -6.418   2.825 -32.529  1.00  0.00    -0.322 N 
HETATM   13  H   UNL     1      -6.463   3.800 -32.243  1.00  0.00     0.169 HD
HETATM   14  O   UNL     1      -4.799   1.190 -32.905  1.00  0.00    -0.266 OA
BRANCH  12  15
HETATM   15  C   UNL     1      -7.627   2.138 -32.743  1.00  0.00     0.037 A 
HETATM   16  C   UNL     1      -8.576   2.512 -33.696  1.00  0.00     0.059 A 
HETATM   17  C   UNL     1      -9.757   1.770 -33.907  1.00  0.00     0.042 A 
HETATM   18  C   UNL     1     -10.025   0.668 -33.081  1.00  0.00    -0.035 A 
HETATM   19  C   UNL     1     -11.300  -0.129 -33.096  1.00  0.00     0.050 C 
HETATM   20  C   UNL     1      -9.056   0.288 -32.132  1.00  0.00     0.011 A 
HETATM   21  C   UNL     1      -7.874   1.011 -31.964  1.00  0.00     0.030 A 
BRANCH  17  22
HETATM   22  N   UNL     1     -10.589   2.272 -34.938  1.00  0.00    -0.327 N 
HETATM   23  C   UNL     1     -11.723   3.052 -34.818  1.00  0.00     0.218 C 
HETATM   24  C   UNL     1     -12.295   3.426 -36.164  1.00  0.00     0.117 C 
HETATM   25  O   UNL     1     -12.267   3.421 -33.786  1.00  0.00    -0.274 OA
HETATM   26  H   UNL     1     -10.488   1.804 -35.831  1.00  0.00     0.169 HD
ENDBRANCH  17  22
ENDBRANCH  12  15
ENDBRANCH   1  11
BRANCH   8  27
HETATM   27  C   UNL     1      -1.384   6.030 -33.973  1.00  0.00     0.409 C 
HETATM   28  F   UNL     1      -1.135   5.420 -35.152  1.00  0.00    -0.169 F 
HETATM   29  F   UNL     1      -2.643   6.515 -34.016  1.00  0.00    -0.169 F 
HETATM   30  F   UNL     1      -0.555   7.105 -33.915  1.00  0.00    -0.169 F 
ENDBRANCH   8  27
BRANCH   6  31
HETATM   31  C   UNL     1      -0.692   7.423 -29.710  1.00  0.00     0.075 A 
HETATM   32  O   UNL     1      -1.461   8.147 -28.846  1.00  0.00    -0.325 OA
HETATM   33  C   UNL     1      -0.631   8.631 -27.886  1.00  0.00     0.142 A 
HETATM   34  C   UNL     1       0.664   8.235 -28.124  1.00  0.00     0.027 A 
HETATM   35  C   UNL     1       0.628   7.455 -29.304  1.00  0.00     0.037 A 
ENDBRANCH   6  31
TORSDOF 5
ENDMDL
MODEL 5
REMARK VINA RESULT:      -8.7      2.003      2.985
REMARK  5 active torsions:
REMARK  status: ('A' for Active; 'I' for Inactive)
REMARK    1  A    between atoms: C_3  and  N_4 
REMARK       I    between atoms: N_4  and  C_5 
REMARK    2  A    between atoms: C_9  and  N_10 
REMARK       I    between atoms: N_10  and  C_11 
REMARK    3  A    between atoms: C_11  and  C_12 
REMARK    4  A    between atoms: C_17  and  C_18 
REMARK    5  A    between atoms: C_24  and  C_25 
ROOT
HETATM    1  C   UNL     1      -3.634   3.255 -31.533  1.00  0.00     0.148 A 
HETATM    2  N   UNL     1      -4.621   2.777 -30.739  1.00  0.00    -0.165 NA
HETATM    3  N   UNL     1      -5.114   1.742 -31.446  1.00  0.00    -0.240 N 
HETATM    4  C   UNL     1      -4.470   1.520 -32.631  1.00  0.00     0.123 A 
HETATM    5  N   UNL     1      -4.810   0.493 -33.439  1.00  0.00    -0.364 N 
HETATM    6  C   UNL     1      -6.026  -0.287 -33.193  1.00  0.00     0.143 C 
HETATM    7  C   UNL     1      -6.227  -0.433 -31.672  1.00  0.00     0.068 C 
HETATM    8  C   UNL     1      -6.220   0.935 -30.963  1.00  0.00     0.221 C 
HETATM    9  C   UNL     1      -3.507   2.487 -32.723  1.00  0.00     0.089 A 
HETATM   10  H   UNL     1      -4.484   0.476 -34.405  1.00  0.00     0.162 HD
ENDROOT
BRANCH   1  11
HETATM   11  C   UNL     1      -2.828   4.433 -31.165  1.00  0.00     0.276 C 
HETATM   12  N   UNL     1      -3.613   5.500 -30.771  1.00  0.00    -0.322 N 
HETATM   13  H   UNL     1      -4.611   5.299 -30.795  1.00  0.00     0.169 HD
HETATM   14  O   UNL     1      -1.604   4.414 -31.238  1.00  0.00    -0.266 OA
BRANCH  12  15
HETATM   15  C   UNL     1      -3.205   6.797 -30.411  1.00  0.00     0.037 A 
HETATM   16  C   UNL     1      -2.228   7.066 -29.451  1.00  0.00     0.059 A 
HETATM   17  C   UNL     1      -1.817   8.381 -29.150  1.00  0.00     0.042 A 
HETATM   18  C   UNL     1      -2.465   9.457 -29.777  1.00  0.00    -0.035 A 
HETATM   19  C   UNL     1      -2.233  10.907 -29.456  1.00  0.00     0.050 C 
HETATM   20  C   UNL     1      -3.439   9.177 -30.755  1.00  0.00     0.011 A 
HETATM   21  C   UNL     1      -3.805   7.866 -31.069  1.00  0.00     0.030 A 
BRANCH  17  22
HETATM   22  N   UNL     1      -0.790   8.467 -28.178  1.00  0.00    -0.327 N 
HETATM   23  C   UNL     1       0.544   8.135 -28.312  1.00  0.00     0.218 C 
HETATM   24  C   UNL     1       1.327   8.426 -27.055  1.00  0.00     0.117 C 
HETATM   25  O   UNL     1       1.095   7.647 -29.290  1.00  0.00    -0.274 OA
HETATM   26  H   UNL     1      -1.116   8.537 -27.221  1.00  0.00     0.169 HD
ENDBRANCH  17  22
ENDBRANCH  12  15
ENDBRANCH   1  11
BRANCH   8  27
HETATM   27  C   UNL     1      -7.522   1.684 -31.152  1.00  0.00     0.409 C 
HETATM   28  F   UNL     1      -7.823   2.477 -30.101  1.00  0.00    -0.169 F 
HETATM   29  F   UNL     1      -7.536   2.447 -32.264  1.00  0.00    -0.169 F 
HETATM   30  F   UNL     1      -8.548   0.801 -31.271  1.00  0.00    -0.169 F 
ENDBRANCH   8  27
BRANCH   6  31
HETATM   31  C   UNL     1      -5.987  -1.638 -33.836  1.00  0.00     0.075 A 
HETATM   32  O   UNL     1      -4.757  -2.213 -33.971  1.00  0.00    -0.325 OA
HETATM   33  C   UNL     1      -4.947  -3.426 -34.552  1.00  0.00     0.142 A 
HETATM   34  C   UNL     1      -6.283  -3.637 -34.800  1.00  0.00     0.027 A 
HETATM   35  C   UNL     1      -6.957  -2.480 -34.341  1.00  0.00     0.037 A 
ENDBRANCH   6  31
TORSDOF 5
ENDMDL
MODEL 6
REMARK VINA RESULT:      -8.6      2.731      3.513
REMARK  5 active torsions:
REMARK  status: ('A' for Active; 'I' for Inactive)
REMARK    1  A    between atoms: C_3  and  N_4 
REMARK       I    between atoms: N_4  and  C_5 
REMARK    2  A    between atoms: C_9  and  N_10 
REMARK       I    between atoms: N_10  and  C_11 
REMARK    3  A    between atoms: C_11  and  C_12 
REMARK    4  A    between atoms: C_17  and  C_18 
REMARK    5  A    between atoms: C_24  and  C_25 
ROOT
HETATM    1  C   UNL     1      -5.178   2.473 -31.877  1.00  0.00     0.148 A 
HETATM    2  N   UNL     1      -6.416   2.086 -32.264  1.00  0.00    -0.165 NA
HETATM    3  N   UNL     1      -6.199   0.897 -32.857  1.00  0.00    -0.240 N 
HETATM    4  C   UNL     1      -4.892   0.495 -32.838  1.00  0.00     0.123 A 
HETATM    5  N   UNL     1      -4.510  -0.695 -33.350  1.00  0.00    -0.364 N 
HETATM    6  C   UNL     1      -5.436  -1.502 -34.148  1.00  0.00     0.143 C 
HETATM    7  C   UNL     1      -6.855  -1.360 -33.563  1.00  0.00     0.068 C 
HETATM    8  C   UNL     1      -7.276   0.117 -33.442  1.00  0.00     0.221 C 
HETATM    9  C   UNL     1      -4.200   1.497 -32.215  1.00  0.00     0.089 A 
HETATM   10  H   UNL     1      -3.524  -0.877 -33.533  1.00  0.00     0.162 HD
ENDROOT
BRANCH   1  11
HETATM   11  C   UNL     1      -4.929   3.759 -31.202  1.00  0.00     0.276 C 
HETATM   12  N   UNL     1      -5.935   4.083 -30.311  1.00  0.00    -0.322 N 
HETATM   13  H   UNL     1      -6.674   3.385 -30.263  1.00  0.00     0.169 HD
HETATM   14  O   UNL     1      -3.934   4.429 -31.456  1.00  0.00    -0.266 OA
BRANCH  12  15
HETATM   15  C   UNL     1      -6.071   5.249 -29.537  1.00  0.00     0.037 A 
HETATM   16  C   UNL     1      -5.301   5.527 -28.406  1.00  0.00     0.059 A 
HETATM   17  C   UNL     1      -5.441   6.730 -27.683  1.00  0.00     0.042 A 
HETATM   18  C   UNL     1      -6.439   7.641 -28.063  1.00  0.00    -0.035 A 
HETATM   19  C   UNL     1      -6.796   8.891 -27.308  1.00  0.00     0.050 C 
HETATM   20  C   UNL     1      -7.202   7.360 -29.213  1.00  0.00     0.011 A 
HETATM   21  C   UNL     1      -7.022   6.182 -29.941  1.00  0.00     0.030 A 
BRANCH  17  22
HETATM   22  N   UNL     1      -4.554   6.862 -26.586  1.00  0.00    -0.327 N 
HETATM   23  C   UNL     1      -3.345   7.528 -26.539  1.00  0.00     0.218 C 
HETATM   24  C   UNL     1      -2.728   7.482 -25.162  1.00  0.00     0.117 C 
HETATM   25  O   UNL     1      -2.773   8.097 -27.459  1.00  0.00    -0.274 OA
HETATM   26  H   UNL     1      -4.697   6.189 -25.842  1.00  0.00     0.169 HD
ENDBRANCH  17  22
ENDBRANCH  12  15
ENDBRANCH   1  11
BRANCH   8  27
HETATM   27  C   UNL     1      -7.671   0.710 -34.776  1.00  0.00     0.409 C 
HETATM   28  F   UNL     1      -6.651   1.360 -35.379  1.00  0.00    -0.169 F 
HETATM   29  F   UNL     1      -8.146  -0.208 -35.643  1.00  0.00    -0.169 F 
HETATM   30  F   UNL     1      -8.658   1.627 -34.600  1.00  0.00    -0.169 F 
ENDBRANCH   8  27
BRANCH   6  31
HETATM   31  C   UNL     1      -5.046  -2.946 -34.200  1.00  0.00     0.075 A 
HETATM   32  O   UNL     1      -3.894  -3.290 -33.556  1.00  0.00    -0.325 OA
HETATM   33  C   UNL     1      -3.739  -4.631 -33.708  1.00  0.00     0.142 A 
HETATM   34  C   UNL     1      -4.773  -5.155 -34.448  1.00  0.00     0.027 A 
HETATM   35  C   UNL     1      -5.618  -4.067 -34.770  1.00  0.00     0.037 A 
ENDBRANCH   6  31
TORSDOF 5
ENDMDL
MODEL 7
REMARK VINA RESULT:      -8.6      3.374      4.793
REMARK  5 active torsions:
REMARK  status: ('A' for Active; 'I' for Inactive)
REMARK    1  A    between atoms: C_3  and  N_4 
REMARK       I    between atoms: N_4  and  C_5 
REMARK    2  A    between atoms: C_9  and  N_10 
REMARK       I    between atoms: N_10  and  C_11 
REMARK    3  A    between atoms: C_11  and  C_12 
REMARK    4  A    between atoms: C_17  and  C_18 
REMARK    5  A    between atoms: C_24  and  C_25 
ROOT
HETATM    1  C   UNL     1      -6.563   4.009 -33.064  1.00  0.00     0.148 A 
HETATM    2  N   UNL     1      -6.380   2.860 -33.754  1.00  0.00    -0.165 NA
HETATM    3  N   UNL     1      -7.583   2.259 -33.681  1.00  0.00    -0.240 N 
HETATM    4  C   UNL     1      -8.528   2.983 -33.009  1.00  0.00     0.123 A 
HETATM    5  N   UNL     1      -9.799   2.545 -32.885  1.00  0.00    -0.364 N 
HETATM    6  C   UNL     1     -10.164   1.178 -33.264  1.00  0.00     0.143 C 
HETATM    7  C   UNL     1      -9.351   0.771 -34.509  1.00  0.00     0.068 C 
HETATM    8  C   UNL     1      -7.838   0.964 -34.289  1.00  0.00     0.221 C 
HETATM    9  C   UNL     1      -7.899   4.123 -32.589  1.00  0.00     0.089 A 
HETATM   10  H   UNL     1     -10.420   2.974 -32.200  1.00  0.00     0.162 HD
ENDROOT
BRANCH   1  11
HETATM   11  C   UNL     1      -5.477   4.984 -32.853  1.00  0.00     0.276 C 
HETATM   12  N   UNL     1      -4.348   4.397 -32.316  1.00  0.00    -0.322 N 
HETATM   13  H   UNL     1      -4.447   3.396 -32.158  1.00  0.00     0.169 HD
HETATM   14  O   UNL     1      -5.625   6.170 -33.127  1.00  0.00    -0.266 OA
BRANCH  12  15
HETATM   15  C   UNL     1      -3.146   5.015 -31.926  1.00  0.00     0.037 A 
HETATM   16  C   UNL     1      -3.040   5.901 -30.852  1.00  0.00     0.059 A 
HETATM   17  C   UNL     1      -1.806   6.467 -30.468  1.00  0.00     0.042 A 
HETATM   18  C   UNL     1      -0.663   6.194 -31.237  1.00  0.00    -0.035 A 
HETATM   19  C   UNL     1       0.683   6.831 -31.033  1.00  0.00     0.050 C 
HETATM   20  C   UNL     1      -0.776   5.288 -32.309  1.00  0.00     0.011 A 
HETATM   21  C   UNL     1      -1.999   4.706 -32.650  1.00  0.00     0.030 A 
BRANCH  17  22
HETATM   22  N   UNL     1      -1.877   7.314 -29.336  1.00  0.00    -0.327 N 
HETATM   23  C   UNL     1      -1.234   7.174 -28.120  1.00  0.00     0.218 C 
HETATM   24  C   UNL     1      -1.529   8.324 -27.190  1.00  0.00     0.117 C 
HETATM   25  O   UNL     1      -0.513   6.252 -27.763  1.00  0.00    -0.274 OA
HETATM   26  H   UNL     1      -2.671   7.944 -29.325  1.00  0.00     0.169 HD
ENDBRANCH  17  22
ENDBRANCH  12  15
ENDBRANCH   1  11
BRANCH   8  27
HETATM   27  C   UNL     1      -7.241  -0.130 -33.431  1.00  0.00     0.409 C 
HETATM   28  F   UNL     1      -7.888  -1.308 -33.567  1.00  0.00    -0.169 F 
HETATM   29  F   UNL     1      -5.933  -0.346 -33.683  1.00  0.00    -0.169 F 
HETATM   30  F   UNL     1      -7.335   0.209 -32.119  1.00  0.00    -0.169 F 
ENDBRANCH   8  27
BRANCH   6  31
HETATM   31  C   UNL     1     -11.628   1.025 -33.537  1.00  0.00     0.075 A 
HETATM   32  O   UNL     1     -12.323   2.171 -33.791  1.00  0.00    -0.325 OA
HETATM   33  C   UNL     1     -13.611   1.809 -34.029  1.00  0.00     0.142 A 
HETATM   34  C   UNL     1     -13.755   0.446 -33.924  1.00  0.00     0.027 A 
HETATM   35  C   UNL     1     -12.475  -0.064 -33.603  1.00  0.00     0.037 A 
ENDBRANCH   6  31
TORSDOF 5
ENDMDL
MODEL 8
REMARK VINA RESULT:      -8.6      6.309      9.480
REMARK  5 active torsions:
REMARK  status: ('A' for Active; 'I' for Inactive)
REMARK    1  A    between atoms: C_3  and  N_4 
REMARK       I    between atoms: N_4  and  C_5 
REMARK    2  A    between atoms: C_9  and  N_10 
REMARK       I    between atoms: N_10  and  C_11 
REMARK    3  A    between atoms: C_11  and  C_12 
REMARK    4  A    between atoms: C_17  and  C_18 
REMARK    5  A    between atoms: C_24  and  C_25 
ROOT
HETATM    1  C   UNL     1     -10.393   2.186 -33.410  1.00  0.00     0.148 A 
HETATM    2  N   UNL     1      -9.219   2.721 -33.820  1.00  0.00    -0.165 NA
HETATM    3  N   UNL     1      -8.384   1.664 -33.833  1.00  0.00    -0.240 N 
HETATM    4  C   UNL     1      -8.976   0.482 -33.484  1.00  0.00     0.123 A 
HETATM    5  N   UNL     1      -8.290  -0.681 -33.491  1.00  0.00    -0.364 N 
HETATM    6  C   UNL     1      -6.834  -0.695 -33.650  1.00  0.00     0.143 C 
HETATM    7  C   UNL     1      -6.428   0.418 -34.637  1.00  0.00     0.068 C 
HETATM    8  C   UNL     1      -6.986   1.789 -34.208  1.00  0.00     0.221 C 
HETATM    9  C   UNL     1     -10.279   0.785 -33.197  1.00  0.00     0.089 A 
HETATM   10  H   UNL     1      -8.672  -1.499 -33.018  1.00  0.00     0.162 HD
ENDROOT
BRANCH   1  11
HETATM   11  C   UNL     1     -11.605   3.002 -33.216  1.00  0.00     0.276 C 
HETATM   12  N   UNL     1     -12.669   2.251 -32.753  1.00  0.00    -0.322 N 
HETATM   13  H   UNL     1     -12.443   1.268 -32.619  1.00  0.00     0.169 HD
HETATM   14  O   UNL     1     -11.612   4.201 -33.470  1.00  0.00    -0.266 OA
BRANCH  12  15
HETATM   15  C   UNL     1     -13.991   2.668 -32.512  1.00  0.00     0.037 A 
HETATM   16  C   UNL     1     -14.329   3.920 -31.995  1.00  0.00     0.059 A 
HETATM   17  C   UNL     1     -15.670   4.315 -31.809  1.00  0.00     0.042 A 
HETATM   18  C   UNL     1     -16.695   3.393 -32.075  1.00  0.00    -0.035 A 
HETATM   19  C   UNL     1     -18.153   3.622 -31.794  1.00  0.00     0.050 C 
HETATM   20  C   UNL     1     -16.346   2.138 -32.611  1.00  0.00     0.011 A 
HETATM   21  C   UNL     1     -15.014   1.779 -32.827  1.00  0.00     0.030 A 
BRANCH  17  22
HETATM   22  N   UNL     1     -15.830   5.631 -31.310  1.00  0.00    -0.327 N 
HETATM   23  C   UNL     1     -15.924   6.810 -32.023  1.00  0.00     0.218 C 
HETATM   24  C   UNL     1     -16.146   7.999 -31.120  1.00  0.00     0.117 C 
HETATM   25  O   UNL     1     -15.833   6.956 -33.235  1.00  0.00    -0.274 OA
HETATM   26  H   UNL     1     -15.598   5.745 -30.330  1.00  0.00     0.169 HD
ENDBRANCH  17  22
ENDBRANCH  12  15
ENDBRANCH   1  11
BRANCH   8  27
HETATM   27  C   UNL     1      -6.201   2.394 -33.065  1.00  0.00     0.409 C 
HETATM   28  F   UNL     1      -6.765   2.151 -31.861  1.00  0.00    -0.169 F 
HETATM   29  F   UNL     1      -4.923   1.966 -33.016  1.00  0.00    -0.169 F 
HETATM   30  F   UNL     1      -6.156   3.745 -33.200  1.00  0.00    -0.169 F 
ENDBRANCH   8  27
BRANCH   6  31
HETATM   31  C   UNL     1      -6.318  -2.016 -34.129  1.00  0.00     0.075 A 
HETATM   32  O   UNL     1      -4.971  -2.213 -34.038  1.00  0.00    -0.325 OA
HETATM   33  C   UNL     1      -4.721  -3.466 -34.500  1.00  0.00     0.142 A 
HETATM   34  C   UNL     1      -5.889  -4.075 -34.896  1.00  0.00     0.027 A 
HETATM   35  C   UNL     1      -6.922  -3.138 -34.660  1.00  0.00     0.037 A 
ENDBRANCH   6  31
TORSDOF 5
ENDMDL
MODEL 9
REMARK VINA RESULT:      -8.6      3.426     10.047
REMARK  5 active torsions:
REMARK  status: ('A' for Active; 'I' for Inactive)
REMARK    1  A    between atoms: C_3  and  N_4 
REMARK       I    between atoms: N_4  and  C_5 
REMARK    2  A    between atoms: C_9  and  N_10 
REMARK       I    between atoms: N_10  and  C_11 
REMARK    3  A    between atoms: C_11  and  C_12 
REMARK    4  A    between atoms: C_17  and  C_18 
REMARK    5  A    between atoms: C_24  and  C_25 
ROOT
HETATM    1  C   UNL     1      -4.234   4.564 -32.194  1.00  0.00     0.148 A 
HETATM    2  N   UNL     1      -3.057   4.641 -32.858  1.00  0.00    -0.165 NA
HETATM    3  N   UNL     1      -2.273   5.346 -32.021  1.00  0.00    -0.240 N 
HETATM    4  C   UNL     1      -2.881   5.691 -30.846  1.00  0.00     0.123 A 
HETATM    5  N   UNL     1      -2.221   6.359 -29.877  1.00  0.00    -0.364 N 
HETATM    6  C   UNL     1      -0.900   6.942 -30.130  1.00  0.00     0.143 C 
HETATM    7  C   UNL     1      -0.110   6.002 -31.062  1.00  0.00     0.068 C 
HETATM    8  C   UNL     1      -0.898   5.681 -32.348  1.00  0.00     0.221 C 
HETATM    9  C   UNL     1      -4.157   5.205 -30.927  1.00  0.00     0.089 A 
HETATM   10  H   UNL     1      -2.740   6.803 -29.119  1.00  0.00     0.162 HD
ENDROOT
BRANCH   1  11
HETATM   11  C   UNL     1      -5.417   3.895 -32.763  1.00  0.00     0.276 C 
HETATM   12  N   UNL     1      -5.920   2.921 -31.920  1.00  0.00    -0.322 N 
HETATM   13  H   UNL     1      -5.399   2.829 -31.051  1.00  0.00     0.169 HD
HETATM   14  O   UNL     1      -5.849   4.198 -33.870  1.00  0.00    -0.266 OA
BRANCH  12  15
HETATM   15  C   UNL     1      -6.994   2.042 -32.148  1.00  0.00     0.037 A 
HETATM   16  C   UNL     1      -6.851   0.762 -32.686  1.00  0.00     0.059 A 
HETATM   17  C   UNL     1      -7.950  -0.105 -32.859  1.00  0.00     0.042 A 
HETATM   18  C   UNL     1      -9.239   0.362 -32.556  1.00  0.00    -0.035 A 
HETATM   19  C   UNL     1     -10.512  -0.393 -32.818  1.00  0.00     0.050 C 
HETATM   20  C   UNL     1      -9.374   1.649 -31.999  1.00  0.00     0.011 A 
HETATM   21  C   UNL     1      -8.268   2.478 -31.798  1.00  0.00     0.030 A 
BRANCH  17  22
HETATM   22  N   UNL     1      -7.618  -1.377 -33.383  1.00  0.00    -0.327 N 
HETATM   23  C   UNL     1      -6.957  -1.672 -34.561  1.00  0.00     0.218 C 
HETATM   24  C   UNL     1      -6.747  -3.156 -34.733  1.00  0.00     0.117 C 
HETATM   25  O   UNL     1      -6.574  -0.885 -35.416  1.00  0.00    -0.274 OA
HETATM   26  H   UNL     1      -8.138  -2.150 -32.984  1.00  0.00     0.169 HD
ENDBRANCH  17  22
ENDBRANCH  12  15
ENDBRANCH   1  11
BRANCH   8  27
HETATM   27  C   UNL     1      -0.872   6.828 -33.335  1.00  0.00     0.409 C 
HETATM   28  F   UNL     1      -0.815   6.408 -34.618  1.00  0.00    -0.169 F 
HETATM   29  F   UNL     1      -1.932   7.653 -33.216  1.00  0.00    -0.169 F 
HETATM   30  F   UNL     1       0.237   7.585 -33.132  1.00  0.00    -0.169 F 
ENDBRANCH   8  27
BRANCH   6  31
HETATM   31  C   UNL     1      -0.125   7.185 -28.873  1.00  0.00     0.075 A 
HETATM   32  O   UNL     1       0.038   8.487 -28.500  1.00  0.00    -0.325 OA
HETATM   33  C   UNL     1       0.742   8.482 -27.338  1.00  0.00     0.142 A 
HETATM   34  C   UNL     1       1.043   7.194 -26.963  1.00  0.00     0.027 A 
HETATM   35  C   UNL     1       0.485   6.353 -27.955  1.00  0.00     0.037 A 
ENDBRANCH   6  31
TORSDOF 5
ENDMDL
MODEL 10
REMARK VINA RESULT:      -8.5      4.460      9.607
REMARK  5 active torsions:
REMARK  status: ('A' for Active; 'I' for Inactive)
REMARK    1  A    between atoms: C_3  and  N_4 
REMARK       I    between atoms: N_4  and  C_5 
REMARK    2  A    between atoms: C_9  and  N_10 
REMARK       I    between atoms: N_10  and  C_11 
REMARK    3  A    between atoms: C_11  and  C_12 
REMARK    4  A    between atoms: C_17  and  C_18 
REMARK    5  A    between atoms: C_24  and  C_25 
ROOT
HETATM    1  C   UNL     1      -6.051   4.688 -33.011  1.00  0.00     0.148 A 
HETATM    2  N   UNL     1      -4.973   4.250 -33.702  1.00  0.00    -0.165 NA
HETATM    3  N   UNL     1      -3.933   4.727 -32.993  1.00  0.00    -0.240 N 
HETATM    4  C   UNL     1      -4.295   5.417 -31.869  1.00  0.00     0.123 A 
HETATM    5  N   UNL     1      -3.374   5.922 -31.022  1.00  0.00    -0.364 N 
HETATM    6  C   UNL     1      -1.954   5.951 -31.384  1.00  0.00     0.143 C 
HETATM    7  C   UNL     1      -1.617   4.677 -32.184  1.00  0.00     0.068 C 
HETATM    8  C   UNL     1      -2.556   4.498 -33.392  1.00  0.00     0.221 C 
HETATM    9  C   UNL     1      -5.663   5.417 -31.853  1.00  0.00     0.089 A 
HETATM   10  H   UNL     1      -3.647   6.617 -30.328  1.00  0.00     0.162 HD
ENDROOT
BRANCH   1  11
HETATM   11  C   UNL     1      -7.432   4.423 -33.452  1.00  0.00     0.276 C 
HETATM   12  N   UNL     1      -7.964   3.298 -32.850  1.00  0.00    -0.322 N 
HETATM   13  H   UNL     1      -7.323   2.843 -32.204  1.00  0.00     0.169 HD
HETATM   14  O   UNL     1      -7.987   5.143 -34.275  1.00  0.00    -0.266 OA
BRANCH  12  15
HETATM   15  C   UNL     1      -9.221   2.706 -33.068  1.00  0.00     0.037 A 
HETATM   16  C   UNL     1     -10.430   3.400 -33.000  1.00  0.00     0.059 A 
HETATM   17  C   UNL     1     -11.667   2.776 -33.267  1.00  0.00     0.042 A 
HETATM   18  C   UNL     1     -11.691   1.397 -33.531  1.00  0.00    -0.035 A 
HETATM   19  C   UNL     1     -12.938   0.574 -33.695  1.00  0.00     0.050 C 
HETATM   20  C   UNL     1     -10.466   0.707 -33.612  1.00  0.00     0.011 A 
HETATM   21  C   UNL     1      -9.248   1.351 -33.384  1.00  0.00     0.030 A 
BRANCH  17  22
HETATM   22  N   UNL     1     -12.788   3.638 -33.189  1.00  0.00    -0.327 N 
HETATM   23  C   UNL     1     -13.489   4.029 -32.064  1.00  0.00     0.218 C 
HETATM   24  C   UNL     1     -14.591   5.005 -32.398  1.00  0.00     0.117 C 
HETATM   25  O   UNL     1     -13.310   3.662 -30.911  1.00  0.00    -0.274 OA
HETATM   26  H   UNL     1     -13.279   3.777 -34.064  1.00  0.00     0.169 HD
ENDBRANCH  17  22
ENDBRANCH  12  15
ENDBRANCH   1  11
BRANCH   8  27
HETATM   27  C   UNL     1      -2.196   5.419 -34.537  1.00  0.00     0.409 C 
HETATM   28  F   UNL     1      -2.887   5.143 -35.665  1.00  0.00    -0.169 F 
HETATM   29  F   UNL     1      -2.383   6.723 -34.247  1.00  0.00    -0.169 F 
HETATM   30  F   UNL     1      -0.882   5.274 -34.850  1.00  0.00    -0.169 F 
ENDBRANCH   8  27
BRANCH   6  31
HETATM   31  C   UNL     1      -1.056   6.060 -30.192  1.00  0.00     0.075 A 
HETATM   32  O   UNL     1      -1.517   6.807 -29.147  1.00  0.00    -0.325 OA
HETATM   33  C   UNL     1      -0.569   6.758 -28.175  1.00  0.00     0.142 A 
HETATM   34  C   UNL     1       0.501   5.995 -28.584  1.00  0.00     0.027 A 
HETATM   35  C   UNL     1       0.189   5.545 -29.889  1.00  0.00     0.037 A 
ENDBRANCH   6  31
TORSDOF 5
ENDMDL
