MODEL 1
REMARK VINA RESULT:      -8.8      0.000      0.000
REMARK  7 active torsions:
REMARK  status: ('A' for Active; 'I' for Inactive)
REMARK    1  A    between atoms: C_7  and  C_8 
REMARK    2  A    between atoms: C_8  and  C_9 
REMARK    3  A    between atoms: C_9  and  C_10 
REMARK    4  A    between atoms: C_10  and  O_11 
REMARK    5  A    between atoms: C_13  and  C_14 
REMARK    6  A    between atoms: C_21  and  C_22 
REMARK       I    between atoms: C_22  and  N_23 
REMARK    7  A    between atoms: N_23  and  C_24 
ROOT
HETATM    1  C   UNL     1      -8.308   4.157 -30.060  1.00  0.00     0.070 C 
HETATM    2  C   UNL     1      -7.538   3.879 -31.328  1.00  0.00     0.037 C 
HETATM    3  N   UNL     1      -6.333   4.561 -31.459  1.00  0.00    -0.192 N 
HETATM    4  C   UNL     1      -5.640   4.611 -32.614  1.00  0.00     0.726 A 
HETATM    5  N   UNL     1      -6.038   3.843 -33.673  1.00  0.00    -0.083 N 
HETATM    6  N   UNL     1      -5.279   4.077 -34.764  1.00  0.00    -0.140 NA
HETATM    7  C   UNL     1      -4.414   4.980 -34.279  1.00  0.00     0.166 A 
HETATM    8  N   UNL     1      -4.604   5.328 -32.961  1.00  0.00    -0.046 NA
HETATM    9  C   UNL     1      -7.196   2.942 -33.644  1.00  0.00     0.202 C 
HETATM   10  C   UNL     1      -7.973   3.085 -32.338  1.00  0.00     0.062 C 
HETATM   11  H   UNL     1      -6.080   5.217 -30.725  1.00  0.00     0.184 HD
ENDROOT
BRANCH  10  12
HETATM   12  C   UNL     1      -9.273   2.366 -32.338  1.00  0.00     0.256 C 
HETATM   13  N   UNL     1     -10.197   2.903 -33.207  1.00  0.00    -0.323 N 
HETATM   14  H   UNL     1      -9.906   3.710 -33.744  1.00  0.00     0.169 HD
HETATM   15  O   UNL     1      -9.426   1.431 -31.563  1.00  0.00    -0.267 OA
BRANCH  13  16
HETATM   16  C   UNL     1     -11.513   2.451 -33.439  1.00  0.00     0.035 A 
HETATM   17  C   UNL     1     -12.647   3.023 -32.858  1.00  0.00     0.031 A 
HETATM   18  C   UNL     1     -13.921   2.513 -33.135  1.00  0.00     0.026 A 
HETATM   19  C   UNL     1     -14.063   1.423 -33.989  1.00  0.00     0.034 A 
HETATM   20 CL   UNL     1     -15.628   0.792 -34.322  1.00  0.00    -0.084 Cl
HETATM   21  C   UNL     1     -12.942   0.843 -34.575  1.00  0.00     0.026 A 
HETATM   22  C   UNL     1     -11.671   1.360 -34.303  1.00  0.00     0.031 A 
ENDBRANCH  13  16
ENDBRANCH  10  12
BRANCH   9  23
HETATM   23  C   UNL     1      -6.760   1.499 -33.893  1.00  0.00    -0.025 A 
HETATM   24  C   UNL     1      -5.761   0.930 -33.084  1.00  0.00     0.052 A 
HETATM   25  C   UNL     1      -5.339  -0.376 -33.311  1.00  0.00     0.117 A 
HETATM   26  F   UNL     1      -4.389  -0.907 -32.529  1.00  0.00    -0.206 F 
HETATM   27  C   UNL     1      -5.882  -1.137 -34.338  1.00  0.00     0.042 A 
HETATM   28  C   UNL     1      -6.866  -0.585 -35.155  1.00  0.00     0.004 A 
HETATM   29  C   UNL     1      -7.301   0.726 -34.937  1.00  0.00     0.010 A 
ENDBRANCH   9  23
BRANCH   7  30
HETATM   30  C   UNL     1      -3.331   5.571 -35.105  1.00  0.00     0.085 C 
BRANCH  30  31
HETATM   31  C   UNL     1      -1.932   5.164 -34.650  1.00  0.00     0.034 C 
BRANCH  31  32
HETATM   32  C   UNL     1      -1.124   6.332 -34.096  1.00  0.00     0.164 C 
BRANCH  32  33
HETATM   33  O   UNL     1      -1.803   7.554 -34.368  1.00  0.00    -0.401 OA
HETATM   34  H   UNL     1      -1.717   8.119 -33.582  1.00  0.00     0.209 HD
ENDBRANCH  32  33
ENDBRANCH  31  32
ENDBRANCH  30  31
ENDBRANCH   7  30
TORSDOF 7
ENDMDL
MODEL 2
REMARK VINA RESULT:      -8.8      3.567      8.067
REMARK  7 active torsions:
REMARK  status: ('A' for Active; 'I' for Inactive)
REMARK    1  A    between atoms: C_7  and  C_8 
REMARK    2  A    between atoms: C_8  and  C_9 
REMARK    3  A    between atoms: C_9  and  C_10 
REMARK    4  A    between atoms: C_10  and  O_11 
REMARK    5  A    between atoms: C_13  and  C_14 
REMARK    6  A    between atoms: C_21  and  C_22 
REMARK       I    between atoms: C_22  and  N_23 
REMARK    7  A    between atoms: N_23  and  C_24 
ROOT
HETATM    1  C   UNL     1      -9.163   5.624 -34.593  1.00  0.00     0.070 C 
HETATM    2  C   UNL     1      -9.496   4.192 -34.258  1.00  0.00     0.037 C 
HETATM    3  N   UNL     1     -10.699   3.719 -34.773  1.00  0.00    -0.192 N 
HETATM    4  C   UNL     1     -11.257   2.556 -34.385  1.00  0.00     0.726 A 
HETATM    5  N   UNL     1     -10.559   1.714 -33.565  1.00  0.00    -0.083 N 
HETATM    6  N   UNL     1     -11.298   0.639 -33.218  1.00  0.00    -0.140 NA
HETATM    7  C   UNL     1     -12.429   0.883 -33.897  1.00  0.00     0.166 A 
HETATM    8  N   UNL     1     -12.438   2.049 -34.627  1.00  0.00    -0.046 NA
HETATM    9  C   UNL     1      -9.208   1.990 -33.063  1.00  0.00     0.202 C 
HETATM   10  C   UNL     1      -8.750   3.392 -33.456  1.00  0.00     0.062 C 
HETATM   11  H   UNL     1     -11.277   4.372 -35.295  1.00  0.00     0.184 HD
ENDROOT
BRANCH  10  12
HETATM   12  C   UNL     1      -7.488   3.812 -32.794  1.00  0.00     0.256 C 
HETATM   13  N   UNL     1      -6.375   3.665 -33.594  1.00  0.00    -0.323 N 
HETATM   14  H   UNL     1      -6.525   3.297 -34.524  1.00  0.00     0.169 HD
HETATM   15  O   UNL     1      -7.531   4.186 -31.631  1.00  0.00    -0.267 OA
BRANCH  13  16
HETATM   16  C   UNL     1      -5.040   3.974 -33.262  1.00  0.00     0.035 A 
HETATM   17  C   UNL     1      -4.227   3.165 -32.465  1.00  0.00     0.031 A 
HETATM   18  C   UNL     1      -2.911   3.546 -32.176  1.00  0.00     0.026 A 
HETATM   19  C   UNL     1      -2.406   4.741 -32.678  1.00  0.00     0.034 A 
HETATM   20 CL   UNL     1      -0.792   5.211 -32.315  1.00  0.00    -0.084 Cl
HETATM   21  C   UNL     1      -3.204   5.557 -33.473  1.00  0.00     0.026 A 
HETATM   22  C   UNL     1      -4.516   5.172 -33.767  1.00  0.00     0.031 A 
ENDBRANCH  13  16
ENDBRANCH  10  12
BRANCH   9  23
HETATM   23  C   UNL     1      -8.229   0.917 -33.538  1.00  0.00    -0.025 A 
HETATM   24  C   UNL     1      -7.415   0.259 -32.600  1.00  0.00     0.052 A 
HETATM   25  C   UNL     1      -6.505  -0.705 -33.020  1.00  0.00     0.117 A 
HETATM   26  F   UNL     1      -5.739  -1.327 -32.113  1.00  0.00    -0.206 F 
HETATM   27  C   UNL     1      -6.375  -1.033 -34.364  1.00  0.00     0.042 A 
HETATM   28  C   UNL     1      -7.168  -0.384 -35.307  1.00  0.00     0.004 A 
HETATM   29  C   UNL     1      -8.087   0.587 -34.899  1.00  0.00     0.010 A 
ENDBRANCH   9  23
BRANCH   7  30
HETATM   30  C   UNL     1     -13.596  -0.035 -33.859  1.00  0.00     0.085 C 
BRANCH  30  31
HETATM   31  C   UNL     1     -14.910   0.641 -34.239  1.00  0.00     0.034 C 
BRANCH  31  32
HETATM   32  C   UNL     1     -15.478   1.508 -33.121  1.00  0.00     0.164 C 
BRANCH  32  33
HETATM   33  O   UNL     1     -16.794   1.928 -33.463  1.00  0.00    -0.401 OA
HETATM   34  H   UNL     1     -17.273   1.150 -33.798  1.00  0.00     0.209 HD
ENDBRANCH  32  33
ENDBRANCH  31  32
ENDBRANCH  30  31
ENDBRANCH   7  30
TORSDOF 7
ENDMDL
MODEL 3
REMARK VINA RESULT:      -8.4      1.711      2.356
REMARK  7 active torsions:
REMARK  status: ('A' for Active; 'I' for Inactive)
REMARK    1  A    between atoms: C_7  and  C_8 
REMARK    2  A    between atoms: C_8  and  C_9 
REMARK    3  A    between atoms: C_9  and  C_10 
REMARK    4  A    between atoms: C_10  and  O_11 
REMARK    5  A    between atoms: C_13  and  C_14 
REMARK    6  A    between atoms: C_21  and  C_22 
REMARK       I    between atoms: C_22  and  N_23 
REMARK    7  A    between atoms: N_23  and  C_24 
ROOT
HETATM    1  C   UNL     1      -7.367   3.696 -29.282  1.00  0.00     0.070 C 
HETATM    2  C   UNL     1      -6.311   3.378 -30.311  1.00  0.00     0.037 C 
HETATM    3  N   UNL     1      -5.085   4.009 -30.127  1.00  0.00    -0.192 N 
HETATM    4  C   UNL     1      -4.119   4.022 -31.065  1.00  0.00     0.726 A 
HETATM    5  N   UNL     1      -4.263   3.264 -32.194  1.00  0.00    -0.083 N 
HETATM    6  N   UNL     1      -3.241   3.459 -33.053  1.00  0.00    -0.140 NA
HETATM    7  C   UNL     1      -2.493   4.329 -32.359  1.00  0.00     0.166 A 
HETATM    8  N   UNL     1      -2.999   4.695 -31.133  1.00  0.00    -0.046 NA
HETATM    9  C   UNL     1      -5.427   2.411 -32.465  1.00  0.00     0.202 C 
HETATM   10  C   UNL     1      -6.505   2.595 -31.401  1.00  0.00     0.062 C 
HETATM   11  H   UNL     1      -5.002   4.659 -29.350  1.00  0.00     0.184 HD
ENDROOT
BRANCH  10  12
HETATM   12  C   UNL     1      -7.790   1.929 -31.737  1.00  0.00     0.256 C 
HETATM   13  N   UNL     1      -8.641   2.722 -32.476  1.00  0.00    -0.323 N 
HETATM   14  H   UNL     1      -8.316   3.650 -32.709  1.00  0.00     0.169 HD
HETATM   15  O   UNL     1      -7.999   0.804 -31.304  1.00  0.00    -0.267 OA
BRANCH  13  16
HETATM   16  C   UNL     1      -9.926   2.382 -32.950  1.00  0.00     0.035 A 
HETATM   17  C   UNL     1     -10.186   1.294 -33.786  1.00  0.00     0.031 A 
HETATM   18  C   UNL     1     -11.490   1.026 -34.218  1.00  0.00     0.026 A 
HETATM   19  C   UNL     1     -12.538   1.851 -33.820  1.00  0.00     0.034 A 
HETATM   20 CL   UNL     1     -14.139   1.526 -34.359  1.00  0.00    -0.084 Cl
HETATM   21  C   UNL     1     -12.294   2.939 -32.989  1.00  0.00     0.026 A 
HETATM   22  C   UNL     1     -10.992   3.200 -32.551  1.00  0.00     0.031 A 
ENDBRANCH  13  16
ENDBRANCH  10  12
BRANCH   9  23
HETATM   23  C   UNL     1      -5.001   0.950 -32.599  1.00  0.00    -0.025 A 
HETATM   24  C   UNL     1      -5.477   0.187 -33.679  1.00  0.00     0.052 A 
HETATM   25  C   UNL     1      -5.115  -1.150 -33.802  1.00  0.00     0.117 A 
HETATM   26  F   UNL     1      -5.573  -1.864 -34.840  1.00  0.00    -0.206 F 
HETATM   27  C   UNL     1      -4.287  -1.759 -32.867  1.00  0.00     0.042 A 
HETATM   28  C   UNL     1      -3.814  -1.020 -31.786  1.00  0.00     0.004 A 
HETATM   29  C   UNL     1      -4.170   0.325 -31.650  1.00  0.00     0.010 A 
ENDBRANCH   9  23
BRANCH   7  30
HETATM   30  C   UNL     1      -1.211   4.870 -32.878  1.00  0.00     0.085 C 
BRANCH  30  31
HETATM   31  C   UNL     1      -1.336   5.503 -34.262  1.00  0.00     0.034 C 
BRANCH  31  32
HETATM   32  C   UNL     1      -2.268   6.709 -34.280  1.00  0.00     0.164 C 
BRANCH  32  33
HETATM   33  O   UNL     1      -1.551   7.873 -33.882  1.00  0.00    -0.401 OA
HETATM   34  H   UNL     1      -1.599   7.929 -32.912  1.00  0.00     0.209 HD
ENDBRANCH  32  33
ENDBRANCH  31  32
ENDBRANCH  30  31
ENDBRANCH   7  30
TORSDOF 7
ENDMDL
MODEL 4
REMARK VINA RESULT:      -8.3      3.834      6.577
REMARK  7 active torsions:
REMARK  status: ('A' for Active; 'I' for Inactive)
REMARK    1  A    between atoms: C_7  and  C_8 
REMARK    2  A    between atoms: C_8  and  C_9 
REMARK    3  A    between atoms: C_9  and  C_10 
REMARK    4  A    between atoms: C_10  and  O_11 
REMARK    5  A    between atoms: C_13  and  C_14 
REMARK    6  A    between atoms: C_21  and  C_22 
REMARK       I    between atoms: C_22  and  N_23 
REMARK    7  A    between atoms: N_23  and  C_24 
ROOT
HETATM    1  C   UNL     1      -3.680   2.937 -32.158  1.00  0.00     0.070 C 
HETATM    2  C   UNL     1      -5.129   3.164 -31.803  1.00  0.00     0.037 C 
HETATM    3  N   UNL     1      -5.481   4.482 -31.535  1.00  0.00    -0.192 N 
HETATM    4  C   UNL     1      -6.660   4.829 -30.983  1.00  0.00     0.726 A 
HETATM    5  N   UNL     1      -7.628   3.880 -30.808  1.00  0.00    -0.083 N 
HETATM    6  N   UNL     1      -8.706   4.387 -30.174  1.00  0.00    -0.140 NA
HETATM    7  C   UNL     1      -8.331   5.666 -30.024  1.00  0.00     0.166 A 
HETATM    8  N   UNL     1      -7.082   5.974 -30.512  1.00  0.00    -0.046 NA
HETATM    9  C   UNL     1      -7.475   2.471 -31.190  1.00  0.00     0.202 C 
HETATM   10  C   UNL     1      -6.055   2.182 -31.668  1.00  0.00     0.062 C 
HETATM   11  H   UNL     1      -4.743   5.181 -31.557  1.00  0.00     0.184 HD
ENDROOT
BRANCH  10  12
HETATM   12  C   UNL     1      -5.776   0.735 -31.858  1.00  0.00     0.256 C 
HETATM   13  N   UNL     1      -5.963   0.307 -33.155  1.00  0.00    -0.323 N 
HETATM   14  H   UNL     1      -6.264   1.000 -33.827  1.00  0.00     0.169 HD
HETATM   15  O   UNL     1      -5.467   0.063 -30.884  1.00  0.00    -0.267 OA
BRANCH  13  16
HETATM   16  C   UNL     1      -5.781  -0.999 -33.656  1.00  0.00     0.035 A 
HETATM   17  C   UNL     1      -4.539  -1.632 -33.749  1.00  0.00     0.031 A 
HETATM   18  C   UNL     1      -4.440  -2.930 -34.264  1.00  0.00     0.026 A 
HETATM   19  C   UNL     1      -5.584  -3.596 -34.695  1.00  0.00     0.034 A 
HETATM   20 CL   UNL     1      -5.460  -5.187 -35.336  1.00  0.00    -0.084 Cl
HETATM   21  C   UNL     1      -6.827  -2.978 -34.609  1.00  0.00     0.026 A 
HETATM   22  C   UNL     1      -6.925  -1.685 -34.087  1.00  0.00     0.031 A 
ENDBRANCH  13  16
ENDBRANCH  10  12
BRANCH   9  23
HETATM   23  C   UNL     1      -8.519   2.083 -32.236  1.00  0.00    -0.025 A 
HETATM   24  C   UNL     1      -9.287   0.921 -32.047  1.00  0.00     0.052 A 
HETATM   25  C   UNL     1     -10.227   0.543 -33.000  1.00  0.00     0.117 A 
HETATM   26  F   UNL     1     -10.955  -0.564 -32.805  1.00  0.00    -0.206 F 
HETATM   27  C   UNL     1     -10.421   1.293 -34.154  1.00  0.00     0.042 A 
HETATM   28  C   UNL     1      -9.662   2.442 -34.360  1.00  0.00     0.004 A 
HETATM   29  C   UNL     1      -8.713   2.834 -33.410  1.00  0.00     0.010 A 
ENDBRANCH   9  23
BRANCH   7  30
HETATM   30  C   UNL     1      -9.196   6.680 -29.370  1.00  0.00     0.085 C 
BRANCH  30  31
HETATM   31  C   UNL     1      -8.784   6.992 -27.934  1.00  0.00     0.034 C 
BRANCH  31  32
HETATM   32  C   UNL     1      -9.698   8.011 -27.262  1.00  0.00     0.164 C 
BRANCH  32  33
HETATM   33  O   UNL     1     -10.262   7.443 -26.085  1.00  0.00    -0.401 OA
HETATM   34  H   UNL     1      -9.622   6.800 -25.733  1.00  0.00     0.209 HD
ENDBRANCH  32  33
ENDBRANCH  31  32
ENDBRANCH  30  31
ENDBRANCH   7  30
TORSDOF 7
ENDMDL
MODEL 5
REMARK VINA RESULT:      -8.2      1.454      1.549
REMARK  7 active torsions:
REMARK  status: ('A' for Active; 'I' for Inactive)
REMARK    1  A    between atoms: C_7  and  C_8 
REMARK    2  A    between atoms: C_8  and  C_9 
REMARK    3  A    between atoms: C_9  and  C_10 
REMARK    4  A    between atoms: C_10  and  O_11 
REMARK    5  A    between atoms: C_13  and  C_14 
REMARK    6  A    between atoms: C_21  and  C_22 
REMARK       I    between atoms: C_22  and  N_23 
REMARK    7  A    between atoms: N_23  and  C_24 
ROOT
HETATM    1  C   UNL     1      -8.864   5.517 -30.744  1.00  0.00     0.070 C 
HETATM    2  C   UNL     1      -7.716   4.831 -31.442  1.00  0.00     0.037 C 
HETATM    3  N   UNL     1      -6.457   5.068 -30.900  1.00  0.00    -0.192 N 
HETATM    4  C   UNL     1      -5.313   4.730 -31.526  1.00  0.00     0.726 A 
HETATM    5  N   UNL     1      -5.366   3.986 -32.672  1.00  0.00    -0.083 N 
HETATM    6  N   UNL     1      -4.136   3.809 -33.201  1.00  0.00    -0.140 NA
HETATM    7  C   UNL     1      -3.380   4.449 -32.298  1.00  0.00     0.166 A 
HETATM    8  N   UNL     1      -4.068   5.023 -31.254  1.00  0.00    -0.046 NA
HETATM    9  C   UNL     1      -6.612   3.515 -33.288  1.00  0.00     0.202 C 
HETATM   10  C   UNL     1      -7.831   4.081 -32.567  1.00  0.00     0.062 C 
HETATM   11  H   UNL     1      -6.396   5.706 -30.111  1.00  0.00     0.184 HD
ENDROOT
BRANCH  10  12
HETATM   12  C   UNL     1      -9.113   3.821 -33.272  1.00  0.00     0.256 C 
HETATM   13  N   UNL     1      -9.901   2.880 -32.646  1.00  0.00    -0.323 N 
HETATM   14  H   UNL     1      -9.539   2.473 -31.793  1.00  0.00     0.169 HD
HETATM   15  O   UNL     1      -9.328   4.397 -34.329  1.00  0.00    -0.267 OA
BRANCH  13  16
HETATM   16  C   UNL     1     -11.168   2.418 -33.060  1.00  0.00     0.035 A 
HETATM   17  C   UNL     1     -12.339   3.175 -32.980  1.00  0.00     0.031 A 
HETATM   18  C   UNL     1     -13.561   2.641 -33.407  1.00  0.00     0.026 A 
HETATM   19  C   UNL     1     -13.615   1.345 -33.911  1.00  0.00     0.034 A 
HETATM   20 CL   UNL     1     -15.118   0.687 -34.427  1.00  0.00    -0.084 Cl
HETATM   21  C   UNL     1     -12.457   0.579 -33.996  1.00  0.00     0.026 A 
HETATM   22  C   UNL     1     -11.236   1.116 -33.576  1.00  0.00     0.031 A 
ENDBRANCH  13  16
ENDBRANCH  10  12
BRANCH   9  23
HETATM   23  C   UNL     1      -6.639   1.988 -33.341  1.00  0.00    -0.025 A 
HETATM   24  C   UNL     1      -6.482   1.252 -32.154  1.00  0.00     0.052 A 
HETATM   25  C   UNL     1      -6.483  -0.139 -32.189  1.00  0.00     0.117 A 
HETATM   26  F   UNL     1      -6.337  -0.827 -31.049  1.00  0.00    -0.206 F 
HETATM   27  C   UNL     1      -6.632  -0.826 -33.388  1.00  0.00     0.042 A 
HETATM   28  C   UNL     1      -6.779  -0.112 -34.574  1.00  0.00     0.004 A 
HETATM   29  C   UNL     1      -6.780   1.286 -34.553  1.00  0.00     0.010 A 
ENDBRANCH   9  23
BRANCH   7  30
HETATM   30  C   UNL     1      -1.902   4.541 -32.417  1.00  0.00     0.085 C 
BRANCH  30  31
HETATM   31  C   UNL     1      -1.425   5.849 -33.041  1.00  0.00     0.034 C 
BRANCH  31  32
HETATM   32  C   UNL     1      -1.611   5.888 -34.554  1.00  0.00     0.164 C 
BRANCH  32  33
HETATM   33  O   UNL     1      -2.920   6.354 -34.862  1.00  0.00    -0.401 OA
HETATM   34  H   UNL     1      -3.309   5.735 -35.504  1.00  0.00     0.209 HD
ENDBRANCH  32  33
ENDBRANCH  31  32
ENDBRANCH  30  31
ENDBRANCH   7  30
TORSDOF 7
ENDMDL
MODEL 6
REMARK VINA RESULT:      -7.8      3.974      6.497
REMARK  7 active torsions:
REMARK  status: ('A' for Active; 'I' for Inactive)
REMARK    1  A    between atoms: C_7  and  C_8 
REMARK    2  A    between atoms: C_8  and  C_9 
REMARK    3  A    between atoms: C_9  and  C_10 
REMARK    4  A    between atoms: C_10  and  O_11 
REMARK    5  A    between atoms: C_13  and  C_14 
REMARK    6  A    between atoms: C_21  and  C_22 
REMARK       I    between atoms: C_22  and  N_23 
REMARK    7  A    between atoms: N_23  and  C_24 
ROOT
HETATM    1  C   UNL     1      -3.868   2.625 -32.076  1.00  0.00     0.070 C 
HETATM    2  C   UNL     1      -5.310   2.924 -31.748  1.00  0.00     0.037 C 
HETATM    3  N   UNL     1      -5.597   4.257 -31.471  1.00  0.00    -0.192 N 
HETATM    4  C   UNL     1      -6.768   4.660 -30.939  1.00  0.00     0.726 A 
HETATM    5  N   UNL     1      -7.789   3.761 -30.797  1.00  0.00    -0.083 N 
HETATM    6  N   UNL     1      -8.852   4.318 -30.179  1.00  0.00    -0.140 NA
HETATM    7  C   UNL     1      -8.412   5.573 -30.005  1.00  0.00     0.166 A 
HETATM    8  N   UNL     1      -7.139   5.820 -30.463  1.00  0.00    -0.046 NA
HETATM    9  C   UNL     1      -7.702   2.351 -31.193  1.00  0.00     0.202 C 
HETATM   10  C   UNL     1      -6.289   1.992 -31.645  1.00  0.00     0.062 C 
HETATM   11  H   UNL     1      -4.824   4.916 -31.470  1.00  0.00     0.184 HD
ENDROOT
BRANCH  10  12
HETATM   12  C   UNL     1      -6.083   0.534 -31.847  1.00  0.00     0.256 C 
HETATM   13  N   UNL     1      -6.118   0.155 -33.172  1.00  0.00    -0.323 N 
HETATM   14  H   UNL     1      -6.277   0.885 -33.854  1.00  0.00     0.169 HD
HETATM   15  O   UNL     1      -5.957  -0.183 -30.865  1.00  0.00    -0.267 OA
BRANCH  13  16
HETATM   16  C   UNL     1      -5.956  -1.147 -33.690  1.00  0.00     0.035 A 
HETATM   17  C   UNL     1      -7.008  -1.938 -34.156  1.00  0.00     0.031 A 
HETATM   18  C   UNL     1      -6.764  -3.224 -34.652  1.00  0.00     0.026 A 
HETATM   19  C   UNL     1      -5.467  -3.726 -34.677  1.00  0.00     0.034 A 
HETATM   20 CL   UNL     1      -5.170  -5.310 -35.278  1.00  0.00    -0.084 Cl
HETATM   21  C   UNL     1      -4.409  -2.949 -34.216  1.00  0.00     0.026 A 
HETATM   22  C   UNL     1      -4.653  -1.662 -33.728  1.00  0.00     0.031 A 
ENDBRANCH  13  16
ENDBRANCH  10  12
BRANCH   9  23
HETATM   23  C   UNL     1      -8.742   2.030 -32.265  1.00  0.00    -0.025 A 
HETATM   24  C   UNL     1      -8.981   2.956 -33.295  1.00  0.00     0.052 A 
HETATM   25  C   UNL     1      -9.940   2.687 -34.266  1.00  0.00     0.117 A 
HETATM   26  F   UNL     1     -10.154   3.577 -35.245  1.00  0.00    -0.206 F 
HETATM   27  C   UNL     1     -10.682   1.513 -34.237  1.00  0.00     0.042 A 
HETATM   28  C   UNL     1     -10.464   0.590 -33.218  1.00  0.00     0.004 A 
HETATM   29  C   UNL     1      -9.503   0.847 -32.236  1.00  0.00     0.010 A 
ENDBRANCH   9  23
BRANCH   7  30
HETATM   30  C   UNL     1      -9.237   6.624 -29.357  1.00  0.00     0.085 C 
BRANCH  30  31
HETATM   31  C   UNL     1      -8.735   7.017 -27.970  1.00  0.00     0.034 C 
BRANCH  31  32
HETATM   32  C   UNL     1      -8.132   8.417 -27.931  1.00  0.00     0.164 C 
BRANCH  32  33
HETATM   33  O   UNL     1      -8.219   8.938 -26.609  1.00  0.00    -0.401 OA
HETATM   34  H   UNL     1      -8.544   9.852 -26.675  1.00  0.00     0.209 HD
ENDBRANCH  32  33
ENDBRANCH  31  32
ENDBRANCH  30  31
ENDBRANCH   7  30
TORSDOF 7
ENDMDL
MODEL 7
REMARK VINA RESULT:      -7.5     16.832     19.357
REMARK  7 active torsions:
REMARK  status: ('A' for Active; 'I' for Inactive)
REMARK    1  A    between atoms: C_7  and  C_8 
REMARK    2  A    between atoms: C_8  and  C_9 
REMARK    3  A    between atoms: C_9  and  C_10 
REMARK    4  A    between atoms: C_10  and  O_11 
REMARK    5  A    between atoms: C_13  and  C_14 
REMARK    6  A    between atoms: C_21  and  C_22 
REMARK       I    between atoms: C_22  and  N_23 
REMARK    7  A    between atoms: N_23  and  C_24 
ROOT
HETATM    1  C   UNL     1      -3.125 -11.984 -38.424  1.00  0.00     0.070 C 
HETATM    2  C   UNL     1      -4.350 -12.739 -37.970  1.00  0.00     0.037 C 
HETATM    3  N   UNL     1      -4.579 -12.739 -36.598  1.00  0.00    -0.192 N 
HETATM    4  C   UNL     1      -5.481 -13.545 -36.004  1.00  0.00     0.726 A 
HETATM    5  N   UNL     1      -6.325 -14.296 -36.775  1.00  0.00    -0.083 N 
HETATM    6  N   UNL     1      -7.103 -15.097 -36.017  1.00  0.00    -0.140 NA
HETATM    7  C   UNL     1      -6.695 -14.752 -34.787  1.00  0.00     0.166 A 
HETATM    8  N   UNL     1      -5.703 -13.799 -34.741  1.00  0.00    -0.046 NA
HETATM    9  C   UNL     1      -6.322 -14.286 -38.243  1.00  0.00     0.202 C 
HETATM   10  C   UNL     1      -5.168 -13.449 -38.786  1.00  0.00     0.062 C 
HETATM   11  H   UNL     1      -3.897 -12.273 -36.006  1.00  0.00     0.184 HD
ENDROOT
BRANCH  10  12
HETATM   12  C   UNL     1      -4.980 -13.578 -40.254  1.00  0.00     0.256 C 
HETATM   13  N   UNL     1      -4.262 -14.697 -40.618  1.00  0.00    -0.323 N 
HETATM   14  H   UNL     1      -3.944 -15.301 -39.870  1.00  0.00     0.169 HD
HETATM   15  O   UNL     1      -5.411 -12.694 -40.982  1.00  0.00    -0.267 OA
BRANCH  13  16
HETATM   16  C   UNL     1      -3.918 -15.101 -41.924  1.00  0.00     0.035 A 
HETATM   17  C   UNL     1      -4.509 -14.588 -43.081  1.00  0.00     0.031 A 
HETATM   18  C   UNL     1      -4.115 -15.046 -44.344  1.00  0.00     0.026 A 
HETATM   19  C   UNL     1      -3.132 -16.025 -44.453  1.00  0.00     0.034 A 
HETATM   20 CL   UNL     1      -2.656 -16.593 -46.005  1.00  0.00    -0.084 Cl
HETATM   21  C   UNL     1      -2.535 -16.546 -43.310  1.00  0.00     0.026 A 
HETATM   22  C   UNL     1      -2.924 -16.082 -42.050  1.00  0.00     0.031 A 
ENDBRANCH  13  16
ENDBRANCH  10  12
BRANCH   9  23
HETATM   23  C   UNL     1      -7.672 -13.813 -38.778  1.00  0.00    -0.025 A 
HETATM   24  C   UNL     1      -8.584 -14.756 -39.284  1.00  0.00     0.052 A 
HETATM   25  C   UNL     1      -9.809 -14.338 -39.794  1.00  0.00     0.117 A 
HETATM   26  F   UNL     1     -10.670 -15.248 -40.269  1.00  0.00    -0.206 F 
HETATM   27  C   UNL     1     -10.153 -12.992 -39.822  1.00  0.00     0.042 A 
HETATM   28  C   UNL     1      -9.258 -12.045 -39.333  1.00  0.00     0.004 A 
HETATM   29  C   UNL     1      -8.023 -12.451 -38.817  1.00  0.00     0.010 A 
ENDBRANCH   9  23
BRANCH   7  30
HETATM   30  C   UNL     1      -7.266 -15.358 -33.557  1.00  0.00     0.085 C 
BRANCH  30  31
HETATM   31  C   UNL     1      -6.248 -16.157 -32.748  1.00  0.00     0.034 C 
BRANCH  31  32
HETATM   32  C   UNL     1      -5.654 -15.363 -31.591  1.00  0.00     0.164 C 
BRANCH  32  33
HETATM   33  O   UNL     1      -4.492 -14.670 -32.034  1.00  0.00    -0.401 OA
HETATM   34  H   UNL     1      -4.163 -14.141 -31.287  1.00  0.00     0.209 HD
ENDBRANCH  32  33
ENDBRANCH  31  32
ENDBRANCH  30  31
ENDBRANCH   7  30
TORSDOF 7
ENDMDL
MODEL 8
REMARK VINA RESULT:      -7.5      4.077      6.627
REMARK  7 active torsions:
REMARK  status: ('A' for Active; 'I' for Inactive)
REMARK    1  A    between atoms: C_7  and  C_8 
REMARK    2  A    between atoms: C_8  and  C_9 
REMARK    3  A    between atoms: C_9  and  C_10 
REMARK    4  A    between atoms: C_10  and  O_11 
REMARK    5  A    between atoms: C_13  and  C_14 
REMARK    6  A    between atoms: C_21  and  C_22 
REMARK       I    between atoms: C_22  and  N_23 
REMARK    7  A    between atoms: N_23  and  C_24 
ROOT
HETATM    1  C   UNL     1      -3.252   3.282 -31.526  1.00  0.00     0.070 C 
HETATM    2  C   UNL     1      -4.746   3.434 -31.376  1.00  0.00     0.037 C 
HETATM    3  N   UNL     1      -5.215   4.743 -31.346  1.00  0.00    -0.192 N 
HETATM    4  C   UNL     1      -6.474   5.063 -30.988  1.00  0.00     0.726 A 
HETATM    5  N   UNL     1      -7.392   4.069 -30.788  1.00  0.00    -0.083 N 
HETATM    6  N   UNL     1      -8.572   4.567 -30.362  1.00  0.00    -0.140 NA
HETATM    7  C   UNL     1      -8.304   5.880 -30.359  1.00  0.00     0.166 A 
HETATM    8  N   UNL     1      -7.027   6.222 -30.741  1.00  0.00    -0.046 NA
HETATM    9  C   UNL     1      -7.098   2.639 -30.940  1.00  0.00     0.202 C 
HETATM   10  C   UNL     1      -5.614   2.406 -31.205  1.00  0.00     0.062 C 
HETATM   11  H   UNL     1      -4.529   5.491 -31.386  1.00  0.00     0.184 HD
ENDROOT
BRANCH  10  12
HETATM   12  C   UNL     1      -5.218   0.975 -31.149  1.00  0.00     0.256 C 
HETATM   13  N   UNL     1      -4.914   0.442 -32.383  1.00  0.00    -0.323 N 
HETATM   14  H   UNL     1      -4.989   1.060 -33.181  1.00  0.00     0.169 HD
HETATM   15  O   UNL     1      -5.243   0.401 -30.069  1.00  0.00    -0.267 OA
BRANCH  13  16
HETATM   16  C   UNL     1      -4.505  -0.878 -32.664  1.00  0.00     0.035 A 
HETATM   17  C   UNL     1      -3.591  -1.594 -31.886  1.00  0.00     0.031 A 
HETATM   18  C   UNL     1      -3.231  -2.901 -32.235  1.00  0.00     0.026 A 
HETATM   19  C   UNL     1      -3.780  -3.494 -33.368  1.00  0.00     0.034 A 
HETATM   20 CL   UNL     1      -3.330  -5.097 -33.800  1.00  0.00    -0.084 Cl
HETATM   21  C   UNL     1      -4.690  -2.794 -34.152  1.00  0.00     0.026 A 
HETATM   22  C   UNL     1      -5.055  -1.491 -33.798  1.00  0.00     0.031 A 
ENDBRANCH  13  16
ENDBRANCH  10  12
BRANCH   9  23
HETATM   23  C   UNL     1      -7.975   2.025 -32.030  1.00  0.00    -0.025 A 
HETATM   24  C   UNL     1      -8.826   0.953 -31.711  1.00  0.00     0.052 A 
HETATM   25  C   UNL     1      -9.615   0.370 -32.697  1.00  0.00     0.117 A 
HETATM   26  F   UNL     1     -10.425  -0.648 -32.376  1.00  0.00    -0.206 F 
HETATM   27  C   UNL     1      -9.576   0.824 -34.009  1.00  0.00     0.042 A 
HETATM   28  C   UNL     1      -8.731   1.879 -34.345  1.00  0.00     0.004 A 
HETATM   29  C   UNL     1      -7.933   2.474 -33.363  1.00  0.00     0.010 A 
ENDBRANCH   9  23
BRANCH   7  30
HETATM   30  C   UNL     1      -9.310   6.899 -29.963  1.00  0.00     0.085 C 
BRANCH  30  31
HETATM   31  C   UNL     1      -9.465   8.024 -30.983  1.00  0.00     0.034 C 
BRANCH  31  32
HETATM   32  C   UNL     1      -9.889   7.524 -32.359  1.00  0.00     0.164 C 
BRANCH  32  33
HETATM   33  O   UNL     1      -9.267   8.313 -33.367  1.00  0.00    -0.401 OA
HETATM   34  H   UNL     1      -8.305   8.203 -33.274  1.00  0.00     0.209 HD
ENDBRANCH  32  33
ENDBRANCH  31  32
ENDBRANCH  30  31
ENDBRANCH   7  30
TORSDOF 7
ENDMDL
MODEL 9
REMARK VINA RESULT:      -7.5      3.822      8.326
REMARK  7 active torsions:
REMARK  status: ('A' for Active; 'I' for Inactive)
REMARK    1  A    between atoms: C_7  and  C_8 
REMARK    2  A    between atoms: C_8  and  C_9 
REMARK    3  A    between atoms: C_9  and  C_10 
REMARK    4  A    between atoms: C_10  and  O_11 
REMARK    5  A    between atoms: C_13  and  C_14 
REMARK    6  A    between atoms: C_21  and  C_22 
REMARK       I    between atoms: C_22  and  N_23 
REMARK    7  A    between atoms: N_23  and  C_24 
ROOT
HETATM    1  C   UNL     1      -9.722   6.185 -35.641  1.00  0.00     0.070 C 
HETATM    2  C   UNL     1     -10.202   4.979 -34.873  1.00  0.00     0.037 C 
HETATM    3  N   UNL     1     -11.459   4.501 -35.229  1.00  0.00    -0.192 N 
HETATM    4  C   UNL     1     -12.132   3.591 -34.500  1.00  0.00     0.726 A 
HETATM    5  N   UNL     1     -11.513   2.982 -33.443  1.00  0.00    -0.083 N 
HETATM    6  N   UNL     1     -12.358   2.161 -32.784  1.00  0.00    -0.140 NA
HETATM    7  C   UNL     1     -13.469   2.298 -33.523  1.00  0.00     0.166 A 
HETATM    8  N   UNL     1     -13.366   3.165 -34.586  1.00  0.00    -0.046 NA
HETATM    9  C   UNL     1     -10.130   3.254 -33.035  1.00  0.00     0.202 C 
HETATM   10  C   UNL     1      -9.532   4.399 -33.846  1.00  0.00     0.062 C 
HETATM   11  H   UNL     1     -11.973   5.013 -35.941  1.00  0.00     0.184 HD
ENDROOT
BRANCH  10  12
HETATM   12  C   UNL     1      -8.218   4.867 -33.333  1.00  0.00     0.256 C 
HETATM   13  N   UNL     1      -7.149   4.153 -33.831  1.00  0.00    -0.323 N 
HETATM   14  H   UNL     1      -7.360   3.403 -34.476  1.00  0.00     0.169 HD
HETATM   15  O   UNL     1      -8.197   5.771 -32.509  1.00  0.00    -0.267 OA
BRANCH  13  16
HETATM   16  C   UNL     1      -5.783   4.350 -33.541  1.00  0.00     0.035 A 
HETATM   17  C   UNL     1      -5.188   4.020 -32.322  1.00  0.00     0.031 A 
HETATM   18  C   UNL     1      -3.824   4.252 -32.110  1.00  0.00     0.026 A 
HETATM   19  C   UNL     1      -3.052   4.824 -33.117  1.00  0.00     0.034 A 
HETATM   20 CL   UNL     1      -1.378   5.117 -32.853  1.00  0.00    -0.084 Cl
HETATM   21  C   UNL     1      -3.631   5.159 -34.337  1.00  0.00     0.026 A 
HETATM   22  C   UNL     1      -4.992   4.918 -34.549  1.00  0.00     0.031 A 
ENDBRANCH  13  16
ENDBRANCH  10  12
BRANCH   9  23
HETATM   23  C   UNL     1      -9.284   1.985 -33.128  1.00  0.00    -0.025 A 
HETATM   24  C   UNL     1      -9.063   1.392 -34.383  1.00  0.00     0.052 A 
HETATM   25  C   UNL     1      -8.313   0.225 -34.481  1.00  0.00     0.117 A 
HETATM   26  F   UNL     1      -8.107  -0.326 -35.685  1.00  0.00    -0.206 F 
HETATM   27  C   UNL     1      -7.775  -0.380 -33.352  1.00  0.00     0.042 A 
HETATM   28  C   UNL     1      -7.992   0.190 -32.100  1.00  0.00     0.004 A 
HETATM   29  C   UNL     1      -8.744   1.363 -31.987  1.00  0.00     0.010 A 
ENDBRANCH   9  23
BRANCH   7  30
HETATM   30  C   UNL     1     -14.728   1.574 -33.213  1.00  0.00     0.085 C 
BRANCH  30  31
HETATM   31  C   UNL     1     -15.428   2.086 -31.957  1.00  0.00     0.034 C 
BRANCH  31  32
HETATM   32  C   UNL     1     -16.832   2.612 -32.232  1.00  0.00     0.164 C 
BRANCH  32  33
HETATM   33  O   UNL     1     -17.301   2.095 -33.473  1.00  0.00    -0.401 OA
HETATM   34  H   UNL     1     -16.631   1.472 -33.804  1.00  0.00     0.209 HD
ENDBRANCH  32  33
ENDBRANCH  31  32
ENDBRANCH  30  31
ENDBRANCH   7  30
TORSDOF 7
ENDMDL
MODEL 10
REMARK VINA RESULT:      -7.4      3.893      7.769
REMARK  7 active torsions:
REMARK  status: ('A' for Active; 'I' for Inactive)
REMARK    1  A    between atoms: C_7  and  C_8 
REMARK    2  A    between atoms: C_8  and  C_9 
REMARK    3  A    between atoms: C_9  and  C_10 
REMARK    4  A    between atoms: C_10  and  O_11 
REMARK    5  A    between atoms: C_13  and  C_14 
REMARK    6  A    between atoms: C_21  and  C_22 
REMARK       I    between atoms: C_22  and  N_23 
REMARK    7  A    between atoms: N_23  and  C_24 
ROOT
HETATM    1  C   UNL     1      -9.381   5.762 -34.974  1.00  0.00     0.070 C 
HETATM    2  C   UNL     1      -9.724   4.350 -34.566  1.00  0.00     0.037 C 
HETATM    3  N   UNL     1     -10.883   3.828 -35.131  1.00  0.00    -0.192 N 
HETATM    4  C   UNL     1     -11.457   2.686 -34.705  1.00  0.00     0.726 A 
HETATM    5  N   UNL     1     -10.812   1.910 -33.783  1.00  0.00    -0.083 N 
HETATM    6  N   UNL     1     -11.565   0.851 -33.417  1.00  0.00    -0.140 NA
HETATM    7  C   UNL     1     -12.646   1.034 -34.188  1.00  0.00     0.166 A 
HETATM    8  N   UNL     1     -12.614   2.148 -34.994  1.00  0.00    -0.046 NA
HETATM    9  C   UNL     1      -9.502   2.238 -33.208  1.00  0.00     0.202 C 
HETATM   10  C   UNL     1      -9.031   3.616 -33.662  1.00  0.00     0.062 C 
HETATM   11  H   UNL     1     -11.429   4.437 -35.736  1.00  0.00     0.184 HD
ENDROOT
BRANCH  10  12
HETATM   12  C   UNL     1      -7.822   4.096 -32.944  1.00  0.00     0.256 C 
HETATM   13  N   UNL     1      -8.096   4.623 -31.700  1.00  0.00    -0.323 N 
HETATM   14  H   UNL     1      -9.065   4.629 -31.408  1.00  0.00     0.169 HD
HETATM   15  O   UNL     1      -6.739   4.036 -33.511  1.00  0.00    -0.267 OA
BRANCH  13  16
HETATM   16  C   UNL     1      -7.172   5.156 -30.778  1.00  0.00     0.035 A 
HETATM   17  C   UNL     1      -6.617   4.431 -29.721  1.00  0.00     0.031 A 
HETATM   18  C   UNL     1      -5.709   5.035 -28.843  1.00  0.00     0.026 A 
HETATM   19  C   UNL     1      -5.358   6.371 -29.017  1.00  0.00     0.034 A 
HETATM   20 CL   UNL     1      -4.249   7.114 -27.933  1.00  0.00    -0.084 Cl
HETATM   21  C   UNL     1      -5.903   7.106 -30.064  1.00  0.00     0.026 A 
HETATM   22  C   UNL     1      -6.803   6.498 -30.945  1.00  0.00     0.031 A 
ENDBRANCH  13  16
ENDBRANCH  10  12
BRANCH   9  23
HETATM   23  C   UNL     1      -8.483   1.148 -33.539  1.00  0.00    -0.025 A 
HETATM   24  C   UNL     1      -7.749   0.549 -32.501  1.00  0.00     0.052 A 
HETATM   25  C   UNL     1      -6.803  -0.429 -32.790  1.00  0.00     0.117 A 
HETATM   26  F   UNL     1      -6.114  -0.994 -31.789  1.00  0.00    -0.206 F 
HETATM   27  C   UNL     1      -6.559  -0.828 -34.098  1.00  0.00     0.042 A 
HETATM   28  C   UNL     1      -7.271  -0.238 -35.139  1.00  0.00     0.004 A 
HETATM   29  C   UNL     1      -8.225   0.747 -34.863  1.00  0.00     0.010 A 
ENDBRANCH   9  23
BRANCH   7  30
HETATM   30  C   UNL     1     -13.805   0.105 -34.170  1.00  0.00     0.085 C 
BRANCH  30  31
HETATM   31  C   UNL     1     -15.127   0.792 -33.836  1.00  0.00     0.034 C 
BRANCH  31  32
HETATM   32  C   UNL     1     -14.956   1.986 -32.904  1.00  0.00     0.164 C 
BRANCH  32  33
HETATM   33  O   UNL     1     -15.425   1.648 -31.603  1.00  0.00    -0.401 OA
HETATM   34  H   UNL     1     -14.659   1.353 -31.082  1.00  0.00     0.209 HD
ENDBRANCH  32  33
ENDBRANCH  31  32
ENDBRANCH  30  31
ENDBRANCH   7  30
TORSDOF 7
ENDMDL
