MODEL 1
REMARK VINA RESULT:      -8.6      0.000      0.000
REMARK  2 active torsions:
REMARK  status: ('A' for Active; 'I' for Inactive)
REMARK    1  A    between atoms: C_4  and  C_5 
REMARK    2  A    between atoms: C_10  and  C_11 
ROOT
HETATM    1  C   UNL     1      -5.515   1.343 -32.503  1.00  0.00     0.202 C 
HETATM    2  N   UNL     1      -6.920   1.120 -32.834  1.00  0.00    -0.331 N 
HETATM    3  C   UNL     1      -7.872   2.219 -32.753  1.00  0.00     0.155 C 
HETATM    4  C   UNL     1      -7.192   0.155 -33.811  1.00  0.00     0.256 C 
HETATM    5  O   UNL     1      -8.216   0.131 -34.490  1.00  0.00    -0.267 OA
HETATM    6  C   UNL     1      -6.187  -0.918 -33.978  1.00  0.00     0.053 A 
HETATM    7  C   UNL     1      -5.097  -0.930 -33.103  1.00  0.00     0.026 A 
HETATM    8  N   UNL     1      -4.961   0.044 -32.093  1.00  0.00    -0.266 NA
HETATM    9  C   UNL     1      -6.357  -1.926 -34.931  1.00  0.00     0.019 A 
HETATM   10  C   UNL     1      -5.444  -2.978 -34.991  1.00  0.00     0.001 A 
HETATM   11  C   UNL     1      -4.381  -3.027 -34.087  1.00  0.00     0.002 A 
HETATM   12  C   UNL     1      -4.219  -2.016 -33.138  1.00  0.00     0.024 A 
HETATM   13  H   UNL     1      -5.497  -0.269 -31.287  1.00  0.00     0.130 HD
ENDROOT
BRANCH   1  14
HETATM   14  C   UNL     1      -5.327   2.402 -31.450  1.00  0.00     0.029 A 
HETATM   15  C   UNL     1      -4.730   3.689 -31.593  1.00  0.00     0.121 A 
HETATM   16  N   UNL     1      -4.714   4.366 -30.435  1.00  0.00    -0.172 NA
HETATM   17  N   UNL     1      -5.278   3.527 -29.557  1.00  0.00    -0.288 N 
HETATM   18  H   UNL     1      -5.363   3.828 -28.592  1.00  0.00     0.188 HD
HETATM   19  C   UNL     1      -5.673   2.348 -30.109  1.00  0.00     0.122 A 
BRANCH  15  20
HETATM   20  C   UNL     1      -4.197   4.291 -32.855  1.00  0.00     0.106 A 
HETATM   21  O   UNL     1      -2.873   4.510 -33.118  1.00  0.00    -0.313 OA
HETATM   22  C   UNL     1      -2.781   5.034 -34.371  1.00  0.00     0.050 A 
HETATM   23  C   UNL     1      -1.421   5.338 -34.857  1.00  0.00     0.076 C 
HETATM   24  C   UNL     1      -4.037   5.171 -34.918  1.00  0.00     0.035 A 
HETATM   25  C   UNL     1      -4.947   4.693 -33.944  1.00  0.00     0.042 A 
ENDBRANCH  15  20
ENDBRANCH   1  14
TORSDOF 2
ENDMDL
MODEL 2
REMARK VINA RESULT:      -8.3      1.599      6.285
REMARK  2 active torsions:
REMARK  status: ('A' for Active; 'I' for Inactive)
REMARK    1  A    between atoms: C_4  and  C_5 
REMARK    2  A    between atoms: C_10  and  C_11 
ROOT
HETATM    1  C   UNL     1      -5.879   2.027 -32.832  1.00  0.00     0.202 C 
HETATM    2  N   UNL     1      -5.022   2.067 -31.649  1.00  0.00    -0.331 N 
HETATM    3  C   UNL     1      -5.141   1.037 -30.627  1.00  0.00     0.155 C 
HETATM    4  C   UNL     1      -3.741   2.608 -31.816  1.00  0.00     0.256 C 
HETATM    5  O   UNL     1      -2.785   2.351 -31.090  1.00  0.00    -0.267 OA
HETATM    6  C   UNL     1      -3.576   3.585 -32.915  1.00  0.00     0.053 A 
HETATM    7  C   UNL     1      -4.713   3.949 -33.640  1.00  0.00     0.026 A 
HETATM    8  N   UNL     1      -5.978   3.406 -33.333  1.00  0.00    -0.266 NA
HETATM    9  C   UNL     1      -2.336   4.179 -33.173  1.00  0.00     0.019 A 
HETATM   10  C   UNL     1      -2.238   5.171 -34.147  1.00  0.00     0.001 A 
HETATM   11  C   UNL     1      -3.379   5.578 -34.842  1.00  0.00     0.002 A 
HETATM   12  C   UNL     1      -4.614   4.980 -34.577  1.00  0.00     0.024 A 
HETATM   13  H   UNL     1      -6.383   3.968 -32.588  1.00  0.00     0.130 HD
ENDROOT
BRANCH   1  14
HETATM   14  C   UNL     1      -7.228   1.423 -32.551  1.00  0.00     0.029 A 
HETATM   15  C   UNL     1      -7.688   0.111 -32.868  1.00  0.00     0.121 A 
HETATM   16  N   UNL     1      -8.959  -0.081 -32.485  1.00  0.00    -0.172 NA
HETATM   17  N   UNL     1      -9.319   1.089 -31.943  1.00  0.00    -0.288 N 
HETATM   18  H   UNL     1     -10.265   1.184 -31.588  1.00  0.00     0.188 HD
HETATM   19  C   UNL     1      -8.325   2.017 -31.945  1.00  0.00     0.122 A 
BRANCH  15  20
HETATM   20  C   UNL     1      -6.896  -0.981 -33.515  1.00  0.00     0.106 A 
HETATM   21  O   UNL     1      -7.419  -2.154 -33.985  1.00  0.00    -0.313 OA
HETATM   22  C   UNL     1      -6.400  -2.871 -34.532  1.00  0.00     0.050 A 
HETATM   23  C   UNL     1      -6.758  -4.181 -35.112  1.00  0.00     0.076 C 
HETATM   24  C   UNL     1      -5.216  -2.180 -34.409  1.00  0.00     0.035 A 
HETATM   25  C   UNL     1      -5.535  -0.964 -33.755  1.00  0.00     0.042 A 
ENDBRANCH  15  20
ENDBRANCH   1  14
TORSDOF 2
ENDMDL
MODEL 3
REMARK VINA RESULT:      -7.9      2.966      5.785
REMARK  2 active torsions:
REMARK  status: ('A' for Active; 'I' for Inactive)
REMARK    1  A    between atoms: C_4  and  C_5 
REMARK    2  A    between atoms: C_10  and  C_11 
ROOT
HETATM    1  C   UNL     1      -8.405   2.184 -32.570  1.00  0.00     0.202 C 
HETATM    2  N   UNL     1      -8.448   3.598 -32.932  1.00  0.00    -0.331 N 
HETATM    3  C   UNL     1      -7.284   4.445 -32.707  1.00  0.00     0.155 C 
HETATM    4  C   UNL     1      -9.244   3.945 -34.032  1.00  0.00     0.256 C 
HETATM    5  O   UNL     1      -9.079   4.955 -34.710  1.00  0.00    -0.267 OA
HETATM    6  C   UNL     1     -10.375   3.042 -34.337  1.00  0.00     0.053 A 
HETATM    7  C   UNL     1     -10.608   1.972 -33.469  1.00  0.00     0.026 A 
HETATM    8  N   UNL     1      -9.794   1.761 -32.337  1.00  0.00    -0.266 NA
HETATM    9  C   UNL     1     -11.227   3.291 -35.418  1.00  0.00     0.019 A 
HETATM   10  C   UNL     1     -12.343   2.480 -35.616  1.00  0.00     0.001 A 
HETATM   11  C   UNL     1     -12.613   1.440 -34.724  1.00  0.00     0.002 A 
HETATM   12  C   UNL     1     -11.757   1.199 -33.646  1.00  0.00     0.024 A 
HETATM   13  H   UNL     1     -10.160   2.337 -31.582  1.00  0.00     0.130 HD
ENDROOT
BRANCH   1  14
HETATM   14  C   UNL     1      -7.519   1.915 -31.384  1.00  0.00     0.029 A 
HETATM   15  C   UNL     1      -6.502   0.923 -31.252  1.00  0.00     0.121 A 
HETATM   16  N   UNL     1      -5.923   0.957 -30.043  1.00  0.00    -0.172 NA
HETATM   17  N   UNL     1      -6.562   1.943 -29.401  1.00  0.00    -0.288 N 
HETATM   18  H   UNL     1      -6.294   2.145 -28.443  1.00  0.00     0.188 HD
HETATM   19  C   UNL     1      -7.514   2.555 -30.155  1.00  0.00     0.122 A 
BRANCH  15  20
HETATM   20  C   UNL     1      -6.059  -0.046 -32.302  1.00  0.00     0.106 A 
HETATM   21  O   UNL     1      -6.873  -0.950 -32.925  1.00  0.00    -0.313 OA
HETATM   22  C   UNL     1      -6.120  -1.626 -33.836  1.00  0.00     0.050 A 
HETATM   23  C   UNL     1      -6.819  -2.654 -34.632  1.00  0.00     0.076 C 
HETATM   24  C   UNL     1      -4.820  -1.175 -33.801  1.00  0.00     0.035 A 
HETATM   25  C   UNL     1      -4.780  -0.159 -32.815  1.00  0.00     0.042 A 
ENDBRANCH  15  20
ENDBRANCH   1  14
TORSDOF 2
ENDMDL
MODEL 4
REMARK VINA RESULT:      -7.6      1.770      6.218
REMARK  2 active torsions:
REMARK  status: ('A' for Active; 'I' for Inactive)
REMARK    1  A    between atoms: C_4  and  C_5 
REMARK    2  A    between atoms: C_10  and  C_11 
ROOT
HETATM    1  C   UNL     1      -5.991   2.789 -33.586  1.00  0.00     0.202 C 
HETATM    2  N   UNL     1      -5.856   3.090 -32.163  1.00  0.00    -0.331 N 
HETATM    3  C   UNL     1      -6.592   2.309 -31.179  1.00  0.00     0.155 C 
HETATM    4  C   UNL     1      -4.617   3.586 -31.737  1.00  0.00     0.256 C 
HETATM    5  O   UNL     1      -4.198   3.497 -30.586  1.00  0.00    -0.267 OA
HETATM    6  C   UNL     1      -3.808   4.299 -32.751  1.00  0.00     0.053 A 
HETATM    7  C   UNL     1      -4.370   4.490 -34.016  1.00  0.00     0.026 A 
HETATM    8  N   UNL     1      -5.666   4.023 -34.316  1.00  0.00    -0.266 NA
HETATM    9  C   UNL     1      -2.552   4.825 -32.433  1.00  0.00     0.019 A 
HETATM   10  C   UNL     1      -1.863   5.580 -33.381  1.00  0.00     0.001 A 
HETATM   11  C   UNL     1      -2.439   5.821 -34.630  1.00  0.00     0.002 A 
HETATM   12  C   UNL     1      -3.694   5.291 -34.939  1.00  0.00     0.024 A 
HETATM   13  H   UNL     1      -6.329   4.734 -34.013  1.00  0.00     0.130 HD
ENDROOT
BRANCH   1  14
HETATM   14  C   UNL     1      -7.353   2.256 -33.940  1.00  0.00     0.029 A 
HETATM   15  C   UNL     1      -7.724   0.909 -34.227  1.00  0.00     0.121 A 
HETATM   16  N   UNL     1      -9.028   0.801 -34.523  1.00  0.00    -0.172 NA
HETATM   17  N   UNL     1      -9.488   2.056 -34.443  1.00  0.00    -0.288 N 
HETATM   18  H   UNL     1     -10.469   2.221 -34.642  1.00  0.00     0.188 HD
HETATM   19  C   UNL     1      -8.537   2.962 -34.088  1.00  0.00     0.122 A 
BRANCH  15  20
HETATM   20  C   UNL     1      -6.831  -0.290 -34.187  1.00  0.00     0.106 A 
HETATM   21  O   UNL     1      -5.705  -0.403 -33.419  1.00  0.00    -0.313 OA
HETATM   22  C   UNL     1      -5.185  -1.643 -33.626  1.00  0.00     0.050 A 
HETATM   23  C   UNL     1      -3.958  -1.974 -32.874  1.00  0.00     0.076 C 
HETATM   24  C   UNL     1      -5.957  -2.334 -34.533  1.00  0.00     0.035 A 
HETATM   25  C   UNL     1      -7.015  -1.464 -34.894  1.00  0.00     0.042 A 
ENDBRANCH  15  20
ENDBRANCH   1  14
TORSDOF 2
ENDMDL
MODEL 5
REMARK VINA RESULT:      -7.3     15.404     16.990
REMARK  2 active torsions:
REMARK  status: ('A' for Active; 'I' for Inactive)
REMARK    1  A    between atoms: C_4  and  C_5 
REMARK    2  A    between atoms: C_10  and  C_11 
ROOT
HETATM    1  C   UNL     1      -6.523 -13.399 -38.927  1.00  0.00     0.202 C 
HETATM    2  N   UNL     1      -6.500 -14.587 -39.776  1.00  0.00    -0.331 N 
HETATM    3  C   UNL     1      -5.401 -15.537 -39.676  1.00  0.00     0.155 C 
HETATM    4  C   UNL     1      -7.741 -15.134 -40.129  1.00  0.00     0.256 C 
HETATM    5  O   UNL     1      -7.909 -16.305 -40.460  1.00  0.00    -0.267 OA
HETATM    6  C   UNL     1      -8.892 -14.205 -40.142  1.00  0.00     0.053 A 
HETATM    7  C   UNL     1      -8.642 -12.854 -39.884  1.00  0.00     0.026 A 
HETATM    8  N   UNL     1      -7.336 -12.392 -39.623  1.00  0.00    -0.266 NA
HETATM    9  C   UNL     1     -10.176 -14.649 -40.472  1.00  0.00     0.019 A 
HETATM   10  C   UNL     1     -11.217 -13.729 -40.575  1.00  0.00     0.001 A 
HETATM   11  C   UNL     1     -10.967 -12.371 -40.370  1.00  0.00     0.002 A 
HETATM   12  C   UNL     1      -9.681 -11.935 -40.042  1.00  0.00     0.024 A 
HETATM   13  H   UNL     1      -6.887 -12.211 -40.519  1.00  0.00     0.130 HD
ENDROOT
BRANCH   1  14
HETATM   14  C   UNL     1      -5.144 -12.894 -38.599  1.00  0.00     0.029 A 
HETATM   15  C   UNL     1      -4.444 -12.986 -37.360  1.00  0.00     0.121 A 
HETATM   16  N   UNL     1      -3.235 -12.407 -37.422  1.00  0.00    -0.172 NA
HETATM   17  N   UNL     1      -3.161 -11.938 -38.674  1.00  0.00    -0.288 N 
HETATM   18  H   UNL     1      -2.320 -11.441 -38.951  1.00  0.00     0.188 HD
HETATM   19  C   UNL     1      -4.263 -12.209 -39.423  1.00  0.00     0.122 A 
BRANCH  15  20
HETATM   20  C   UNL     1      -4.922 -13.660 -36.113  1.00  0.00     0.106 A 
HETATM   21  O   UNL     1      -4.957 -13.081 -34.875  1.00  0.00    -0.313 OA
HETATM   22  C   UNL     1      -5.482 -13.988 -34.007  1.00  0.00     0.050 A 
HETATM   23  C   UNL     1      -5.617 -13.553 -32.603  1.00  0.00     0.076 C 
HETATM   24  C   UNL     1      -5.777 -15.159 -34.670  1.00  0.00     0.035 A 
HETATM   25  C   UNL     1      -5.417 -14.948 -36.023  1.00  0.00     0.042 A 
ENDBRANCH  15  20
ENDBRANCH   1  14
TORSDOF 2
ENDMDL
MODEL 6
REMARK VINA RESULT:      -7.2      2.392      5.875
REMARK  2 active torsions:
REMARK  status: ('A' for Active; 'I' for Inactive)
REMARK    1  A    between atoms: C_4  and  C_5 
REMARK    2  A    between atoms: C_10  and  C_11 
ROOT
HETATM    1  C   UNL     1      -4.758   4.361 -31.335  1.00  0.00     0.202 C 
HETATM    2  N   UNL     1      -4.911   4.364 -32.788  1.00  0.00    -0.331 N 
HETATM    3  C   UNL     1      -6.227   4.178 -33.383  1.00  0.00     0.155 C 
HETATM    4  C   UNL     1      -4.027   5.171 -33.515  1.00  0.00     0.256 C 
HETATM    5  O   UNL     1      -4.260   5.611 -34.638  1.00  0.00    -0.267 OA
HETATM    6  C   UNL     1      -2.720   5.453 -32.882  1.00  0.00     0.053 A 
HETATM    7  C   UNL     1      -2.440   4.834 -31.661  1.00  0.00     0.026 A 
HETATM    8  N   UNL     1      -3.370   3.967 -31.053  1.00  0.00    -0.266 NA
HETATM    9  C   UNL     1      -1.768   6.256 -33.518  1.00  0.00     0.019 A 
HETATM   10  C   UNL     1      -0.508   6.417 -32.943  1.00  0.00     0.001 A 
HETATM   11  C   UNL     1      -0.201   5.761 -31.749  1.00  0.00     0.002 A 
HETATM   12  C   UNL     1      -1.158   4.960 -31.120  1.00  0.00     0.024 A 
HETATM   13  H   UNL     1      -3.235   3.040 -31.451  1.00  0.00     0.130 HD
ENDROOT
BRANCH   1  14
HETATM   14  C   UNL     1      -5.756   3.470 -30.647  1.00  0.00     0.029 A 
HETATM   15  C   UNL     1      -5.872   2.051 -30.728  1.00  0.00     0.121 A 
HETATM   16  N   UNL     1      -6.895   1.588 -29.994  1.00  0.00    -0.172 NA
HETATM   17  N   UNL     1      -7.438   2.689 -29.459  1.00  0.00    -0.288 N 
HETATM   18  H   UNL     1      -8.252   2.581 -28.862  1.00  0.00     0.188 HD
HETATM   19  C   UNL     1      -6.794   3.836 -29.804  1.00  0.00     0.122 A 
BRANCH  15  20
HETATM   20  C   UNL     1      -4.978   1.124 -31.490  1.00  0.00     0.106 A 
HETATM   21  O   UNL     1      -3.840   0.552 -30.994  1.00  0.00    -0.313 OA
HETATM   22  C   UNL     1      -3.323  -0.250 -31.965  1.00  0.00     0.050 A 
HETATM   23  C   UNL     1      -2.083  -0.977 -31.624  1.00  0.00     0.076 C 
HETATM   24  C   UNL     1      -4.109  -0.192 -33.093  1.00  0.00     0.035 A 
HETATM   25  C   UNL     1      -5.173   0.692 -32.789  1.00  0.00     0.042 A 
ENDBRANCH  15  20
ENDBRANCH   1  14
TORSDOF 2
ENDMDL
MODEL 7
REMARK VINA RESULT:      -7.2     15.725     17.058
REMARK  2 active torsions:
REMARK  status: ('A' for Active; 'I' for Inactive)
REMARK    1  A    between atoms: C_4  and  C_5 
REMARK    2  A    between atoms: C_10  and  C_11 
ROOT
HETATM    1  C   UNL     1      -7.445 -13.930 -36.972  1.00  0.00     0.202 C 
HETATM    2  N   UNL     1      -7.535 -15.267 -37.555  1.00  0.00    -0.331 N 
HETATM    3  C   UNL     1      -6.991 -16.413 -36.840  1.00  0.00     0.155 C 
HETATM    4  C   UNL     1      -8.650 -15.530 -38.361  1.00  0.00     0.256 C 
HETATM    5  O   UNL     1      -9.095 -16.655 -38.575  1.00  0.00    -0.267 OA
HETATM    6  C   UNL     1      -9.279 -14.364 -39.019  1.00  0.00     0.053 A 
HETATM    7  C   UNL     1      -8.671 -13.116 -38.854  1.00  0.00     0.026 A 
HETATM    8  N   UNL     1      -7.495 -12.974 -38.088  1.00  0.00    -0.266 NA
HETATM    9  C   UNL     1     -10.402 -14.514 -39.837  1.00  0.00     0.019 A 
HETATM   10  C   UNL     1     -10.906 -13.411 -40.524  1.00  0.00     0.001 A 
HETATM   11  C   UNL     1     -10.275 -12.172 -40.406  1.00  0.00     0.002 A 
HETATM   12  C   UNL     1      -9.152 -12.030 -39.587  1.00  0.00     0.024 A 
HETATM   13  H   UNL     1      -6.704 -13.179 -38.695  1.00  0.00     0.130 HD
ENDROOT
BRANCH   1  14
HETATM   14  C   UNL     1      -6.218 -13.750 -36.120  1.00  0.00     0.029 A 
HETATM   15  C   UNL     1      -4.850 -13.822 -36.520  1.00  0.00     0.121 A 
HETATM   16  N   UNL     1      -4.015 -13.628 -35.488  1.00  0.00    -0.172 NA
HETATM   17  N   UNL     1      -4.828 -13.448 -34.439  1.00  0.00    -0.288 N 
HETATM   18  H   UNL     1      -4.408 -13.292 -33.528  1.00  0.00     0.188 HD
HETATM   19  C   UNL     1      -6.149 -13.498 -34.759  1.00  0.00     0.122 A 
BRANCH  15  20
HETATM   20  C   UNL     1      -4.336 -14.048 -37.906  1.00  0.00     0.106 A 
HETATM   21  O   UNL     1      -4.902 -13.541 -39.043  1.00  0.00    -0.313 OA
HETATM   22  C   UNL     1      -4.136 -13.932 -40.097  1.00  0.00     0.050 A 
HETATM   23  C   UNL     1      -4.574 -13.476 -41.432  1.00  0.00     0.076 C 
HETATM   24  C   UNL     1      -3.083 -14.701 -39.656  1.00  0.00     0.035 A 
HETATM   25  C   UNL     1      -3.211 -14.776 -38.248  1.00  0.00     0.042 A 
ENDBRANCH  15  20
ENDBRANCH   1  14
TORSDOF 2
ENDMDL
MODEL 8
REMARK VINA RESULT:      -7.0      3.039      6.675
REMARK  2 active torsions:
REMARK  status: ('A' for Active; 'I' for Inactive)
REMARK    1  A    between atoms: C_4  and  C_5 
REMARK    2  A    between atoms: C_10  and  C_11 
ROOT
HETATM    1  C   UNL     1      -3.701   4.176 -31.846  1.00  0.00     0.202 C 
HETATM    2  N   UNL     1      -3.547   4.769 -33.172  1.00  0.00    -0.331 N 
HETATM    3  C   UNL     1      -4.659   4.753 -34.113  1.00  0.00     0.155 C 
HETATM    4  C   UNL     1      -2.682   5.866 -33.277  1.00  0.00     0.256 C 
HETATM    5  O   UNL     1      -2.748   6.713 -34.164  1.00  0.00    -0.267 OA
HETATM    6  C   UNL     1      -1.602   5.953 -32.269  1.00  0.00     0.053 A 
HETATM    7  C   UNL     1      -1.481   4.905 -31.352  1.00  0.00     0.026 A 
HETATM    8  N   UNL     1      -2.356   3.800 -31.388  1.00  0.00    -0.266 NA
HETATM    9  C   UNL     1      -0.690   7.012 -32.278  1.00  0.00     0.019 A 
HETATM   10  C   UNL     1       0.376   7.009 -31.380  1.00  0.00     0.001 A 
HETATM   11  C   UNL     1       0.536   5.942 -30.494  1.00  0.00     0.002 A 
HETATM   12  C   UNL     1      -0.380   4.887 -30.493  1.00  0.00     0.024 A 
HETATM   13  H   UNL     1      -1.984   3.134 -32.062  1.00  0.00     0.130 HD
ENDROOT
BRANCH   1  14
HETATM   14  C   UNL     1      -4.654   3.011 -31.838  1.00  0.00     0.029 A 
HETATM   15  C   UNL     1      -5.998   2.977 -31.362  1.00  0.00     0.121 A 
HETATM   16  N   UNL     1      -6.546   1.760 -31.494  1.00  0.00    -0.172 NA
HETATM   17  N   UNL     1      -5.570   1.018 -32.032  1.00  0.00    -0.288 N 
HETATM   18  H   UNL     1      -5.758   0.037 -32.213  1.00  0.00     0.188 HD
HETATM   19  C   UNL     1      -4.426   1.714 -32.269  1.00  0.00     0.122 A 
BRANCH  15  20
HETATM   20  C   UNL     1      -6.777   4.127 -30.805  1.00  0.00     0.106 A 
HETATM   21  O   UNL     1      -7.369   5.106 -31.553  1.00  0.00    -0.313 OA
HETATM   22  C   UNL     1      -8.010   5.950 -30.698  1.00  0.00     0.050 A 
HETATM   23  C   UNL     1      -8.729   7.084 -31.312  1.00  0.00     0.076 C 
HETATM   24  C   UNL     1      -7.828   5.533 -29.399  1.00  0.00     0.035 A 
HETATM   25  C   UNL     1      -7.036   4.361 -29.467  1.00  0.00     0.042 A 
ENDBRANCH  15  20
ENDBRANCH   1  14
TORSDOF 2
ENDMDL
MODEL 9
REMARK VINA RESULT:      -7.0      1.974      2.617
REMARK  2 active torsions:
REMARK  status: ('A' for Active; 'I' for Inactive)
REMARK    1  A    between atoms: C_4  and  C_5 
REMARK    2  A    between atoms: C_10  and  C_11 
ROOT
HETATM    1  C   UNL     1      -6.960   1.572 -31.773  1.00  0.00     0.202 C 
HETATM    2  N   UNL     1      -5.586   1.407 -31.305  1.00  0.00    -0.331 N 
HETATM    3  C   UNL     1      -5.144   2.075 -30.088  1.00  0.00     0.155 C 
HETATM    4  C   UNL     1      -4.968   0.181 -31.580  1.00  0.00     0.256 C 
HETATM    5  O   UNL     1      -4.029  -0.278 -30.935  1.00  0.00    -0.267 OA
HETATM    6  C   UNL     1      -5.471  -0.562 -32.757  1.00  0.00     0.053 A 
HETATM    7  C   UNL     1      -6.454   0.048 -33.541  1.00  0.00     0.026 A 
HETATM    8  N   UNL     1      -6.949   1.330 -33.223  1.00  0.00    -0.266 NA
HETATM    9  C   UNL     1      -4.930  -1.800 -33.115  1.00  0.00     0.019 A 
HETATM   10  C   UNL     1      -5.354  -2.423 -34.288  1.00  0.00     0.001 A 
HETATM   11  C   UNL     1      -6.298  -1.798 -35.104  1.00  0.00     0.002 A 
HETATM   12  C   UNL     1      -6.833  -0.560 -34.740  1.00  0.00     0.024 A 
HETATM   13  H   UNL     1      -6.321   2.015 -33.637  1.00  0.00     0.130 HD
ENDROOT
BRANCH   1  14
HETATM   14  C   UNL     1      -7.535   2.918 -31.423  1.00  0.00     0.029 A 
HETATM   15  C   UNL     1      -7.071   4.205 -31.825  1.00  0.00     0.121 A 
HETATM   16  N   UNL     1      -7.818   5.192 -31.308  1.00  0.00    -0.172 NA
HETATM   17  N   UNL     1      -8.739   4.555 -30.574  1.00  0.00    -0.288 N 
HETATM   18  H   UNL     1      -9.421   5.113 -30.069  1.00  0.00     0.188 HD
HETATM   19  C   UNL     1      -8.626   3.201 -30.615  1.00  0.00     0.122 A 
BRANCH  15  20
HETATM   20  C   UNL     1      -5.921   4.494 -32.737  1.00  0.00     0.106 A 
HETATM   21  O   UNL     1      -4.610   4.548 -32.351  1.00  0.00    -0.313 OA
HETATM   22  C   UNL     1      -3.862   4.799 -33.459  1.00  0.00     0.050 A 
HETATM   23  C   UNL     1      -2.402   4.888 -33.259  1.00  0.00     0.076 C 
HETATM   24  C   UNL     1      -4.677   4.922 -34.561  1.00  0.00     0.035 A 
HETATM   25  C   UNL     1      -6.001   4.726 -34.098  1.00  0.00     0.042 A 
ENDBRANCH  15  20
ENDBRANCH   1  14
TORSDOF 2
ENDMDL
MODEL 10
REMARK VINA RESULT:      -7.0     15.575     17.317
REMARK  2 active torsions:
REMARK  status: ('A' for Active; 'I' for Inactive)
REMARK    1  A    between atoms: C_4  and  C_5 
REMARK    2  A    between atoms: C_10  and  C_11 
ROOT
HETATM    1  C   UNL     1      -5.939 -13.188 -39.936  1.00  0.00     0.202 C 
HETATM    2  N   UNL     1      -5.588 -14.554 -40.316  1.00  0.00    -0.331 N 
HETATM    3  C   UNL     1      -6.525 -15.362 -41.084  1.00  0.00     0.155 C 
HETATM    4  C   UNL     1      -4.232 -14.816 -40.548  1.00  0.00     0.256 C 
HETATM    5  O   UNL     1      -3.818 -15.736 -41.250  1.00  0.00    -0.267 OA
HETATM    6  C   UNL     1      -3.262 -13.942 -39.853  1.00  0.00     0.053 A 
HETATM    7  C   UNL     1      -3.766 -12.987 -38.965  1.00  0.00     0.026 A 
HETATM    8  N   UNL     1      -5.152 -12.863 -38.738  1.00  0.00    -0.266 NA
HETATM    9  C   UNL     1      -1.885 -14.112 -40.023  1.00  0.00     0.019 A 
HETATM   10  C   UNL     1      -0.998 -13.340 -39.273  1.00  0.00     0.001 A 
HETATM   11  C   UNL     1      -1.491 -12.420 -38.346  1.00  0.00     0.002 A 
HETATM   12  C   UNL     1      -2.869 -12.257 -38.182  1.00  0.00     0.024 A 
HETATM   13  H   UNL     1      -5.408 -13.536 -38.018  1.00  0.00     0.130 HD
ENDROOT
BRANCH   1  14
HETATM   14  C   UNL     1      -7.416 -13.008 -39.716  1.00  0.00     0.029 A 
HETATM   15  C   UNL     1      -8.196 -13.423 -38.596  1.00  0.00     0.121 A 
HETATM   16  N   UNL     1      -9.493 -13.113 -38.745  1.00  0.00    -0.172 NA
HETATM   17  N   UNL     1      -9.552 -12.520 -39.945  1.00  0.00    -0.288 N 
HETATM   18  H   UNL     1     -10.456 -12.205 -40.280  1.00  0.00     0.188 HD
HETATM   19  C   UNL     1      -8.344 -12.420 -40.562  1.00  0.00     0.122 A 
BRANCH  15  20
HETATM   20  C   UNL     1      -7.694 -14.096 -37.358  1.00  0.00     0.106 A 
HETATM   21  O   UNL     1      -7.280 -13.446 -36.228  1.00  0.00    -0.313 OA
HETATM   22  C   UNL     1      -6.930 -14.390 -35.312  1.00  0.00     0.050 A 
HETATM   23  C   UNL     1      -6.459 -13.893 -34.004  1.00  0.00     0.076 C 
HETATM   24  C   UNL     1      -7.101 -15.649 -35.843  1.00  0.00     0.035 A 
HETATM   25  C   UNL     1      -7.592 -15.460 -37.158  1.00  0.00     0.042 A 
ENDBRANCH  15  20
ENDBRANCH   1  14
TORSDOF 2
ENDMDL
