MODEL 1
REMARK VINA RESULT:      -9.6      0.000      0.000
REMARK  9 active torsions:
REMARK  status: ('A' for Active; 'I' for Inactive)
REMARK    1  A    between atoms: C_2  and  O_3 
REMARK    2  A    between atoms: O_3  and  C_4 
REMARK    3  A    between atoms: C_5  and  C_6 
REMARK    4  A    between atoms: C_7  and  C_8 
REMARK       I    between atoms: C_8  and  N_9 
REMARK    5  A    between atoms: N_9  and  C_10 
REMARK    6  A    between atoms: C_20  and  S_21 
REMARK    7  A    between atoms: S_21  and  C_22 
REMARK    8  A    between atoms: C_22  and  C_23 
REMARK       I    between atoms: C_23  and  N_24 
REMARK    9  A    between atoms: N_24  and  C_25 
ROOT
HETATM    1  C   UNL     1      -7.050   2.361 -30.930  1.00  0.00     0.107 A 
HETATM    2  C   UNL     1      -5.674   1.765 -31.228  1.00  0.00     0.046 A 
HETATM    3  C   UNL     1      -4.553   2.510 -31.092  1.00  0.00     0.019 A 
HETATM    4  C   UNL     1      -3.140   1.991 -31.187  1.00  0.00     0.069 C 
HETATM    5  N   UNL     1      -4.656   3.856 -30.789  1.00  0.00    -0.353 N 
HETATM    6  C   UNL     1      -5.836   4.548 -30.570  1.00  0.00     0.087 A 
HETATM    7  C   UNL     1      -7.004   3.850 -30.577  1.00  0.00     0.055 A 
HETATM    8  C   UNL     1      -8.318   4.512 -30.193  1.00  0.00     0.019 C 
HETATM    9  N   UNL     1      -9.407   5.061 -29.875  1.00  0.00    -0.096 N 
HETATM   10  H   UNL     1      -3.812   4.402 -30.949  1.00  0.00     0.166 HD
ENDROOT
BRANCH   1  11
HETATM   11  C   UNL     1      -8.082   2.043 -32.023  1.00  0.00    -0.011 A 
HETATM   12  C   UNL     1      -8.131   2.716 -33.259  1.00  0.00     0.076 A 
HETATM   13  C   UNL     1      -9.086   2.345 -34.215  1.00  0.00     0.037 A 
HETATM   14  C   UNL     1     -10.001   1.326 -33.948  1.00  0.00     0.003 A 
HETATM   15  C   UNL     1      -9.967   0.660 -32.732  1.00  0.00     0.001 A 
HETATM   16  C   UNL     1      -9.015   1.013 -31.778  1.00  0.00     0.011 A 
BRANCH  12  17
HETATM   17  O   UNL     1      -7.192   3.689 -33.460  1.00  0.00    -0.351 OA
BRANCH  17  18
HETATM   18  C   UNL     1      -6.108   3.414 -34.346  1.00  0.00     0.171 C 
HETATM   19  C   UNL     1      -5.106   4.557 -34.380  1.00  0.00     0.034 C 
ENDBRANCH  17  18
ENDBRANCH  12  17
ENDBRANCH   1  11
BRANCH   6  20
HETATM   20  S   UNL     1      -5.887   6.288 -30.253  1.00  0.00    -0.102 SA
BRANCH  20  21
HETATM   21  C   UNL     1      -5.019   7.059 -31.638  1.00  0.00     0.184 C 
BRANCH  21  22
HETATM   22  C   UNL     1      -3.701   7.677 -31.207  1.00  0.00     0.231 C 
HETATM   23  N   UNL     1      -2.982   6.894 -30.324  1.00  0.00    -0.327 N 
HETATM   24  H   UNL     1      -3.412   6.018 -30.045  1.00  0.00     0.169 HD
HETATM   25  O   UNL     1      -3.390   8.789 -31.637  1.00  0.00    -0.272 OA
BRANCH  23  26
HETATM   26  C   UNL     1      -1.795   7.237 -29.642  1.00  0.00     0.034 A 
HETATM   27  C   UNL     1      -0.514   6.926 -30.098  1.00  0.00     0.030 A 
HETATM   28  C   UNL     1       0.617   7.397 -29.419  1.00  0.00     0.009 A 
HETATM   29  C   UNL     1       0.485   8.178 -28.268  1.00  0.00    -0.062 A 
HETATM   30  C   UNL     1       1.689   8.718 -27.556  1.00  0.00     0.048 C 
HETATM   31  C   UNL     1      -0.799   8.455 -27.787  1.00  0.00     0.009 A 
HETATM   32  C   UNL     1      -1.928   7.986 -28.466  1.00  0.00     0.030 A 
ENDBRANCH  23  26
ENDBRANCH  21  22
ENDBRANCH  20  21
ENDBRANCH   6  20
BRANCH   2  33
HETATM   33  C   UNL     1      -5.673   0.321 -31.604  1.00  0.00     0.255 C 
HETATM   34  N   UNL     1      -5.450   0.107 -32.949  1.00  0.00    -0.323 N 
HETATM   35  H   UNL     1      -5.181   0.905 -33.510  1.00  0.00     0.169 HD
HETATM   36  O   UNL     1      -5.879  -0.529 -30.747  1.00  0.00    -0.268 OA
BRANCH  34  37
HETATM   37  C   UNL     1      -5.510  -1.124 -33.628  1.00  0.00     0.035 A 
HETATM   38  C   UNL     1      -4.384  -1.906 -33.888  1.00  0.00     0.029 A 
HETATM   39  C   UNL     1      -4.520  -3.145 -34.518  1.00  0.00     0.002 A 
HETATM   40  C   UNL     1      -5.777  -3.596 -34.918  1.00  0.00     0.000 A 
HETATM   41  C   UNL     1      -6.903  -2.814 -34.673  1.00  0.00     0.002 A 
HETATM   42  C   UNL     1      -6.773  -1.591 -34.012  1.00  0.00     0.029 A 
ENDBRANCH  34  37
ENDBRANCH   2  33
TORSDOF 9
ENDMDL
MODEL 2
REMARK VINA RESULT:      -9.4      2.124      9.635
REMARK  9 active torsions:
REMARK  status: ('A' for Active; 'I' for Inactive)
REMARK    1  A    between atoms: C_2  and  O_3 
REMARK    2  A    between atoms: O_3  and  C_4 
REMARK    3  A    between atoms: C_5  and  C_6 
REMARK    4  A    between atoms: C_7  and  C_8 
REMARK       I    between atoms: C_8  and  N_9 
REMARK    5  A    between atoms: N_9  and  C_10 
REMARK    6  A    between atoms: C_20  and  S_21 
REMARK    7  A    between atoms: S_21  and  C_22 
REMARK    8  A    between atoms: C_22  and  C_23 
REMARK       I    between atoms: C_23  and  N_24 
REMARK    9  A    between atoms: N_24  and  C_25 
ROOT
HETATM    1  C   UNL     1      -3.739   4.613 -30.987  1.00  0.00     0.107 A 
HETATM    2  C   UNL     1      -4.474   5.767 -30.306  1.00  0.00     0.046 A 
HETATM    3  C   UNL     1      -5.777   5.652 -29.962  1.00  0.00     0.019 A 
HETATM    4  C   UNL     1      -6.556   6.646 -29.137  1.00  0.00     0.069 C 
HETATM    5  N   UNL     1      -6.485   4.521 -30.327  1.00  0.00    -0.353 N 
HETATM    6  C   UNL     1      -5.973   3.432 -31.014  1.00  0.00     0.087 A 
HETATM    7  C   UNL     1      -4.643   3.418 -31.300  1.00  0.00     0.055 A 
HETATM    8  C   UNL     1      -3.984   2.191 -31.911  1.00  0.00     0.019 C 
HETATM    9  N   UNL     1      -3.437   1.175 -32.418  1.00  0.00    -0.096 N 
HETATM   10  H   UNL     1      -7.498   4.606 -30.265  1.00  0.00     0.166 HD
ENDROOT
BRANCH   1  11
HETATM   11  C   UNL     1      -2.917   5.068 -32.203  1.00  0.00    -0.011 A 
HETATM   12  C   UNL     1      -1.512   5.151 -32.198  1.00  0.00     0.076 A 
HETATM   13  C   UNL     1      -0.835   5.548 -33.359  1.00  0.00     0.037 A 
HETATM   14  C   UNL     1      -1.541   5.877 -34.517  1.00  0.00     0.003 A 
HETATM   15  C   UNL     1      -2.926   5.804 -34.532  1.00  0.00     0.001 A 
HETATM   16  C   UNL     1      -3.609   5.402 -33.386  1.00  0.00     0.011 A 
BRANCH  12  17
HETATM   17  O   UNL     1      -0.885   4.795 -31.036  1.00  0.00    -0.351 OA
BRANCH  17  18
HETATM   18  C   UNL     1       0.523   5.005 -30.931  1.00  0.00     0.171 C 
HETATM   19  C   UNL     1       1.045   4.640 -29.551  1.00  0.00     0.034 C 
ENDBRANCH  17  18
ENDBRANCH  12  17
ENDBRANCH   1  11
BRANCH   6  20
HETATM   20  S   UNL     1      -6.964   2.052 -31.505  1.00  0.00    -0.102 SA
BRANCH  20  21
HETATM   21  C   UNL     1      -7.317   2.307 -33.259  1.00  0.00     0.184 C 
BRANCH  21  22
HETATM   22  C   UNL     1      -6.999   1.074 -34.086  1.00  0.00     0.231 C 
HETATM   23  N   UNL     1      -6.654  -0.030 -33.328  1.00  0.00    -0.327 N 
HETATM   24  H   UNL     1      -6.628   0.104 -32.323  1.00  0.00     0.169 HD
HETATM   25  O   UNL     1      -7.049   1.146 -35.314  1.00  0.00    -0.272 OA
BRANCH  23  26
HETATM   26  C   UNL     1      -6.181  -1.276 -33.793  1.00  0.00     0.034 A 
HETATM   27  C   UNL     1      -4.847  -1.678 -33.726  1.00  0.00     0.030 A 
HETATM   28  C   UNL     1      -4.475  -2.974 -34.109  1.00  0.00     0.009 A 
HETATM   29  C   UNL     1      -5.429  -3.882 -34.574  1.00  0.00    -0.062 A 
HETATM   30  C   UNL     1      -5.046  -5.283 -34.950  1.00  0.00     0.048 C 
HETATM   31  C   UNL     1      -6.760  -3.465 -34.681  1.00  0.00     0.009 A 
HETATM   32  C   UNL     1      -7.131  -2.172 -34.296  1.00  0.00     0.030 A 
ENDBRANCH  23  26
ENDBRANCH  21  22
ENDBRANCH  20  21
ENDBRANCH   6  20
BRANCH   2  33
HETATM   33  C   UNL     1      -3.637   6.966 -30.005  1.00  0.00     0.255 C 
HETATM   34  N   UNL     1      -2.702   6.746 -29.014  1.00  0.00    -0.323 N 
HETATM   35  H   UNL     1      -2.580   5.795 -28.692  1.00  0.00     0.169 HD
HETATM   36  O   UNL     1      -3.837   8.012 -30.608  1.00  0.00    -0.268 OA
BRANCH  34  37
HETATM   37  C   UNL     1      -1.855   7.703 -28.426  1.00  0.00     0.035 A 
HETATM   38  C   UNL     1      -2.315   8.694 -27.558  1.00  0.00     0.029 A 
HETATM   39  C   UNL     1      -1.412   9.579 -26.963  1.00  0.00     0.002 A 
HETATM   40  C   UNL     1      -0.051   9.499 -27.256  1.00  0.00     0.000 A 
HETATM   41  C   UNL     1       0.411   8.520 -28.132  1.00  0.00     0.002 A 
HETATM   42  C   UNL     1      -0.485   7.612 -28.699  1.00  0.00     0.029 A 
ENDBRANCH  34  37
ENDBRANCH   2  33
TORSDOF 9
ENDMDL
MODEL 3
REMARK VINA RESULT:      -9.1      2.232      4.727
REMARK  9 active torsions:
REMARK  status: ('A' for Active; 'I' for Inactive)
REMARK    1  A    between atoms: C_2  and  O_3 
REMARK    2  A    between atoms: O_3  and  C_4 
REMARK    3  A    between atoms: C_5  and  C_6 
REMARK    4  A    between atoms: C_7  and  C_8 
REMARK       I    between atoms: C_8  and  N_9 
REMARK    5  A    between atoms: N_9  and  C_10 
REMARK    6  A    between atoms: C_20  and  S_21 
REMARK    7  A    between atoms: S_21  and  C_22 
REMARK    8  A    between atoms: C_22  and  C_23 
REMARK       I    between atoms: C_23  and  N_24 
REMARK    9  A    between atoms: N_24  and  C_25 
ROOT
HETATM    1  C   UNL     1      -7.126   3.761 -33.230  1.00  0.00     0.107 A 
HETATM    2  C   UNL     1      -8.035   3.806 -32.002  1.00  0.00     0.046 A 
HETATM    3  C   UNL     1      -7.813   4.697 -31.008  1.00  0.00     0.019 A 
HETATM    4  C   UNL     1      -8.733   4.953 -29.840  1.00  0.00     0.069 C 
HETATM    5  N   UNL     1      -6.689   5.503 -31.048  1.00  0.00    -0.353 N 
HETATM    6  C   UNL     1      -5.738   5.517 -32.055  1.00  0.00     0.087 A 
HETATM    7  C   UNL     1      -5.944   4.731 -33.147  1.00  0.00     0.055 A 
HETATM    8  C   UNL     1      -5.026   4.810 -34.356  1.00  0.00     0.019 C 
HETATM    9  N   UNL     1      -4.265   4.876 -35.359  1.00  0.00    -0.096 N 
HETATM   10  H   UNL     1      -6.450   5.957 -30.168  1.00  0.00     0.166 HD
ENDROOT
BRANCH   1  11
HETATM   11  C   UNL     1      -6.696   2.333 -33.598  1.00  0.00    -0.011 A 
HETATM   12  C   UNL     1      -5.747   1.598 -32.862  1.00  0.00     0.076 A 
HETATM   13  C   UNL     1      -5.431   0.289 -33.247  1.00  0.00     0.037 A 
HETATM   14  C   UNL     1      -6.037  -0.291 -34.363  1.00  0.00     0.003 A 
HETATM   15  C   UNL     1      -6.969   0.425 -35.099  1.00  0.00     0.001 A 
HETATM   16  C   UNL     1      -7.298   1.725 -34.719  1.00  0.00     0.011 A 
BRANCH  12  17
HETATM   17  O   UNL     1      -5.209   2.221 -31.769  1.00  0.00    -0.351 OA
BRANCH  17  18
HETATM   18  C   UNL     1      -4.902   1.432 -30.620  1.00  0.00     0.171 C 
HETATM   19  C   UNL     1      -6.140   1.153 -29.783  1.00  0.00     0.034 C 
ENDBRANCH  17  18
ENDBRANCH  12  17
ENDBRANCH   1  11
BRANCH   6  20
HETATM   20  S   UNL     1      -4.290   6.530 -31.998  1.00  0.00    -0.102 SA
BRANCH  20  21
HETATM   21  C   UNL     1      -3.128   5.656 -30.924  1.00  0.00     0.184 C 
BRANCH  21  22
HETATM   22  C   UNL     1      -2.371   6.608 -30.015  1.00  0.00     0.231 C 
HETATM   23  N   UNL     1      -1.109   6.162 -29.669  1.00  0.00    -0.327 N 
HETATM   24  H   UNL     1      -0.837   5.255 -30.032  1.00  0.00     0.169 HD
HETATM   25  O   UNL     1      -2.916   7.651 -29.650  1.00  0.00    -0.272 OA
BRANCH  23  26
HETATM   26  C   UNL     1      -0.217   6.744 -28.744  1.00  0.00     0.034 A 
HETATM   27  C   UNL     1       0.674   7.771 -29.058  1.00  0.00     0.030 A 
HETATM   28  C   UNL     1       1.451   8.370 -28.058  1.00  0.00     0.009 A 
HETATM   29  C   UNL     1       1.356   7.946 -26.730  1.00  0.00    -0.062 A 
HETATM   30  C   UNL     1       2.155   8.607 -25.647  1.00  0.00     0.048 C 
HETATM   31  C   UNL     1       0.493   6.889 -26.422  1.00  0.00     0.009 A 
HETATM   32  C   UNL     1      -0.284   6.292 -27.420  1.00  0.00     0.030 A 
ENDBRANCH  23  26
ENDBRANCH  21  22
ENDBRANCH  20  21
ENDBRANCH   6  20
BRANCH   2  33
HETATM   33  C   UNL     1      -9.187   2.858 -32.027  1.00  0.00     0.255 C 
HETATM   34  N   UNL     1     -10.161   3.205 -32.941  1.00  0.00    -0.323 N 
HETATM   35  H   UNL     1      -9.952   3.961 -33.580  1.00  0.00     0.169 HD
HETATM   36  O   UNL     1      -9.201   1.900 -31.265  1.00  0.00    -0.268 OA
BRANCH  34  37
HETATM   37  C   UNL     1     -11.413   2.588 -33.115  1.00  0.00     0.035 A 
HETATM   38  C   UNL     1     -12.616   3.184 -32.733  1.00  0.00     0.029 A 
HETATM   39  C   UNL     1     -13.829   2.541 -32.985  1.00  0.00     0.002 A 
HETATM   40  C   UNL     1     -13.847   1.285 -33.591  1.00  0.00     0.000 A 
HETATM   41  C   UNL     1     -12.650   0.679 -33.962  1.00  0.00     0.002 A 
HETATM   42  C   UNL     1     -11.438   1.337 -33.743  1.00  0.00     0.029 A 
ENDBRANCH  34  37
ENDBRANCH   2  33
TORSDOF 9
ENDMDL
MODEL 4
REMARK VINA RESULT:      -8.9      2.530      9.145
REMARK  9 active torsions:
REMARK  status: ('A' for Active; 'I' for Inactive)
REMARK    1  A    between atoms: C_2  and  O_3 
REMARK    2  A    between atoms: O_3  and  C_4 
REMARK    3  A    between atoms: C_5  and  C_6 
REMARK    4  A    between atoms: C_7  and  C_8 
REMARK       I    between atoms: C_8  and  N_9 
REMARK    5  A    between atoms: N_9  and  C_10 
REMARK    6  A    between atoms: C_20  and  S_21 
REMARK    7  A    between atoms: S_21  and  C_22 
REMARK    8  A    between atoms: C_22  and  C_23 
REMARK       I    between atoms: C_23  and  N_24 
REMARK    9  A    between atoms: N_24  and  C_25 
ROOT
HETATM    1  C   UNL     1      -4.309   3.594 -31.092  1.00  0.00     0.107 A 
HETATM    2  C   UNL     1      -5.230   4.524 -30.303  1.00  0.00     0.046 A 
HETATM    3  C   UNL     1      -6.334   4.045 -29.685  1.00  0.00     0.019 A 
HETATM    4  C   UNL     1      -7.216   4.824 -28.741  1.00  0.00     0.069 C 
HETATM    5  N   UNL     1      -6.697   2.721 -29.858  1.00  0.00    -0.353 N 
HETATM    6  C   UNL     1      -6.005   1.783 -30.606  1.00  0.00     0.087 A 
HETATM    7  C   UNL     1      -4.824   2.154 -31.171  1.00  0.00     0.055 A 
HETATM    8  C   UNL     1      -3.936   1.138 -31.873  1.00  0.00     0.019 C 
HETATM    9  N   UNL     1      -3.200   0.297 -32.456  1.00  0.00    -0.096 N 
HETATM   10  H   UNL     1      -7.651   2.495 -29.583  1.00  0.00     0.166 HD
ENDROOT
BRANCH   1  11
HETATM   11  C   UNL     1      -3.930   4.163 -32.468  1.00  0.00    -0.011 A 
HETATM   12  C   UNL     1      -2.615   4.522 -32.820  1.00  0.00     0.076 A 
HETATM   13  C   UNL     1      -2.348   5.006 -34.107  1.00  0.00     0.037 A 
HETATM   14  C   UNL     1      -3.375   5.151 -35.040  1.00  0.00     0.003 A 
HETATM   15  C   UNL     1      -4.675   4.806 -34.704  1.00  0.00     0.001 A 
HETATM   16  C   UNL     1      -4.951   4.314 -33.430  1.00  0.00     0.011 A 
BRANCH  12  17
HETATM   17  O   UNL     1      -1.656   4.333 -31.863  1.00  0.00    -0.351 OA
BRANCH  17  18
HETATM   18  C   UNL     1      -0.585   5.273 -31.780  1.00  0.00     0.171 C 
HETATM   19  C   UNL     1       0.068   5.261 -30.407  1.00  0.00     0.034 C 
ENDBRANCH  17  18
ENDBRANCH  12  17
ENDBRANCH   1  11
BRANCH   6  20
HETATM   20  S   UNL     1      -6.574   0.124 -30.834  1.00  0.00    -0.102 SA
BRANCH  20  21
HETATM   21  C   UNL     1      -7.291   0.080 -32.493  1.00  0.00     0.184 C 
BRANCH  21  22
HETATM   22  C   UNL     1      -8.552   0.921 -32.587  1.00  0.00     0.231 C 
HETATM   23  N   UNL     1      -8.887   1.278 -33.880  1.00  0.00    -0.327 N 
HETATM   24  H   UNL     1      -8.255   0.967 -34.611  1.00  0.00     0.169 HD
HETATM   25  O   UNL     1      -9.148   1.228 -31.554  1.00  0.00    -0.272 OA
BRANCH  23  26
HETATM   26  C   UNL     1      -9.914   2.155 -34.290  1.00  0.00     0.034 A 
HETATM   27  C   UNL     1     -11.228   1.758 -34.534  1.00  0.00     0.030 A 
HETATM   28  C   UNL     1     -12.215   2.707 -34.833  1.00  0.00     0.009 A 
HETATM   29  C   UNL     1     -11.899   4.067 -34.900  1.00  0.00    -0.062 A 
HETATM   30  C   UNL     1     -12.956   5.094 -35.180  1.00  0.00     0.048 C 
HETATM   31  C   UNL     1     -10.573   4.461 -34.696  1.00  0.00     0.009 A 
HETATM   32  C   UNL     1      -9.589   3.513 -34.396  1.00  0.00     0.030 A 
ENDBRANCH  23  26
ENDBRANCH  21  22
ENDBRANCH  20  21
ENDBRANCH   6  20
BRANCH   2  33
HETATM   33  C   UNL     1      -4.782   5.946 -30.222  1.00  0.00     0.255 C 
HETATM   34  N   UNL     1      -3.532   6.094 -29.657  1.00  0.00    -0.323 N 
HETATM   35  H   UNL     1      -2.997   5.253 -29.482  1.00  0.00     0.169 HD
HETATM   36  O   UNL     1      -5.520   6.837 -30.621  1.00  0.00    -0.268 OA
BRANCH  34  37
HETATM   37  C   UNL     1      -2.891   7.304 -29.334  1.00  0.00     0.035 A 
HETATM   38  C   UNL     1      -2.475   8.225 -30.296  1.00  0.00     0.029 A 
HETATM   39  C   UNL     1      -1.894   9.434 -29.905  1.00  0.00     0.002 A 
HETATM   40  C   UNL     1      -1.698   9.715 -28.553  1.00  0.00     0.000 A 
HETATM   41  C   UNL     1      -2.099   8.793 -27.589  1.00  0.00     0.002 A 
HETATM   42  C   UNL     1      -2.711   7.600 -27.977  1.00  0.00     0.029 A 
ENDBRANCH  34  37
ENDBRANCH   2  33
TORSDOF 9
ENDMDL
MODEL 5
REMARK VINA RESULT:      -8.8      3.686      7.826
REMARK  9 active torsions:
REMARK  status: ('A' for Active; 'I' for Inactive)
REMARK    1  A    between atoms: C_2  and  O_3 
REMARK    2  A    between atoms: O_3  and  C_4 
REMARK    3  A    between atoms: C_5  and  C_6 
REMARK    4  A    between atoms: C_7  and  C_8 
REMARK       I    between atoms: C_8  and  N_9 
REMARK    5  A    between atoms: N_9  and  C_10 
REMARK    6  A    between atoms: C_20  and  S_21 
REMARK    7  A    between atoms: S_21  and  C_22 
REMARK    8  A    between atoms: C_22  and  C_23 
REMARK       I    between atoms: C_23  and  N_24 
REMARK    9  A    between atoms: N_24  and  C_25 
ROOT
HETATM    1  C   UNL     1      -7.828   3.109 -31.919  1.00  0.00     0.107 A 
HETATM    2  C   UNL     1      -8.150   2.439 -33.255  1.00  0.00     0.046 A 
HETATM    3  C   UNL     1      -7.202   1.750 -33.931  1.00  0.00     0.019 A 
HETATM    4  C   UNL     1      -7.441   0.908 -35.159  1.00  0.00     0.069 C 
HETATM    5  N   UNL     1      -5.899   1.741 -33.467  1.00  0.00    -0.353 N 
HETATM    6  C   UNL     1      -5.445   2.367 -32.317  1.00  0.00     0.087 A 
HETATM    7  C   UNL     1      -6.355   2.989 -31.519  1.00  0.00     0.055 A 
HETATM    8  C   UNL     1      -5.955   3.561 -30.168  1.00  0.00     0.019 C 
HETATM    9  N   UNL     1      -5.623   4.035 -29.048  1.00  0.00    -0.096 N 
HETATM   10  H   UNL     1      -5.202   1.427 -34.139  1.00  0.00     0.166 HD
ENDROOT
BRANCH   1  11
HETATM   11  C   UNL     1      -8.348   4.553 -31.839  1.00  0.00    -0.011 A 
HETATM   12  C   UNL     1      -7.896   5.584 -32.684  1.00  0.00     0.076 A 
HETATM   13  C   UNL     1      -8.443   6.869 -32.565  1.00  0.00     0.037 A 
HETATM   14  C   UNL     1      -9.421   7.140 -31.607  1.00  0.00     0.003 A 
HETATM   15  C   UNL     1      -9.870   6.133 -30.766  1.00  0.00     0.001 A 
HETATM   16  C   UNL     1      -9.340   4.850 -30.881  1.00  0.00     0.011 A 
BRANCH  12  17
HETATM   17  O   UNL     1      -6.952   5.242 -33.612  1.00  0.00    -0.351 OA
BRANCH  17  18
HETATM   18  C   UNL     1      -5.656   5.830 -33.513  1.00  0.00     0.171 C 
HETATM   19  C   UNL     1      -4.662   5.161 -34.448  1.00  0.00     0.034 C 
ENDBRANCH  17  18
ENDBRANCH  12  17
ENDBRANCH   1  11
BRANCH   6  20
HETATM   20  S   UNL     1      -3.745   2.365 -31.828  1.00  0.00    -0.102 SA
BRANCH  20  21
HETATM   21  C   UNL     1      -3.492   0.803 -30.955  1.00  0.00     0.184 C 
BRANCH  21  22
HETATM   22  C   UNL     1      -4.343  -0.313 -31.534  1.00  0.00     0.231 C 
HETATM   23  N   UNL     1      -3.720  -1.020 -32.546  1.00  0.00    -0.327 N 
HETATM   24  H   UNL     1      -2.790  -0.710 -32.805  1.00  0.00     0.169 HD
HETATM   25  O   UNL     1      -5.481  -0.490 -31.097  1.00  0.00    -0.272 OA
BRANCH  23  26
HETATM   26  C   UNL     1      -4.284  -2.019 -33.368  1.00  0.00     0.034 A 
HETATM   27  C   UNL     1      -3.825  -3.335 -33.424  1.00  0.00     0.030 A 
HETATM   28  C   UNL     1      -4.507  -4.294 -34.185  1.00  0.00     0.009 A 
HETATM   29  C   UNL     1      -5.652  -3.950 -34.907  1.00  0.00    -0.062 A 
HETATM   30  C   UNL     1      -6.410  -4.979 -35.693  1.00  0.00     0.048 C 
HETATM   31  C   UNL     1      -6.088  -2.621 -34.884  1.00  0.00     0.009 A 
HETATM   32  C   UNL     1      -5.409  -1.665 -34.124  1.00  0.00     0.030 A 
ENDBRANCH  23  26
ENDBRANCH  21  22
ENDBRANCH  20  21
ENDBRANCH   6  20
BRANCH   2  33
HETATM   33  C   UNL     1      -9.571   2.554 -33.699  1.00  0.00     0.255 C 
HETATM   34  N   UNL     1     -10.440   1.782 -32.955  1.00  0.00    -0.323 N 
HETATM   35  H   UNL     1     -10.072   1.335 -32.126  1.00  0.00     0.169 HD
HETATM   36  O   UNL     1      -9.852   3.269 -34.652  1.00  0.00    -0.268 OA
BRANCH  34  37
HETATM   37  C   UNL     1     -11.810   1.582 -33.201  1.00  0.00     0.035 A 
HETATM   38  C   UNL     1     -12.327   0.383 -33.696  1.00  0.00     0.029 A 
HETATM   39  C   UNL     1     -13.705   0.230 -33.864  1.00  0.00     0.002 A 
HETATM   40  C   UNL     1     -14.571   1.283 -33.569  1.00  0.00     0.000 A 
HETATM   41  C   UNL     1     -14.060   2.485 -33.088  1.00  0.00     0.002 A 
HETATM   42  C   UNL     1     -12.686   2.627 -32.885  1.00  0.00     0.029 A 
ENDBRANCH  34  37
ENDBRANCH   2  33
TORSDOF 9
ENDMDL
MODEL 6
REMARK VINA RESULT:      -8.8      4.144      8.773
REMARK  9 active torsions:
REMARK  status: ('A' for Active; 'I' for Inactive)
REMARK    1  A    between atoms: C_2  and  O_3 
REMARK    2  A    between atoms: O_3  and  C_4 
REMARK    3  A    between atoms: C_5  and  C_6 
REMARK    4  A    between atoms: C_7  and  C_8 
REMARK       I    between atoms: C_8  and  N_9 
REMARK    5  A    between atoms: N_9  and  C_10 
REMARK    6  A    between atoms: C_20  and  S_21 
REMARK    7  A    between atoms: S_21  and  C_22 
REMARK    8  A    between atoms: C_22  and  C_23 
REMARK       I    between atoms: C_23  and  N_24 
REMARK    9  A    between atoms: N_24  and  C_25 
ROOT
HETATM    1  C   UNL     1      -9.820   4.411 -32.649  1.00  0.00     0.107 A 
HETATM    2  C   UNL     1      -9.408   5.883 -32.669  1.00  0.00     0.046 A 
HETATM    3  C   UNL     1      -8.252   6.287 -32.095  1.00  0.00     0.019 A 
HETATM    4  C   UNL     1      -7.658   7.669 -32.200  1.00  0.00     0.069 C 
HETATM    5  N   UNL     1      -7.485   5.379 -31.386  1.00  0.00    -0.353 N 
HETATM    6  C   UNL     1      -7.772   4.035 -31.216  1.00  0.00     0.087 A 
HETATM    7  C   UNL     1      -8.859   3.522 -31.854  1.00  0.00     0.055 A 
HETATM    8  C   UNL     1      -9.146   2.029 -31.841  1.00  0.00     0.019 C 
HETATM    9  N   UNL     1      -9.385   0.791 -31.830  1.00  0.00    -0.096 N 
HETATM   10  H   UNL     1      -6.778   5.791 -30.779  1.00  0.00     0.166 HD
ENDROOT
BRANCH   1  11
HETATM   11  C   UNL     1     -11.287   4.211 -32.238  1.00  0.00    -0.011 A 
HETATM   12  C   UNL     1     -12.312   3.910 -33.155  1.00  0.00     0.076 A 
HETATM   13  C   UNL     1     -13.620   3.713 -32.694  1.00  0.00     0.037 A 
HETATM   14  C   UNL     1     -13.922   3.829 -31.337  1.00  0.00     0.003 A 
HETATM   15  C   UNL     1     -12.922   4.130 -30.425  1.00  0.00     0.001 A 
HETATM   16  C   UNL     1     -11.615   4.318 -30.870  1.00  0.00     0.011 A 
BRANCH  12  17
HETATM   17  O   UNL     1     -11.941   3.792 -34.466  1.00  0.00    -0.351 OA
BRANCH  17  18
HETATM   18  C   UNL     1     -12.483   2.717 -35.231  1.00  0.00     0.171 C 
HETATM   19  C   UNL     1     -11.901   1.377 -34.811  1.00  0.00     0.034 C 
ENDBRANCH  17  18
ENDBRANCH  12  17
ENDBRANCH   1  11
BRANCH   6  20
HETATM   20  S   UNL     1      -6.773   2.954 -30.235  1.00  0.00    -0.102 SA
BRANCH  20  21
HETATM   21  C   UNL     1      -5.453   2.384 -31.330  1.00  0.00     0.184 C 
BRANCH  21  22
HETATM   22  C   UNL     1      -5.589   0.909 -31.662  1.00  0.00     0.231 C 
HETATM   23  N   UNL     1      -5.306   0.608 -32.981  1.00  0.00    -0.327 N 
HETATM   24  H   UNL     1      -5.066   1.390 -33.581  1.00  0.00     0.169 HD
HETATM   25  O   UNL     1      -5.944   0.125 -30.781  1.00  0.00    -0.272 OA
BRANCH  23  26
HETATM   26  C   UNL     1      -5.466  -0.635 -33.631  1.00  0.00     0.034 A 
HETATM   27  C   UNL     1      -4.451  -1.584 -33.761  1.00  0.00     0.030 A 
HETATM   28  C   UNL     1      -4.719  -2.839 -34.324  1.00  0.00     0.009 A 
HETATM   29  C   UNL     1      -6.002  -3.161 -34.773  1.00  0.00    -0.062 A 
HETATM   30  C   UNL     1      -6.306  -4.515 -35.342  1.00  0.00     0.048 C 
HETATM   31  C   UNL     1      -7.009  -2.195 -34.681  1.00  0.00     0.009 A 
HETATM   32  C   UNL     1      -6.742  -0.943 -34.117  1.00  0.00     0.030 A 
ENDBRANCH  23  26
ENDBRANCH  21  22
ENDBRANCH  20  21
ENDBRANCH   6  20
BRANCH   2  33
HETATM   33  C   UNL     1     -10.332   6.793 -33.410  1.00  0.00     0.255 C 
HETATM   34  N   UNL     1     -10.396   6.523 -34.762  1.00  0.00    -0.323 N 
HETATM   35  H   UNL     1      -9.938   5.683 -35.092  1.00  0.00     0.169 HD
HETATM   36  O   UNL     1     -10.921   7.680 -32.807  1.00  0.00    -0.268 OA
BRANCH  34  37
HETATM   37  C   UNL     1     -11.074   7.273 -35.740  1.00  0.00     0.035 A 
HETATM   38  C   UNL     1     -10.431   8.172 -36.591  1.00  0.00     0.029 A 
HETATM   39  C   UNL     1     -11.155   8.843 -37.579  1.00  0.00     0.002 A 
HETATM   40  C   UNL     1     -12.530   8.645 -37.701  1.00  0.00     0.000 A 
HETATM   41  C   UNL     1     -13.179   7.759 -36.845  1.00  0.00     0.002 A 
HETATM   42  C   UNL     1     -12.451   7.060 -35.881  1.00  0.00     0.029 A 
ENDBRANCH  34  37
ENDBRANCH   2  33
TORSDOF 9
ENDMDL
MODEL 7
REMARK VINA RESULT:      -8.7      1.922      8.568
REMARK  9 active torsions:
REMARK  status: ('A' for Active; 'I' for Inactive)
REMARK    1  A    between atoms: C_2  and  O_3 
REMARK    2  A    between atoms: O_3  and  C_4 
REMARK    3  A    between atoms: C_5  and  C_6 
REMARK    4  A    between atoms: C_7  and  C_8 
REMARK       I    between atoms: C_8  and  N_9 
REMARK    5  A    between atoms: N_9  and  C_10 
REMARK    6  A    between atoms: C_20  and  S_21 
REMARK    7  A    between atoms: S_21  and  C_22 
REMARK    8  A    between atoms: C_22  and  C_23 
REMARK       I    between atoms: C_23  and  N_24 
REMARK    9  A    between atoms: N_24  and  C_25 
ROOT
HETATM    1  C   UNL     1      -6.010   6.640 -31.859  1.00  0.00     0.107 A 
HETATM    2  C   UNL     1      -4.697   6.324 -32.576  1.00  0.00     0.046 A 
HETATM    3  C   UNL     1      -4.679   5.524 -33.667  1.00  0.00     0.019 A 
HETATM    4  C   UNL     1      -3.484   5.281 -34.554  1.00  0.00     0.069 C 
HETATM    5  N   UNL     1      -5.842   4.895 -34.076  1.00  0.00    -0.353 N 
HETATM    6  C   UNL     1      -7.085   5.025 -33.479  1.00  0.00     0.087 A 
HETATM    7  C   UNL     1      -7.215   5.898 -32.443  1.00  0.00     0.055 A 
HETATM    8  C   UNL     1      -8.577   6.207 -31.842  1.00  0.00     0.019 C 
HETATM    9  N   UNL     1      -9.706   6.463 -31.343  1.00  0.00    -0.096 N 
HETATM   10  H   UNL     1      -5.711   4.126 -34.731  1.00  0.00     0.166 HD
ENDROOT
BRANCH   1  11
HETATM   11  C   UNL     1      -5.904   6.490 -30.334  1.00  0.00    -0.011 A 
HETATM   12  C   UNL     1      -5.896   5.244 -29.679  1.00  0.00     0.076 A 
HETATM   13  C   UNL     1      -5.766   5.193 -28.285  1.00  0.00     0.037 A 
HETATM   14  C   UNL     1      -5.660   6.366 -27.536  1.00  0.00     0.003 A 
HETATM   15  C   UNL     1      -5.672   7.600 -28.170  1.00  0.00     0.001 A 
HETATM   16  C   UNL     1      -5.791   7.662 -29.557  1.00  0.00     0.011 A 
BRANCH  12  17
HETATM   17  O   UNL     1      -5.983   4.137 -30.476  1.00  0.00    -0.351 OA
BRANCH  17  18
HETATM   18  C   UNL     1      -5.127   3.030 -30.197  1.00  0.00     0.171 C 
HETATM   19  C   UNL     1      -4.309   2.630 -31.415  1.00  0.00     0.034 C 
ENDBRANCH  17  18
ENDBRANCH  12  17
ENDBRANCH   1  11
BRANCH   6  20
HETATM   20  S   UNL     1      -8.512   4.132 -34.022  1.00  0.00    -0.102 SA
BRANCH  20  21
HETATM   21  C   UNL     1      -8.485   2.572 -33.109  1.00  0.00     0.184 C 
BRANCH  21  22
HETATM   22  C   UNL     1      -7.503   1.582 -33.709  1.00  0.00     0.231 C 
HETATM   23  N   UNL     1      -7.589   0.314 -33.163  1.00  0.00    -0.327 N 
HETATM   24  H   UNL     1      -8.267   0.189 -32.419  1.00  0.00     0.169 HD
HETATM   25  O   UNL     1      -6.723   1.963 -34.583  1.00  0.00    -0.272 OA
BRANCH  23  26
HETATM   26  C   UNL     1      -6.737  -0.784 -33.407  1.00  0.00     0.034 A 
HETATM   27  C   UNL     1      -7.033  -1.820 -34.293  1.00  0.00     0.030 A 
HETATM   28  C   UNL     1      -6.087  -2.819 -34.561  1.00  0.00     0.009 A 
HETATM   29  C   UNL     1      -4.836  -2.802 -33.940  1.00  0.00    -0.062 A 
HETATM   30  C   UNL     1      -3.804  -3.846 -34.250  1.00  0.00     0.048 C 
HETATM   31  C   UNL     1      -4.554  -1.787 -33.020  1.00  0.00     0.009 A 
HETATM   32  C   UNL     1      -5.498  -0.789 -32.754  1.00  0.00     0.030 A 
ENDBRANCH  23  26
ENDBRANCH  21  22
ENDBRANCH  20  21
ENDBRANCH   6  20
BRANCH   2  33
HETATM   33  C   UNL     1      -3.489   7.005 -32.024  1.00  0.00     0.255 C 
HETATM   34  N   UNL     1      -2.743   6.200 -31.188  1.00  0.00    -0.323 N 
HETATM   35  H   UNL     1      -2.994   5.222 -31.136  1.00  0.00     0.169 HD
HETATM   36  O   UNL     1      -3.265   8.172 -32.316  1.00  0.00    -0.268 OA
BRANCH  34  37
HETATM   37  C   UNL     1      -1.626   6.585 -30.423  1.00  0.00     0.035 A 
HETATM   38  C   UNL     1      -0.317   6.522 -30.902  1.00  0.00     0.029 A 
HETATM   39  C   UNL     1       0.742   6.973 -30.111  1.00  0.00     0.002 A 
HETATM   40  C   UNL     1       0.503   7.459 -28.826  1.00  0.00     0.000 A 
HETATM   41  C   UNL     1      -0.800   7.511 -28.338  1.00  0.00     0.002 A 
HETATM   42  C   UNL     1      -1.863   7.095 -29.141  1.00  0.00     0.029 A 
ENDBRANCH  34  37
ENDBRANCH   2  33
TORSDOF 9
ENDMDL
MODEL 8
REMARK VINA RESULT:      -8.7      1.523      1.898
REMARK  9 active torsions:
REMARK  status: ('A' for Active; 'I' for Inactive)
REMARK    1  A    between atoms: C_2  and  O_3 
REMARK    2  A    between atoms: O_3  and  C_4 
REMARK    3  A    between atoms: C_5  and  C_6 
REMARK    4  A    between atoms: C_7  and  C_8 
REMARK       I    between atoms: C_8  and  N_9 
REMARK    5  A    between atoms: N_9  and  C_10 
REMARK    6  A    between atoms: C_20  and  S_21 
REMARK    7  A    between atoms: S_21  and  C_22 
REMARK    8  A    between atoms: C_22  and  C_23 
REMARK       I    between atoms: C_23  and  N_24 
REMARK    9  A    between atoms: N_24  and  C_25 
ROOT
HETATM    1  C   UNL     1      -7.037   2.053 -30.987  1.00  0.00     0.107 A 
HETATM    2  C   UNL     1      -5.649   1.461 -31.226  1.00  0.00     0.046 A 
HETATM    3  C   UNL     1      -4.536   2.208 -31.043  1.00  0.00     0.019 A 
HETATM    4  C   UNL     1      -3.119   1.691 -31.079  1.00  0.00     0.069 C 
HETATM    5  N   UNL     1      -4.655   3.553 -30.743  1.00  0.00    -0.353 N 
HETATM    6  C   UNL     1      -5.845   4.243 -30.573  1.00  0.00     0.087 A 
HETATM    7  C   UNL     1      -7.009   3.542 -30.631  1.00  0.00     0.055 A 
HETATM    8  C   UNL     1      -8.340   4.201 -30.301  1.00  0.00     0.019 C 
HETATM    9  N   UNL     1      -9.443   4.747 -30.028  1.00  0.00    -0.096 N 
HETATM   10  H   UNL     1      -3.806   4.101 -30.867  1.00  0.00     0.166 HD
ENDROOT
BRANCH   1  11
HETATM   11  C   UNL     1      -8.022   1.734 -32.122  1.00  0.00    -0.011 A 
HETATM   12  C   UNL     1      -7.812   2.122 -33.459  1.00  0.00     0.076 A 
HETATM   13  C   UNL     1      -8.745   1.765 -34.441  1.00  0.00     0.037 A 
HETATM   14  C   UNL     1      -9.891   1.043 -34.105  1.00  0.00     0.003 A 
HETATM   15  C   UNL     1     -10.113   0.661 -32.790  1.00  0.00     0.001 A 
HETATM   16  C   UNL     1      -9.186   1.001 -31.807  1.00  0.00     0.011 A 
BRANCH  12  17
HETATM   17  O   UNL     1      -6.658   2.808 -33.719  1.00  0.00    -0.351 OA
BRANCH  17  18
HETATM   18  C   UNL     1      -6.751   4.196 -34.039  1.00  0.00     0.171 C 
HETATM   19  C   UNL     1      -5.379   4.844 -34.134  1.00  0.00     0.034 C 
ENDBRANCH  17  18
ENDBRANCH  12  17
ENDBRANCH   1  11
BRANCH   6  20
HETATM   20  S   UNL     1      -5.912   5.982 -30.258  1.00  0.00    -0.102 SA
BRANCH  20  21
HETATM   21  C   UNL     1      -4.318   6.637 -30.802  1.00  0.00     0.184 C 
BRANCH  21  22
HETATM   22  C   UNL     1      -3.573   7.323 -29.671  1.00  0.00     0.231 C 
HETATM   23  N   UNL     1      -3.770   6.734 -28.436  1.00  0.00    -0.327 N 
HETATM   24  H   UNL     1      -4.396   5.936 -28.413  1.00  0.00     0.169 HD
HETATM   25  O   UNL     1      -2.894   8.321 -29.918  1.00  0.00    -0.272 OA
BRANCH  23  26
HETATM   26  C   UNL     1      -3.329   7.204 -27.181  1.00  0.00     0.034 A 
HETATM   27  C   UNL     1      -1.995   7.214 -26.775  1.00  0.00     0.030 A 
HETATM   28  C   UNL     1      -1.625   7.797 -25.556  1.00  0.00     0.009 A 
HETATM   29  C   UNL     1      -2.586   8.372 -24.720  1.00  0.00    -0.062 A 
HETATM   30  C   UNL     1      -2.196   9.032 -23.431  1.00  0.00     0.048 C 
HETATM   31  C   UNL     1      -3.930   8.325 -25.107  1.00  0.00     0.009 A 
HETATM   32  C   UNL     1      -4.297   7.744 -26.325  1.00  0.00     0.030 A 
ENDBRANCH  23  26
ENDBRANCH  21  22
ENDBRANCH  20  21
ENDBRANCH   6  20
BRANCH   2  33
HETATM   33  C   UNL     1      -5.629   0.016 -31.603  1.00  0.00     0.255 C 
HETATM   34  N   UNL     1      -5.400  -0.194 -32.948  1.00  0.00    -0.323 N 
HETATM   35  H   UNL     1      -5.142   0.608 -33.508  1.00  0.00     0.169 HD
HETATM   36  O   UNL     1      -5.825  -0.836 -30.748  1.00  0.00    -0.268 OA
BRANCH  34  37
HETATM   37  C   UNL     1      -5.444  -1.425 -33.628  1.00  0.00     0.035 A 
HETATM   38  C   UNL     1      -4.325  -2.240 -33.800  1.00  0.00     0.029 A 
HETATM   39  C   UNL     1      -4.448  -3.477 -34.436  1.00  0.00     0.002 A 
HETATM   40  C   UNL     1      -5.683  -3.893 -34.932  1.00  0.00     0.000 A 
HETATM   41  C   UNL     1      -6.801  -3.078 -34.775  1.00  0.00     0.002 A 
HETATM   42  C   UNL     1      -6.687  -1.857 -34.108  1.00  0.00     0.029 A 
ENDBRANCH  34  37
ENDBRANCH   2  33
TORSDOF 9
ENDMDL
MODEL 9
REMARK VINA RESULT:      -8.5      2.066      9.187
REMARK  9 active torsions:
REMARK  status: ('A' for Active; 'I' for Inactive)
REMARK    1  A    between atoms: C_2  and  O_3 
REMARK    2  A    between atoms: O_3  and  C_4 
REMARK    3  A    between atoms: C_5  and  C_6 
REMARK    4  A    between atoms: C_7  and  C_8 
REMARK       I    between atoms: C_8  and  N_9 
REMARK    5  A    between atoms: N_9  and  C_10 
REMARK    6  A    between atoms: C_20  and  S_21 
REMARK    7  A    between atoms: S_21  and  C_22 
REMARK    8  A    between atoms: C_22  and  C_23 
REMARK       I    between atoms: C_23  and  N_24 
REMARK    9  A    between atoms: N_24  and  C_25 
ROOT
HETATM    1  C   UNL     1      -5.202   6.497 -31.956  1.00  0.00     0.107 A 
HETATM    2  C   UNL     1      -3.752   6.044 -32.128  1.00  0.00     0.046 A 
HETATM    3  C   UNL     1      -3.456   4.913 -32.810  1.00  0.00     0.019 A 
HETATM    4  C   UNL     1      -2.069   4.460 -33.193  1.00  0.00     0.069 C 
HETATM    5  N   UNL     1      -4.478   4.098 -33.262  1.00  0.00    -0.353 N 
HETATM    6  C   UNL     1      -5.834   4.339 -33.111  1.00  0.00     0.087 A 
HETATM    7  C   UNL     1      -6.220   5.510 -32.535  1.00  0.00     0.055 A 
HETATM    8  C   UNL     1      -7.685   5.911 -32.476  1.00  0.00     0.019 C 
HETATM    9  N   UNL     1      -8.900   6.244 -32.428  1.00  0.00    -0.096 N 
HETATM   10  H   UNL     1      -4.194   3.159 -33.535  1.00  0.00     0.166 HD
ENDROOT
BRANCH   1  11
HETATM   11  C   UNL     1      -5.528   6.904 -30.511  1.00  0.00    -0.011 A 
HETATM   12  C   UNL     1      -5.791   8.232 -30.122  1.00  0.00     0.076 A 
HETATM   13  C   UNL     1      -6.109   8.515 -28.788  1.00  0.00     0.037 A 
HETATM   14  C   UNL     1      -6.155   7.496 -27.835  1.00  0.00     0.003 A 
HETATM   15  C   UNL     1      -5.893   6.185 -28.204  1.00  0.00     0.001 A 
HETATM   16  C   UNL     1      -5.584   5.890 -29.531  1.00  0.00     0.011 A 
BRANCH  12  17
HETATM   17  O   UNL     1      -5.749   9.175 -31.112  1.00  0.00    -0.351 OA
BRANCH  17  18
HETATM   18  C   UNL     1      -5.045  10.390 -30.862  1.00  0.00     0.171 C 
HETATM   19  C   UNL     1      -5.726  11.579 -31.522  1.00  0.00     0.034 C 
ENDBRANCH  17  18
ENDBRANCH  12  17
ENDBRANCH   1  11
BRANCH   6  20
HETATM   20  S   UNL     1      -7.079   3.210 -33.659  1.00  0.00    -0.102 SA
BRANCH  20  21
HETATM   21  C   UNL     1      -7.551   2.259 -32.196  1.00  0.00     0.184 C 
BRANCH  21  22
HETATM   22  C   UNL     1      -6.958   0.862 -32.212  1.00  0.00     0.231 C 
HETATM   23  N   UNL     1      -6.577   0.435 -33.471  1.00  0.00    -0.327 N 
HETATM   24  H   UNL     1      -6.752   1.076 -34.237  1.00  0.00     0.169 HD
HETATM   25  O   UNL     1      -6.879   0.230 -31.158  1.00  0.00    -0.272 OA
BRANCH  23  26
HETATM   26  C   UNL     1      -6.120  -0.849 -33.839  1.00  0.00     0.034 A 
HETATM   27  C   UNL     1      -4.814  -1.298 -33.642  1.00  0.00     0.030 A 
HETATM   28  C   UNL     1      -4.466  -2.624 -33.936  1.00  0.00     0.009 A 
HETATM   29  C   UNL     1      -5.416  -3.516 -34.440  1.00  0.00    -0.062 A 
HETATM   30  C   UNL     1      -5.062  -4.946 -34.721  1.00  0.00     0.048 C 
HETATM   31  C   UNL     1      -6.714  -3.054 -34.677  1.00  0.00     0.009 A 
HETATM   32  C   UNL     1      -7.062  -1.731 -34.381  1.00  0.00     0.030 A 
ENDBRANCH  23  26
ENDBRANCH  21  22
ENDBRANCH  20  21
ENDBRANCH   6  20
BRANCH   2  33
HETATM   33  C   UNL     1      -2.725   6.963 -31.555  1.00  0.00     0.255 C 
HETATM   34  N   UNL     1      -2.197   6.514 -30.361  1.00  0.00    -0.323 N 
HETATM   35  H   UNL     1      -2.441   5.578 -30.066  1.00  0.00     0.169 HD
HETATM   36  O   UNL     1      -2.451   8.004 -32.136  1.00  0.00    -0.268 OA
BRANCH  34  37
HETATM   37  C   UNL     1      -1.307   7.207 -29.520  1.00  0.00     0.035 A 
HETATM   38  C   UNL     1       0.079   7.064 -29.595  1.00  0.00     0.029 A 
HETATM   39  C   UNL     1       0.909   7.824 -28.768  1.00  0.00     0.002 A 
HETATM   40  C   UNL     1       0.359   8.707 -27.840  1.00  0.00     0.000 A 
HETATM   41  C   UNL     1      -1.024   8.844 -27.752  1.00  0.00     0.002 A 
HETATM   42  C   UNL     1      -1.853   8.112 -28.602  1.00  0.00     0.029 A 
ENDBRANCH  34  37
ENDBRANCH   2  33
TORSDOF 9
ENDMDL
MODEL 10
REMARK VINA RESULT:      -8.3      4.309      8.944
REMARK  9 active torsions:
REMARK  status: ('A' for Active; 'I' for Inactive)
REMARK    1  A    between atoms: C_2  and  O_3 
REMARK    2  A    between atoms: O_3  and  C_4 
REMARK    3  A    between atoms: C_5  and  C_6 
REMARK    4  A    between atoms: C_7  and  C_8 
REMARK       I    between atoms: C_8  and  N_9 
REMARK    5  A    between atoms: N_9  and  C_10 
REMARK    6  A    between atoms: C_20  and  S_21 
REMARK    7  A    between atoms: S_21  and  C_22 
REMARK    8  A    between atoms: C_22  and  C_23 
REMARK       I    between atoms: C_23  and  N_24 
REMARK    9  A    between atoms: N_24  and  C_25 
ROOT
HETATM    1  C   UNL     1     -10.136   4.765 -33.115  1.00  0.00     0.107 A 
HETATM    2  C   UNL     1     -10.728   3.428 -33.560  1.00  0.00     0.046 A 
HETATM    3  C   UNL     1      -9.938   2.341 -33.726  1.00  0.00     0.019 A 
HETATM    4  C   UNL     1     -10.424   0.938 -33.990  1.00  0.00     0.069 C 
HETATM    5  N   UNL     1      -8.566   2.465 -33.599  1.00  0.00    -0.353 N 
HETATM    6  C   UNL     1      -7.884   3.628 -33.279  1.00  0.00     0.087 A 
HETATM    7  C   UNL     1      -8.610   4.741 -32.986  1.00  0.00     0.055 A 
HETATM    8  C   UNL     1      -7.937   6.006 -32.476  1.00  0.00     0.019 C 
HETATM    9  N   UNL     1      -7.380   7.055 -32.054  1.00  0.00    -0.096 N 
HETATM   10  H   UNL     1      -8.025   1.690 -33.978  1.00  0.00     0.166 HD
ENDROOT
BRANCH   1  11
HETATM   11  C   UNL     1     -10.640   5.946 -33.958  1.00  0.00    -0.011 A 
HETATM   12  C   UNL     1     -11.597   6.871 -33.498  1.00  0.00     0.076 A 
HETATM   13  C   UNL     1     -11.982   7.939 -34.318  1.00  0.00     0.037 A 
HETATM   14  C   UNL     1     -11.438   8.087 -35.595  1.00  0.00     0.003 A 
HETATM   15  C   UNL     1     -10.499   7.180 -36.062  1.00  0.00     0.001 A 
HETATM   16  C   UNL     1     -10.102   6.119 -35.251  1.00  0.00     0.011 A 
BRANCH  12  17
HETATM   17  O   UNL     1     -12.071   6.676 -32.230  1.00  0.00    -0.351 OA
BRANCH  17  18
HETATM   18  C   UNL     1     -11.500   7.437 -31.166  1.00  0.00     0.171 C 
HETATM   19  C   UNL     1     -12.378   7.416 -29.926  1.00  0.00     0.034 C 
ENDBRANCH  17  18
ENDBRANCH  12  17
ENDBRANCH   1  11
BRANCH   6  20
HETATM   20  S   UNL     1      -6.119   3.719 -33.204  1.00  0.00    -0.102 SA
BRANCH  20  21
HETATM   21  C   UNL     1      -5.638   2.675 -31.809  1.00  0.00     0.184 C 
BRANCH  21  22
HETATM   22  C   UNL     1      -6.069   1.233 -32.006  1.00  0.00     0.231 C 
HETATM   23  N   UNL     1      -5.404   0.589 -33.034  1.00  0.00    -0.327 N 
HETATM   24  H   UNL     1      -4.730   1.143 -33.551  1.00  0.00     0.169 HD
HETATM   25  O   UNL     1      -6.952   0.765 -31.286  1.00  0.00    -0.272 OA
BRANCH  23  26
HETATM   26  C   UNL     1      -5.664  -0.698 -33.551  1.00  0.00     0.034 A 
HETATM   27  C   UNL     1      -6.914  -1.120 -34.004  1.00  0.00     0.030 A 
HETATM   28  C   UNL     1      -7.067  -2.377 -34.604  1.00  0.00     0.009 A 
HETATM   29  C   UNL     1      -5.974  -3.235 -34.750  1.00  0.00    -0.062 A 
HETATM   30  C   UNL     1      -6.120  -4.566 -35.426  1.00  0.00     0.048 C 
HETATM   31  C   UNL     1      -4.729  -2.830 -34.258  1.00  0.00     0.009 A 
HETATM   32  C   UNL     1      -4.577  -1.574 -33.661  1.00  0.00     0.030 A 
ENDBRANCH  23  26
ENDBRANCH  21  22
ENDBRANCH  20  21
ENDBRANCH   6  20
BRANCH   2  33
HETATM   33  C   UNL     1     -12.211   3.411 -33.725  1.00  0.00     0.255 C 
HETATM   34  N   UNL     1     -12.895   3.597 -32.541  1.00  0.00    -0.323 N 
HETATM   35  H   UNL     1     -12.354   3.854 -31.726  1.00  0.00     0.169 HD
HETATM   36  O   UNL     1     -12.695   3.224 -34.834  1.00  0.00    -0.268 OA
BRANCH  34  37
HETATM   37  C   UNL     1     -14.286   3.511 -32.348  1.00  0.00     0.035 A 
HETATM   38  C   UNL     1     -14.982   2.302 -32.360  1.00  0.00     0.029 A 
HETATM   39  C   UNL     1     -16.356   2.282 -32.106  1.00  0.00     0.002 A 
HETATM   40  C   UNL     1     -17.046   3.470 -31.870  1.00  0.00     0.000 A 
HETATM   41  C   UNL     1     -16.358   4.681 -31.871  1.00  0.00     0.002 A 
HETATM   42  C   UNL     1     -14.979   4.700 -32.089  1.00  0.00     0.029 A 
ENDBRANCH  34  37
ENDBRANCH   2  33
TORSDOF 9
ENDMDL
