MODEL 1
REMARK VINA RESULT:      -8.4      0.000      0.000
REMARK  9 active torsions:
REMARK  status: ('A' for Active; 'I' for Inactive)
REMARK    1  A    between atoms: C_2  and  N_3 
REMARK       I    between atoms: N_3  and  C_4 
REMARK    2  A    between atoms: C_4  and  C_5 
REMARK    3  A    between atoms: C_5  and  S_6 
REMARK    4  A    between atoms: S_6  and  C_7 
REMARK    5  A    between atoms: N_8  and  C_9 
REMARK    6  A    between atoms: C_9  and  C_10 
REMARK    7  A    between atoms: C_10  and  C_11 
REMARK    8  A    between atoms: C_17  and  C_18 
REMARK    9  A    between atoms: C_21  and  O_22 
ROOT
HETATM    1  C   UNL     1      -5.517   2.060 -32.764  1.00  0.00     0.192 A 
HETATM    2  N   UNL     1      -6.539   1.156 -32.901  1.00  0.00    -0.307 N 
HETATM    3  C   UNL     1      -7.676   1.916 -33.125  1.00  0.00     0.164 A 
HETATM    4  N   UNL     1      -7.314   3.189 -33.159  1.00  0.00    -0.128 NA
HETATM    5  N   UNL     1      -5.969   3.276 -32.938  1.00  0.00    -0.122 NA
ENDROOT
BRANCH   1   6
HETATM    6  S   UNL     1      -3.873   1.639 -32.433  1.00  0.00    -0.081 SA
BRANCH   6   7
HETATM    7  C   UNL     1      -3.404   2.927 -31.243  1.00  0.00     0.185 C 
BRANCH   7   8
HETATM    8  C   UNL     1      -2.526   3.990 -31.886  1.00  0.00     0.227 C 
HETATM    9  N   UNL     1      -3.088   4.595 -32.991  1.00  0.00    -0.361 N 
HETATM   10  H   UNL     1      -4.105   4.570 -33.055  1.00  0.00     0.162 HD
HETATM   11  O   UNL     1      -1.404   4.256 -31.462  1.00  0.00    -0.273 OA
BRANCH   9  12
HETATM   12  C   UNL     1      -2.418   5.661 -33.704  1.00  0.00     0.118 C 
HETATM   13  C   UNL     1      -1.645   5.141 -34.902  1.00  0.00     0.026 C 
ENDBRANCH   9  12
ENDBRANCH   7   8
ENDBRANCH   6   7
ENDBRANCH   1   6
BRANCH   2  14
HETATM   14  C   UNL     1      -6.409  -0.286 -32.979  1.00  0.00     0.137 C 
BRANCH  14  15
HETATM   15  C   UNL     1      -6.408  -0.819 -34.413  1.00  0.00     0.059 C 
BRANCH  15  16
HETATM   16  C   UNL     1      -5.912  -2.244 -34.465  1.00  0.00    -0.057 A 
HETATM   17  C   UNL     1      -6.779  -3.280 -34.841  1.00  0.00     0.007 A 
HETATM   18  C   UNL     1      -6.332  -4.602 -34.864  1.00  0.00     0.001 A 
HETATM   19  C   UNL     1      -5.017  -4.901 -34.512  1.00  0.00     0.000 A 
HETATM   20  C   UNL     1      -4.148  -3.878 -34.138  1.00  0.00     0.001 A 
HETATM   21  C   UNL     1      -4.593  -2.554 -34.112  1.00  0.00     0.007 A 
ENDBRANCH  15  16
ENDBRANCH  14  15
ENDBRANCH   2  14
BRANCH   3  22
HETATM   22  C   UNL     1      -9.047   1.456 -33.361  1.00  0.00     0.012 A 
HETATM   23  C   UNL     1      -9.605   0.345 -32.722  1.00  0.00     0.018 A 
HETATM   24  C   UNL     1     -10.933  -0.024 -32.963  1.00  0.00     0.037 A 
HETATM   25  C   UNL     1     -11.740   0.726 -33.820  1.00  0.00     0.068 A 
HETATM   26  C   UNL     1     -11.202   1.842 -34.453  1.00  0.00     0.037 A 
HETATM   27  C   UNL     1      -9.868   2.203 -34.221  1.00  0.00     0.018 A 
BRANCH  25  28
HETATM   28  O   UNL     1     -13.022   0.269 -33.950  1.00  0.00    -0.356 OA
HETATM   29  C   UNL     1     -14.008   1.233 -34.301  1.00  0.00     0.210 C 
ENDBRANCH  25  28
ENDBRANCH   3  22
TORSDOF 9
ENDMDL
MODEL 2
REMARK VINA RESULT:      -8.2      2.117      7.239
REMARK  9 active torsions:
REMARK  status: ('A' for Active; 'I' for Inactive)
REMARK    1  A    between atoms: C_2  and  N_3 
REMARK       I    between atoms: N_3  and  C_4 
REMARK    2  A    between atoms: C_4  and  C_5 
REMARK    3  A    between atoms: C_5  and  S_6 
REMARK    4  A    between atoms: S_6  and  C_7 
REMARK    5  A    between atoms: N_8  and  C_9 
REMARK    6  A    between atoms: C_9  and  C_10 
REMARK    7  A    between atoms: C_10  and  C_11 
REMARK    8  A    between atoms: C_17  and  C_18 
REMARK    9  A    between atoms: C_21  and  O_22 
ROOT
HETATM    1  C   UNL     1      -7.945   1.811 -32.228  1.00  0.00     0.192 A 
HETATM    2  N   UNL     1      -6.854   1.935 -33.050  1.00  0.00    -0.307 N 
HETATM    3  C   UNL     1      -6.263   3.137 -32.698  1.00  0.00     0.164 A 
HETATM    4  N   UNL     1      -6.955   3.654 -31.695  1.00  0.00    -0.128 NA
HETATM    5  N   UNL     1      -8.000   2.825 -31.402  1.00  0.00    -0.122 NA
ENDROOT
BRANCH   1   6
HETATM    6  S   UNL     1      -9.063   0.493 -32.274  1.00  0.00    -0.081 SA
BRANCH   6   7
HETATM    7  C   UNL     1     -10.006   0.873 -33.778  1.00  0.00     0.185 C 
BRANCH   7   8
HETATM    8  C   UNL     1     -11.295   1.614 -33.458  1.00  0.00     0.227 C 
HETATM    9  N   UNL     1     -12.437   0.979 -33.901  1.00  0.00    -0.361 N 
HETATM   10  H   UNL     1     -12.370  -0.028 -34.046  1.00  0.00     0.162 HD
HETATM   11  O   UNL     1     -11.302   2.697 -32.879  1.00  0.00    -0.273 OA
BRANCH   9  12
HETATM   12  C   UNL     1     -13.758   1.513 -33.648  1.00  0.00     0.118 C 
HETATM   13  C   UNL     1     -14.846   0.631 -34.233  1.00  0.00     0.026 C 
ENDBRANCH   9  12
ENDBRANCH   7   8
ENDBRANCH   6   7
ENDBRANCH   1   6
BRANCH   2  14
HETATM   14  C   UNL     1      -6.339   0.926 -33.956  1.00  0.00     0.137 C 
BRANCH  14  15
HETATM   15  C   UNL     1      -5.329  -0.018 -33.302  1.00  0.00     0.059 C 
BRANCH  15  16
HETATM   16  C   UNL     1      -5.459  -1.419 -33.848  1.00  0.00    -0.057 A 
HETATM   17  C   UNL     1      -6.716  -1.920 -34.215  1.00  0.00     0.007 A 
HETATM   18  C   UNL     1      -6.845  -3.224 -34.694  1.00  0.00     0.001 A 
HETATM   19  C   UNL     1      -5.721  -4.040 -34.810  1.00  0.00     0.000 A 
HETATM   20  C   UNL     1      -4.467  -3.551 -34.449  1.00  0.00     0.001 A 
HETATM   21  C   UNL     1      -4.335  -2.247 -33.967  1.00  0.00     0.007 A 
ENDBRANCH  15  16
ENDBRANCH  14  15
ENDBRANCH   2  14
BRANCH   3  22
HETATM   22  C   UNL     1      -5.049   3.751 -33.246  1.00  0.00     0.012 A 
HETATM   23  C   UNL     1      -5.062   4.668 -34.300  1.00  0.00     0.018 A 
HETATM   24  C   UNL     1      -3.872   5.247 -34.757  1.00  0.00     0.037 A 
HETATM   25  C   UNL     1      -2.652   4.946 -34.151  1.00  0.00     0.068 A 
HETATM   26  C   UNL     1      -2.626   4.043 -33.092  1.00  0.00     0.037 A 
HETATM   27  C   UNL     1      -3.816   3.455 -32.644  1.00  0.00     0.018 A 
BRANCH  25  28
HETATM   28  O   UNL     1      -1.571   5.595 -34.679  1.00  0.00    -0.356 OA
HETATM   29  C   UNL     1      -1.097   6.729 -33.962  1.00  0.00     0.210 C 
ENDBRANCH  25  28
ENDBRANCH   3  22
TORSDOF 9
ENDMDL
MODEL 3
REMARK VINA RESULT:      -8.2      2.055      6.495
REMARK  9 active torsions:
REMARK  status: ('A' for Active; 'I' for Inactive)
REMARK    1  A    between atoms: C_2  and  N_3 
REMARK       I    between atoms: N_3  and  C_4 
REMARK    2  A    between atoms: C_4  and  C_5 
REMARK    3  A    between atoms: C_5  and  S_6 
REMARK    4  A    between atoms: S_6  and  C_7 
REMARK    5  A    between atoms: N_8  and  C_9 
REMARK    6  A    between atoms: C_9  and  C_10 
REMARK    7  A    between atoms: C_10  and  C_11 
REMARK    8  A    between atoms: C_17  and  C_18 
REMARK    9  A    between atoms: C_21  and  O_22 
ROOT
HETATM    1  C   UNL     1      -8.034   1.724 -32.127  1.00  0.00     0.192 A 
HETATM    2  N   UNL     1      -6.963   1.861 -32.973  1.00  0.00    -0.307 N 
HETATM    3  C   UNL     1      -6.391   3.080 -32.647  1.00  0.00     0.164 A 
HETATM    4  N   UNL     1      -7.073   3.593 -31.635  1.00  0.00    -0.128 NA
HETATM    5  N   UNL     1      -8.093   2.745 -31.311  1.00  0.00    -0.122 NA
ENDROOT
BRANCH   1   6
HETATM    6  S   UNL     1      -9.124   0.382 -32.135  1.00  0.00    -0.081 SA
BRANCH   6   7
HETATM    7  C   UNL     1     -10.038   0.668 -33.677  1.00  0.00     0.185 C 
BRANCH   7   8
HETATM    8  C   UNL     1     -10.578   2.087 -33.752  1.00  0.00     0.227 C 
HETATM    9  N   UNL     1     -10.100   2.819 -34.819  1.00  0.00    -0.361 N 
HETATM   10  H   UNL     1      -9.762   2.286 -35.620  1.00  0.00     0.162 HD
HETATM   11  O   UNL     1     -11.353   2.538 -32.912  1.00  0.00    -0.273 OA
BRANCH   9  12
HETATM   12  C   UNL     1     -10.539   4.174 -35.078  1.00  0.00     0.118 C 
HETATM   13  C   UNL     1      -9.541   5.198 -34.569  1.00  0.00     0.026 C 
ENDBRANCH   9  12
ENDBRANCH   7   8
ENDBRANCH   6   7
ENDBRANCH   1   6
BRANCH   2  14
HETATM   14  C   UNL     1      -6.445   0.853 -33.879  1.00  0.00     0.137 C 
BRANCH  14  15
HETATM   15  C   UNL     1      -5.448  -0.100 -33.219  1.00  0.00     0.059 C 
BRANCH  15  16
HETATM   16  C   UNL     1      -5.549  -1.487 -33.806  1.00  0.00    -0.057 A 
HETATM   17  C   UNL     1      -6.791  -1.988 -34.224  1.00  0.00     0.007 A 
HETATM   18  C   UNL     1      -6.894  -3.280 -34.741  1.00  0.00     0.001 A 
HETATM   19  C   UNL     1      -5.759  -4.083 -34.846  1.00  0.00     0.000 A 
HETATM   20  C   UNL     1      -4.521  -3.594 -34.434  1.00  0.00     0.001 A 
HETATM   21  C   UNL     1      -4.415  -2.302 -33.914  1.00  0.00     0.007 A 
ENDBRANCH  15  16
ENDBRANCH  14  15
ENDBRANCH   2  14
BRANCH   3  22
HETATM   22  C   UNL     1      -5.203   3.713 -33.228  1.00  0.00     0.012 A 
HETATM   23  C   UNL     1      -5.250   4.562 -34.336  1.00  0.00     0.018 A 
HETATM   24  C   UNL     1      -4.084   5.165 -34.824  1.00  0.00     0.037 A 
HETATM   25  C   UNL     1      -2.856   4.957 -34.195  1.00  0.00     0.068 A 
HETATM   26  C   UNL     1      -2.796   4.124 -33.082  1.00  0.00     0.037 A 
HETATM   27  C   UNL     1      -3.962   3.511 -32.604  1.00  0.00     0.018 A 
BRANCH  25  28
HETATM   28  O   UNL     1      -1.801   5.621 -34.758  1.00  0.00    -0.356 OA
HETATM   29  C   UNL     1      -1.134   6.570 -33.935  1.00  0.00     0.210 C 
ENDBRANCH  25  28
ENDBRANCH   3  22
TORSDOF 9
ENDMDL
MODEL 4
REMARK VINA RESULT:      -8.0      2.657      7.318
REMARK  9 active torsions:
REMARK  status: ('A' for Active; 'I' for Inactive)
REMARK    1  A    between atoms: C_2  and  N_3 
REMARK       I    between atoms: N_3  and  C_4 
REMARK    2  A    between atoms: C_4  and  C_5 
REMARK    3  A    between atoms: C_5  and  S_6 
REMARK    4  A    between atoms: S_6  and  C_7 
REMARK    5  A    between atoms: N_8  and  C_9 
REMARK    6  A    between atoms: C_9  and  C_10 
REMARK    7  A    between atoms: C_10  and  C_11 
REMARK    8  A    between atoms: C_17  and  C_18 
REMARK    9  A    between atoms: C_21  and  O_22 
ROOT
HETATM    1  C   UNL     1      -9.407   2.671 -33.489  1.00  0.00     0.192 A 
HETATM    2  N   UNL     1      -8.362   1.783 -33.447  1.00  0.00    -0.307 N 
HETATM    3  C   UNL     1      -7.471   2.308 -32.524  1.00  0.00     0.164 A 
HETATM    4  N   UNL     1      -8.001   3.416 -32.031  1.00  0.00    -0.128 NA
HETATM    5  N   UNL     1      -9.207   3.638 -32.631  1.00  0.00    -0.122 NA
ENDROOT
BRANCH   1   6
HETATM    6  S   UNL     1     -10.789   2.510 -34.516  1.00  0.00    -0.081 SA
BRANCH   6   7
HETATM    7  C   UNL     1     -11.817   1.360 -33.560  1.00  0.00     0.185 C 
BRANCH   7   8
HETATM    8  C   UNL     1     -13.298   1.659 -33.731  1.00  0.00     0.227 C 
HETATM    9  N   UNL     1     -14.031   1.572 -32.565  1.00  0.00    -0.361 N 
HETATM   10  H   UNL     1     -13.514   1.690 -31.694  1.00  0.00     0.162 HD
HETATM   11  O   UNL     1     -13.790   1.926 -34.824  1.00  0.00    -0.273 OA
BRANCH   9  12
HETATM   12  C   UNL     1     -15.447   1.867 -32.526  1.00  0.00     0.118 C 
HETATM   13  C   UNL     1     -15.713   3.313 -32.150  1.00  0.00     0.026 C 
ENDBRANCH   9  12
ENDBRANCH   7   8
ENDBRANCH   6   7
ENDBRANCH   1   6
BRANCH   2  14
HETATM   14  C   UNL     1      -8.306   0.486 -34.093  1.00  0.00     0.137 C 
BRANCH  14  15
HETATM   15  C   UNL     1      -7.077   0.306 -34.986  1.00  0.00     0.059 C 
BRANCH  15  16
HETATM   16  C   UNL     1      -6.426  -1.036 -34.755  1.00  0.00    -0.057 A 
HETATM   17  C   UNL     1      -7.153  -2.218 -34.961  1.00  0.00     0.007 A 
HETATM   18  C   UNL     1      -6.565  -3.460 -34.722  1.00  0.00     0.001 A 
HETATM   19  C   UNL     1      -5.246  -3.534 -34.275  1.00  0.00     0.000 A 
HETATM   20  C   UNL     1      -4.516  -2.366 -34.068  1.00  0.00     0.001 A 
HETATM   21  C   UNL     1      -5.103  -1.121 -34.305  1.00  0.00     0.007 A 
ENDBRANCH  15  16
ENDBRANCH  14  15
ENDBRANCH   2  14
BRANCH   3  22
HETATM   22  C   UNL     1      -6.191   1.751 -32.075  1.00  0.00     0.012 A 
HETATM   23  C   UNL     1      -6.091   0.701 -31.159  1.00  0.00     0.018 A 
HETATM   24  C   UNL     1      -4.840   0.188 -30.796  1.00  0.00     0.037 A 
HETATM   25  C   UNL     1      -3.669   0.692 -31.363  1.00  0.00     0.068 A 
HETATM   26  C   UNL     1      -3.755   1.730 -32.285  1.00  0.00     0.037 A 
HETATM   27  C   UNL     1      -5.007   2.251 -32.638  1.00  0.00     0.018 A 
BRANCH  25  28
HETATM   28  O   UNL     1      -2.518   0.090 -30.937  1.00  0.00    -0.356 OA
HETATM   29  C   UNL     1      -2.103  -1.068 -31.653  1.00  0.00     0.210 C 
ENDBRANCH  25  28
ENDBRANCH   3  22
TORSDOF 9
ENDMDL
MODEL 5
REMARK VINA RESULT:      -7.9      2.860      7.826
REMARK  9 active torsions:
REMARK  status: ('A' for Active; 'I' for Inactive)
REMARK    1  A    between atoms: C_2  and  N_3 
REMARK       I    between atoms: N_3  and  C_4 
REMARK    2  A    between atoms: C_4  and  C_5 
REMARK    3  A    between atoms: C_5  and  S_6 
REMARK    4  A    between atoms: S_6  and  C_7 
REMARK    5  A    between atoms: N_8  and  C_9 
REMARK    6  A    between atoms: C_9  and  C_10 
REMARK    7  A    between atoms: C_10  and  C_11 
REMARK    8  A    between atoms: C_17  and  C_18 
REMARK    9  A    between atoms: C_21  and  O_22 
ROOT
HETATM    1  C   UNL     1      -9.057   1.980 -33.315  1.00  0.00     0.192 A 
HETATM    2  N   UNL     1      -7.776   1.570 -33.582  1.00  0.00    -0.307 N 
HETATM    3  C   UNL     1      -7.804   0.188 -33.488  1.00  0.00     0.164 A 
HETATM    4  N   UNL     1      -9.049  -0.177 -33.225  1.00  0.00    -0.128 NA
HETATM    5  N   UNL     1      -9.828   0.939 -33.122  1.00  0.00    -0.122 NA
ENDROOT
BRANCH   1   6
HETATM    6  S   UNL     1      -9.569   3.630 -33.267  1.00  0.00    -0.081 SA
BRANCH   6   7
HETATM    7  C   UNL     1     -10.918   3.554 -32.056  1.00  0.00     0.185 C 
BRANCH   7   8
HETATM    8  C   UNL     1     -12.273   3.425 -32.734  1.00  0.00     0.227 C 
HETATM    9  N   UNL     1     -12.714   2.126 -32.876  1.00  0.00    -0.361 N 
HETATM   10  H   UNL     1     -12.325   1.441 -32.228  1.00  0.00     0.162 HD
HETATM   11  O   UNL     1     -12.898   4.402 -33.141  1.00  0.00    -0.273 OA
BRANCH   9  12
HETATM   12  C   UNL     1     -14.002   1.812 -33.457  1.00  0.00     0.118 C 
HETATM   13  C   UNL     1     -14.072   0.372 -33.932  1.00  0.00     0.026 C 
ENDBRANCH   9  12
ENDBRANCH   7   8
ENDBRANCH   6   7
ENDBRANCH   1   6
BRANCH   2  14
HETATM   14  C   UNL     1      -6.683   2.404 -34.045  1.00  0.00     0.137 C 
BRANCH  14  15
HETATM   15  C   UNL     1      -5.888   3.049 -32.908  1.00  0.00     0.059 C 
BRANCH  15  16
HETATM   16  C   UNL     1      -4.697   3.809 -33.439  1.00  0.00    -0.057 A 
HETATM   17  C   UNL     1      -4.825   4.616 -34.579  1.00  0.00     0.007 A 
HETATM   18  C   UNL     1      -3.721   5.299 -35.090  1.00  0.00     0.001 A 
HETATM   19  C   UNL     1      -2.479   5.183 -34.467  1.00  0.00     0.000 A 
HETATM   20  C   UNL     1      -2.341   4.384 -33.334  1.00  0.00     0.001 A 
HETATM   21  C   UNL     1      -3.445   3.698 -32.822  1.00  0.00     0.007 A 
ENDBRANCH  15  16
ENDBRANCH  14  15
ENDBRANCH   2  14
BRANCH   3  22
HETATM   22  C   UNL     1      -6.708  -0.762 -33.700  1.00  0.00     0.012 A 
HETATM   23  C   UNL     1      -5.519  -0.739 -32.965  1.00  0.00     0.018 A 
HETATM   24  C   UNL     1      -4.523  -1.696 -33.190  1.00  0.00     0.037 A 
HETATM   25  C   UNL     1      -4.706  -2.712 -34.129  1.00  0.00     0.068 A 
HETATM   26  C   UNL     1      -5.889  -2.754 -34.860  1.00  0.00     0.037 A 
HETATM   27  C   UNL     1      -6.881  -1.788 -34.643  1.00  0.00     0.018 A 
BRANCH  25  28
HETATM   28  O   UNL     1      -3.665  -3.592 -34.236  1.00  0.00    -0.356 OA
HETATM   29  C   UNL     1      -3.840  -4.861 -33.617  1.00  0.00     0.210 C 
ENDBRANCH  25  28
ENDBRANCH   3  22
TORSDOF 9
ENDMDL
MODEL 6
REMARK VINA RESULT:      -7.9      1.592      2.379
REMARK  9 active torsions:
REMARK  status: ('A' for Active; 'I' for Inactive)
REMARK    1  A    between atoms: C_2  and  N_3 
REMARK       I    between atoms: N_3  and  C_4 
REMARK    2  A    between atoms: C_4  and  C_5 
REMARK    3  A    between atoms: C_5  and  S_6 
REMARK    4  A    between atoms: S_6  and  C_7 
REMARK    5  A    between atoms: N_8  and  C_9 
REMARK    6  A    between atoms: C_9  and  C_10 
REMARK    7  A    between atoms: C_10  and  C_11 
REMARK    8  A    between atoms: C_17  and  C_18 
REMARK    9  A    between atoms: C_21  and  O_22 
ROOT
HETATM    1  C   UNL     1      -5.061   3.171 -31.761  1.00  0.00     0.192 A 
HETATM    2  N   UNL     1      -5.921   2.332 -32.422  1.00  0.00    -0.307 N 
HETATM    3  C   UNL     1      -7.168   2.928 -32.318  1.00  0.00     0.164 A 
HETATM    4  N   UNL     1      -7.021   4.073 -31.670  1.00  0.00    -0.128 NA
HETATM    5  N   UNL     1      -5.708   4.224 -31.327  1.00  0.00    -0.122 NA
ENDROOT
BRANCH   1   6
HETATM    6  S   UNL     1      -3.369   2.879 -31.557  1.00  0.00    -0.081 SA
BRANCH   6   7
HETATM    7  C   UNL     1      -2.662   3.939 -32.850  1.00  0.00     0.185 C 
BRANCH   7   8
HETATM    8  C   UNL     1      -1.679   4.945 -32.273  1.00  0.00     0.227 C 
HETATM    9  N   UNL     1      -1.440   4.793 -30.923  1.00  0.00    -0.361 N 
HETATM   10  H   UNL     1      -1.616   3.867 -30.532  1.00  0.00     0.162 HD
HETATM   11  O   UNL     1      -1.170   5.829 -32.957  1.00  0.00    -0.273 OA
BRANCH   9  12
HETATM   12  C   UNL     1      -0.498   5.630 -30.212  1.00  0.00     0.118 C 
HETATM   13  C   UNL     1       0.736   4.857 -29.785  1.00  0.00     0.026 C 
ENDBRANCH   9  12
ENDBRANCH   7   8
ENDBRANCH   6   7
ENDBRANCH   1   6
BRANCH   2  14
HETATM   14  C   UNL     1      -5.557   1.173 -33.213  1.00  0.00     0.137 C 
BRANCH  14  15
HETATM   15  C   UNL     1      -5.591  -0.136 -32.423  1.00  0.00     0.059 C 
BRANCH  15  16
HETATM   16  C   UNL     1      -5.629  -1.330 -33.346  1.00  0.00    -0.057 A 
HETATM   17  C   UNL     1      -4.440  -1.980 -33.710  1.00  0.00     0.007 A 
HETATM   18  C   UNL     1      -4.468  -3.066 -34.585  1.00  0.00     0.001 A 
HETATM   19  C   UNL     1      -5.682  -3.514 -35.104  1.00  0.00     0.000 A 
HETATM   20  C   UNL     1      -6.868  -2.875 -34.748  1.00  0.00     0.001 A 
HETATM   21  C   UNL     1      -6.843  -1.787 -33.874  1.00  0.00     0.007 A 
ENDBRANCH  15  16
ENDBRANCH  14  15
ENDBRANCH   2  14
BRANCH   3  22
HETATM   22  C   UNL     1      -8.447   2.466 -32.867  1.00  0.00     0.012 A 
HETATM   23  C   UNL     1      -9.145   3.150 -33.866  1.00  0.00     0.018 A 
HETATM   24  C   UNL     1     -10.345   2.639 -34.375  1.00  0.00     0.037 A 
HETATM   25  C   UNL     1     -10.855   1.422 -33.920  1.00  0.00     0.068 A 
HETATM   26  C   UNL     1     -10.163   0.725 -32.934  1.00  0.00     0.037 A 
HETATM   27  C   UNL     1      -8.969   1.243 -32.416  1.00  0.00     0.018 A 
BRANCH  25  28
HETATM   28  O   UNL     1     -12.021   1.028 -34.513  1.00  0.00    -0.356 OA
HETATM   29  C   UNL     1     -12.941   0.313 -33.697  1.00  0.00     0.210 C 
ENDBRANCH  25  28
ENDBRANCH   3  22
TORSDOF 9
ENDMDL
MODEL 7
REMARK VINA RESULT:      -7.8      2.482      5.355
REMARK  9 active torsions:
REMARK  status: ('A' for Active; 'I' for Inactive)
REMARK    1  A    between atoms: C_2  and  N_3 
REMARK       I    between atoms: N_3  and  C_4 
REMARK    2  A    between atoms: C_4  and  C_5 
REMARK    3  A    between atoms: C_5  and  S_6 
REMARK    4  A    between atoms: S_6  and  C_7 
REMARK    5  A    between atoms: N_8  and  C_9 
REMARK    6  A    between atoms: C_9  and  C_10 
REMARK    7  A    between atoms: C_10  and  C_11 
REMARK    8  A    between atoms: C_17  and  C_18 
REMARK    9  A    between atoms: C_21  and  O_22 
ROOT
HETATM    1  C   UNL     1      -3.703   2.506 -31.770  1.00  0.00     0.192 A 
HETATM    2  N   UNL     1      -4.562   1.897 -32.648  1.00  0.00    -0.307 N 
HETATM    3  C   UNL     1      -4.289   0.542 -32.549  1.00  0.00     0.164 A 
HETATM    4  N   UNL     1      -3.352   0.381 -31.628  1.00  0.00    -0.128 NA
HETATM    5  N   UNL     1      -2.991   1.605 -31.142  1.00  0.00    -0.122 NA
ENDROOT
BRANCH   1   6
HETATM    6  S   UNL     1      -3.601   4.214 -31.524  1.00  0.00    -0.081 SA
BRANCH   6   7
HETATM    7  C   UNL     1      -2.080   4.619 -32.428  1.00  0.00     0.185 C 
BRANCH   7   8
HETATM    8  C   UNL     1      -1.221   5.612 -31.662  1.00  0.00     0.227 C 
HETATM    9  N   UNL     1      -1.355   5.537 -30.291  1.00  0.00    -0.361 N 
HETATM   10  H   UNL     1      -1.686   4.649 -29.915  1.00  0.00     0.162 HD
HETATM   11  O   UNL     1      -0.495   6.425 -32.229  1.00  0.00    -0.273 OA
BRANCH   9  12
HETATM   12  C   UNL     1      -0.581   6.373 -29.398  1.00  0.00     0.118 C 
HETATM   13  C   UNL     1       0.607   5.630 -28.815  1.00  0.00     0.026 C 
ENDBRANCH   9  12
ENDBRANCH   7   8
ENDBRANCH   6   7
ENDBRANCH   1   6
BRANCH   2  14
HETATM   14  C   UNL     1      -5.645   2.531 -33.375  1.00  0.00     0.137 C 
BRANCH  14  15
HETATM   15  C   UNL     1      -6.807   2.962 -32.479  1.00  0.00     0.059 C 
BRANCH  15  16
HETATM   16  C   UNL     1      -8.022   2.095 -32.705  1.00  0.00    -0.057 A 
HETATM   17  C   UNL     1      -8.506   1.275 -31.674  1.00  0.00     0.007 A 
HETATM   18  C   UNL     1      -9.611   0.450 -31.887  1.00  0.00     0.001 A 
HETATM   19  C   UNL     1     -10.242   0.436 -33.130  1.00  0.00     0.000 A 
HETATM   20  C   UNL     1      -9.769   1.246 -34.159  1.00  0.00     0.001 A 
HETATM   21  C   UNL     1      -8.662   2.072 -33.950  1.00  0.00     0.007 A 
ENDBRANCH  15  16
ENDBRANCH  14  15
ENDBRANCH   2  14
BRANCH   3  22
HETATM   22  C   UNL     1      -4.934  -0.571 -33.253  1.00  0.00     0.012 A 
HETATM   23  C   UNL     1      -4.227  -1.647 -33.797  1.00  0.00     0.018 A 
HETATM   24  C   UNL     1      -4.902  -2.699 -34.428  1.00  0.00     0.037 A 
HETATM   25  C   UNL     1      -6.296  -2.712 -34.500  1.00  0.00     0.068 A 
HETATM   26  C   UNL     1      -7.013  -1.653 -33.952  1.00  0.00     0.037 A 
HETATM   27  C   UNL     1      -6.335  -0.595 -33.332  1.00  0.00     0.018 A 
BRANCH  25  28
HETATM   28  O   UNL     1      -6.829  -3.806 -35.123  1.00  0.00    -0.356 OA
HETATM   29  C   UNL     1      -5.963  -4.920 -35.306  1.00  0.00     0.210 C 
ENDBRANCH  25  28
ENDBRANCH   3  22
TORSDOF 9
ENDMDL
MODEL 8
REMARK VINA RESULT:      -7.7      2.771      7.570
REMARK  9 active torsions:
REMARK  status: ('A' for Active; 'I' for Inactive)
REMARK    1  A    between atoms: C_2  and  N_3 
REMARK       I    between atoms: N_3  and  C_4 
REMARK    2  A    between atoms: C_4  and  C_5 
REMARK    3  A    between atoms: C_5  and  S_6 
REMARK    4  A    between atoms: S_6  and  C_7 
REMARK    5  A    between atoms: N_8  and  C_9 
REMARK    6  A    between atoms: C_9  and  C_10 
REMARK    7  A    between atoms: C_10  and  C_11 
REMARK    8  A    between atoms: C_17  and  C_18 
REMARK    9  A    between atoms: C_21  and  O_22 
ROOT
HETATM    1  C   UNL     1     -10.137   2.741 -34.134  1.00  0.00     0.192 A 
HETATM    2  N   UNL     1      -8.935   2.175 -33.795  1.00  0.00    -0.307 N 
HETATM    3  C   UNL     1      -8.124   3.232 -33.417  1.00  0.00     0.164 A 
HETATM    4  N   UNL     1      -8.840   4.343 -33.491  1.00  0.00    -0.128 NA
HETATM    5  N   UNL     1     -10.094   4.034 -33.934  1.00  0.00    -0.122 NA
ENDROOT
BRANCH   1   6
HETATM    6  S   UNL     1     -11.507   1.861 -34.716  1.00  0.00    -0.081 SA
BRANCH   6   7
HETATM    7  C   UNL     1     -12.829   3.090 -34.534  1.00  0.00     0.185 C 
BRANCH   7   8
HETATM    8  C   UNL     1     -13.530   2.965 -33.190  1.00  0.00     0.227 C 
HETATM    9  N   UNL     1     -14.766   2.355 -33.251  1.00  0.00    -0.361 N 
HETATM   10  H   UNL     1     -14.931   1.741 -34.049  1.00  0.00     0.162 HD
HETATM   11  O   UNL     1     -13.038   3.398 -32.152  1.00  0.00    -0.273 OA
BRANCH   9  12
HETATM   12  C   UNL     1     -15.559   2.108 -32.066  1.00  0.00     0.118 C 
HETATM   13  C   UNL     1     -16.965   2.662 -32.201  1.00  0.00     0.026 C 
ENDBRANCH   9  12
ENDBRANCH   7   8
ENDBRANCH   6   7
ENDBRANCH   1   6
BRANCH   2  14
HETATM   14  C   UNL     1      -8.651   0.757 -33.684  1.00  0.00     0.137 C 
BRANCH  14  15
HETATM   15  C   UNL     1      -7.989   0.170 -34.932  1.00  0.00     0.059 C 
BRANCH  15  16
HETATM   16  C   UNL     1      -6.782  -0.660 -34.570  1.00  0.00    -0.057 A 
HETATM   17  C   UNL     1      -6.749  -2.029 -34.877  1.00  0.00     0.007 A 
HETATM   18  C   UNL     1      -5.647  -2.807 -34.520  1.00  0.00     0.001 A 
HETATM   19  C   UNL     1      -4.569  -2.226 -33.853  1.00  0.00     0.000 A 
HETATM   20  C   UNL     1      -4.593  -0.868 -33.544  1.00  0.00     0.001 A 
HETATM   21  C   UNL     1      -5.695  -0.087 -33.899  1.00  0.00     0.007 A 
ENDBRANCH  15  16
ENDBRANCH  14  15
ENDBRANCH   2  14
BRANCH   3  22
HETATM   22  C   UNL     1      -6.738   3.192 -32.940  1.00  0.00     0.012 A 
HETATM   23  C   UNL     1      -5.661   3.703 -33.668  1.00  0.00     0.018 A 
HETATM   24  C   UNL     1      -4.363   3.668 -33.144  1.00  0.00     0.037 A 
HETATM   25  C   UNL     1      -4.121   3.150 -31.870  1.00  0.00     0.068 A 
HETATM   26  C   UNL     1      -5.186   2.648 -31.129  1.00  0.00     0.037 A 
HETATM   27  C   UNL     1      -6.482   2.673 -31.661  1.00  0.00     0.018 A 
BRANCH  25  28
HETATM   28  O   UNL     1      -2.814   3.193 -31.470  1.00  0.00    -0.356 OA
HETATM   29  C   UNL     1      -2.075   4.352 -31.838  1.00  0.00     0.210 C 
ENDBRANCH  25  28
ENDBRANCH   3  22
TORSDOF 9
ENDMDL
MODEL 9
REMARK VINA RESULT:      -7.7      2.101      7.179
REMARK  9 active torsions:
REMARK  status: ('A' for Active; 'I' for Inactive)
REMARK    1  A    between atoms: C_2  and  N_3 
REMARK       I    between atoms: N_3  and  C_4 
REMARK    2  A    between atoms: C_4  and  C_5 
REMARK    3  A    between atoms: C_5  and  S_6 
REMARK    4  A    between atoms: S_6  and  C_7 
REMARK    5  A    between atoms: N_8  and  C_9 
REMARK    6  A    between atoms: C_9  and  C_10 
REMARK    7  A    between atoms: C_10  and  C_11 
REMARK    8  A    between atoms: C_17  and  C_18 
REMARK    9  A    between atoms: C_21  and  O_22 
ROOT
HETATM    1  C   UNL     1      -9.102   1.668 -32.751  1.00  0.00     0.192 A 
HETATM    2  N   UNL     1      -7.747   1.459 -32.719  1.00  0.00    -0.307 N 
HETATM    3  C   UNL     1      -7.191   2.695 -32.432  1.00  0.00     0.164 A 
HETATM    4  N   UNL     1      -8.181   3.558 -32.263  1.00  0.00    -0.128 NA
HETATM    5  N   UNL     1      -9.369   2.915 -32.459  1.00  0.00    -0.122 NA
ENDROOT
BRANCH   1   6
HETATM    6  S   UNL     1     -10.274   0.447 -33.106  1.00  0.00    -0.081 SA
BRANCH   6   7
HETATM    7  C   UNL     1     -11.115   1.162 -34.547  1.00  0.00     0.185 C 
BRANCH   7   8
HETATM    8  C   UNL     1     -12.534   1.592 -34.211  1.00  0.00     0.227 C 
HETATM    9  N   UNL     1     -12.676   2.144 -32.955  1.00  0.00    -0.361 N 
HETATM   10  H   UNL     1     -11.837   2.546 -32.538  1.00  0.00     0.162 HD
HETATM   11  O   UNL     1     -13.469   1.429 -34.991  1.00  0.00    -0.273 OA
BRANCH   9  12
HETATM   12  C   UNL     1     -13.945   2.652 -32.480  1.00  0.00     0.118 C 
HETATM   13  C   UNL     1     -14.001   4.168 -32.527  1.00  0.00     0.026 C 
ENDBRANCH   9  12
ENDBRANCH   7   8
ENDBRANCH   6   7
ENDBRANCH   1   6
BRANCH   2  14
HETATM   14  C   UNL     1      -7.070   0.178 -32.787  1.00  0.00     0.137 C 
BRANCH  14  15
HETATM   15  C   UNL     1      -6.300  -0.033 -34.092  1.00  0.00     0.059 C 
BRANCH  15  16
HETATM   16  C   UNL     1      -5.972  -1.492 -34.302  1.00  0.00    -0.057 A 
HETATM   17  C   UNL     1      -6.979  -2.397 -34.669  1.00  0.00     0.007 A 
HETATM   18  C   UNL     1      -6.685  -3.750 -34.837  1.00  0.00     0.001 A 
HETATM   19  C   UNL     1      -5.385  -4.213 -34.639  1.00  0.00     0.000 A 
HETATM   20  C   UNL     1      -4.378  -3.321 -34.275  1.00  0.00     0.001 A 
HETATM   21  C   UNL     1      -4.669  -1.966 -34.105  1.00  0.00     0.007 A 
ENDBRANCH  15  16
ENDBRANCH  14  15
ENDBRANCH   2  14
BRANCH   3  22
HETATM   22  C   UNL     1      -5.776   3.040 -32.259  1.00  0.00     0.012 A 
HETATM   23  C   UNL     1      -4.959   2.460 -31.286  1.00  0.00     0.018 A 
HETATM   24  C   UNL     1      -3.605   2.804 -31.193  1.00  0.00     0.037 A 
HETATM   25  C   UNL     1      -3.035   3.709 -32.089  1.00  0.00     0.068 A 
HETATM   26  C   UNL     1      -3.834   4.285 -33.071  1.00  0.00     0.037 A 
HETATM   27  C   UNL     1      -5.192   3.949 -33.155  1.00  0.00     0.018 A 
BRANCH  25  28
HETATM   28  O   UNL     1      -1.701   3.942 -31.901  1.00  0.00    -0.356 OA
HETATM   29  C   UNL     1      -1.354   5.134 -31.206  1.00  0.00     0.210 C 
ENDBRANCH  25  28
ENDBRANCH   3  22
TORSDOF 9
ENDMDL
MODEL 10
REMARK VINA RESULT:      -7.7     14.724     16.513
REMARK  9 active torsions:
REMARK  status: ('A' for Active; 'I' for Inactive)
REMARK    1  A    between atoms: C_2  and  N_3 
REMARK       I    between atoms: N_3  and  C_4 
REMARK    2  A    between atoms: C_4  and  C_5 
REMARK    3  A    between atoms: C_5  and  S_6 
REMARK    4  A    between atoms: S_6  and  C_7 
REMARK    5  A    between atoms: N_8  and  C_9 
REMARK    6  A    between atoms: C_9  and  C_10 
REMARK    7  A    between atoms: C_10  and  C_11 
REMARK    8  A    between atoms: C_17  and  C_18 
REMARK    9  A    between atoms: C_21  and  O_22 
ROOT
HETATM    1  C   UNL     1      -4.971 -12.411 -38.510  1.00  0.00     0.192 A 
HETATM    2  N   UNL     1      -5.682 -12.953 -37.469  1.00  0.00    -0.307 N 
HETATM    3  C   UNL     1      -4.760 -13.138 -36.451  1.00  0.00     0.164 A 
HETATM    4  N   UNL     1      -3.590 -12.683 -36.873  1.00  0.00    -0.128 NA
HETATM    5  N   UNL     1      -3.725 -12.228 -38.153  1.00  0.00    -0.122 NA
ENDROOT
BRANCH   1   6
HETATM    6  S   UNL     1      -5.642 -12.015 -40.053  1.00  0.00    -0.081 SA
BRANCH   6   7
HETATM    7  C   UNL     1      -5.579 -13.620 -40.897  1.00  0.00     0.185 C 
BRANCH   7   8
HETATM    8  C   UNL     1      -4.258 -13.821 -41.621  1.00  0.00     0.227 C 
HETATM    9  N   UNL     1      -3.172 -13.980 -40.785  1.00  0.00    -0.361 N 
HETATM   10  H   UNL     1      -3.371 -14.314 -39.841  1.00  0.00     0.162 HD
HETATM   11  O   UNL     1      -4.174 -13.812 -42.847  1.00  0.00    -0.273 OA
BRANCH   9  12
HETATM   12  C   UNL     1      -1.841 -14.228 -41.295  1.00  0.00     0.118 C 
HETATM   13  C   UNL     1      -0.770 -13.845 -40.289  1.00  0.00     0.026 C 
ENDBRANCH   9  12
ENDBRANCH   7   8
ENDBRANCH   6   7
ENDBRANCH   1   6
BRANCH   2  14
HETATM   14  C   UNL     1      -7.121 -13.115 -37.400  1.00  0.00     0.137 C 
BRANCH  14  15
HETATM   15  C   UNL     1      -7.610 -14.446 -37.973  1.00  0.00     0.059 C 
BRANCH  15  16
HETATM   16  C   UNL     1      -8.770 -14.241 -38.917  1.00  0.00    -0.057 A 
HETATM   17  C   UNL     1      -9.297 -12.957 -39.119  1.00  0.00     0.007 A 
HETATM   18  C   UNL     1     -10.387 -12.766 -39.969  1.00  0.00     0.001 A 
HETATM   19  C   UNL     1     -10.960 -13.854 -40.625  1.00  0.00     0.000 A 
HETATM   20  C   UNL     1     -10.442 -15.134 -40.432  1.00  0.00     0.001 A 
HETATM   21  C   UNL     1      -9.353 -15.328 -39.580  1.00  0.00     0.007 A 
ENDBRANCH  15  16
ENDBRANCH  14  15
ENDBRANCH   2  14
BRANCH   3  22
HETATM   22  C   UNL     1      -4.985 -13.667 -35.103  1.00  0.00     0.012 A 
HETATM   23  C   UNL     1      -4.738 -14.996 -34.749  1.00  0.00     0.018 A 
HETATM   24  C   UNL     1      -4.939 -15.434 -33.435  1.00  0.00     0.037 A 
HETATM   25  C   UNL     1      -5.360 -14.548 -32.442  1.00  0.00     0.068 A 
HETATM   26  C   UNL     1      -5.598 -13.219 -32.778  1.00  0.00     0.037 A 
HETATM   27  C   UNL     1      -5.409 -12.785 -34.096  1.00  0.00     0.018 A 
BRANCH  25  28
HETATM   28  O   UNL     1      -5.498 -15.099 -31.199  1.00  0.00    -0.356 OA
HETATM   29  C   UNL     1      -4.494 -16.024 -30.799  1.00  0.00     0.210 C 
ENDBRANCH  25  28
ENDBRANCH   3  22
TORSDOF 9
ENDMDL
