MODEL 1
REMARK VINA RESULT:     -10.3      0.000      0.000
REMARK  4 active torsions:
REMARK  status: ('A' for Active; 'I' for Inactive)
REMARK    1  A    between atoms: C_5  and  C_6 
REMARK    2  A    between atoms: C_6  and  C_7 
REMARK       I    between atoms: C_7  and  N_8 
REMARK    3  A    between atoms: N_8  and  C_9 
REMARK    4  A    between atoms: C_16  and  C_17 
REMARK       I    between atoms: C_17  and  N_18 
ROOT
HETATM    1  C   UNL     1      -9.911   1.793 -34.104  1.00  0.00     0.035 A 
HETATM    2  C   UNL     1     -11.184   1.209 -34.137  1.00  0.00     0.046 A 
HETATM    3  C   UNL     1     -12.287   1.907 -33.596  1.00  0.00     0.030 A 
HETATM    4  C   UNL     1     -12.074   3.155 -33.023  1.00  0.00     0.063 A 
HETATM    5  N   UNL     1     -13.302   3.569 -32.589  1.00  0.00    -0.277 N 
HETATM    6  H   UNL     1     -13.525   4.437 -32.118  1.00  0.00     0.189 HD
HETATM    7  N   UNL     1     -14.302   2.709 -32.844  1.00  0.00    -0.168 NA
HETATM    8  C   UNL     1     -13.690   1.677 -33.468  1.00  0.00     0.156 A 
HETATM    9  C   UNL     1     -10.819   3.764 -32.966  1.00  0.00     0.034 A 
HETATM   10  C   UNL     1      -9.747   3.060 -33.527  1.00  0.00     0.032 A 
ENDROOT
BRANCH   1  11
HETATM   11  N   UNL     1      -8.755   1.188 -34.645  1.00  0.00    -0.327 N 
HETATM   12  C   UNL     1      -8.129   0.031 -34.217  1.00  0.00     0.226 C 
HETATM   13  O   UNL     1      -8.416  -0.628 -33.222  1.00  0.00    -0.273 OA
HETATM   14  H   UNL     1      -8.354   1.645 -35.453  1.00  0.00     0.169 HD
BRANCH  12  15
HETATM   15  C   UNL     1      -6.931  -0.360 -35.075  1.00  0.00     0.142 C 
BRANCH  15  16
HETATM   16  C   UNL     1      -5.766  -0.937 -34.292  1.00  0.00    -0.038 A 
HETATM   17  C   UNL     1      -5.449  -2.326 -34.318  1.00  0.00    -0.019 A 
HETATM   18  C   UNL     1      -4.333  -2.783 -33.570  1.00  0.00    -0.025 A 
HETATM   19  C   UNL     1      -6.184  -3.290 -35.046  1.00  0.00     0.013 A 
HETATM   20  C   UNL     1      -3.992  -4.147 -33.576  1.00  0.00     0.012 A 
HETATM   21  C   UNL     1      -3.572  -1.874 -32.821  1.00  0.00     0.012 A 
HETATM   22  C   UNL     1      -4.736  -5.070 -34.308  1.00  0.00     0.001 A 
HETATM   23  C   UNL     1      -5.832  -4.642 -35.043  1.00  0.00     0.001 A 
HETATM   24  C   UNL     1      -3.897  -0.521 -32.794  1.00  0.00     0.001 A 
HETATM   25  C   UNL     1      -4.985  -0.055 -33.522  1.00  0.00     0.008 A 
ENDBRANCH  15  16
ENDBRANCH  12  15
ENDBRANCH   1  11
BRANCH   8  26
HETATM   26  C   UNL     1     -14.455   0.511 -33.937  1.00  0.00     0.270 C 
HETATM   27  N   UNL     1     -14.014  -0.683 -33.434  1.00  0.00    -0.365 N 
HETATM   28  H   UNL     1     -13.234  -0.678 -32.787  1.00  0.00     0.159 HD
HETATM   29  H   UNL     1     -14.492  -1.534 -33.681  1.00  0.00     0.159 HD
HETATM   30  O   UNL     1     -15.411   0.562 -34.702  1.00  0.00    -0.266 OA
ENDBRANCH   8  26
TORSDOF 4
ENDMDL
MODEL 2
REMARK VINA RESULT:      -9.7      0.633      2.282
REMARK  4 active torsions:
REMARK  status: ('A' for Active; 'I' for Inactive)
REMARK    1  A    between atoms: C_5  and  C_6 
REMARK    2  A    between atoms: C_6  and  C_7 
REMARK       I    between atoms: C_7  and  N_8 
REMARK    3  A    between atoms: N_8  and  C_9 
REMARK    4  A    between atoms: C_16  and  C_17 
REMARK       I    between atoms: C_17  and  N_18 
ROOT
HETATM    1  C   UNL     1      -9.875   1.824 -34.023  1.00  0.00     0.035 A 
HETATM    2  C   UNL     1     -11.141   1.228 -34.095  1.00  0.00     0.046 A 
HETATM    3  C   UNL     1     -12.251   1.870 -33.502  1.00  0.00     0.030 A 
HETATM    4  C   UNL     1     -12.053   3.077 -32.843  1.00  0.00     0.063 A 
HETATM    5  N   UNL     1     -13.285   3.443 -32.378  1.00  0.00    -0.277 N 
HETATM    6  H   UNL     1     -13.518   4.272 -31.845  1.00  0.00     0.189 HD
HETATM    7  N   UNL     1     -14.275   2.590 -32.691  1.00  0.00    -0.168 NA
HETATM    8  C   UNL     1     -13.651   1.613 -33.389  1.00  0.00     0.156 A 
HETATM    9  C   UNL     1     -10.806   3.697 -32.745  1.00  0.00     0.034 A 
HETATM   10  C   UNL     1      -9.726   3.049 -33.358  1.00  0.00     0.032 A 
ENDROOT
BRANCH   1  11
HETATM   11  N   UNL     1      -8.714   1.276 -34.608  1.00  0.00    -0.327 N 
HETATM   12  C   UNL     1      -8.053   0.115 -34.246  1.00  0.00     0.226 C 
HETATM   13  O   UNL     1      -8.309  -0.597 -33.280  1.00  0.00    -0.273 OA
HETATM   14  H   UNL     1      -8.336   1.781 -35.399  1.00  0.00     0.169 HD
BRANCH  12  15
HETATM   15  C   UNL     1      -6.859  -0.204 -35.137  1.00  0.00     0.142 C 
BRANCH  15  16
HETATM   16  C   UNL     1      -5.893  -1.214 -34.547  1.00  0.00    -0.038 A 
HETATM   17  C   UNL     1      -4.948  -0.861 -33.540  1.00  0.00    -0.019 A 
HETATM   18  C   UNL     1      -4.090  -1.868 -33.029  1.00  0.00    -0.025 A 
HETATM   19  C   UNL     1      -4.806   0.444 -33.014  1.00  0.00     0.013 A 
HETATM   20  C   UNL     1      -3.148  -1.553 -32.034  1.00  0.00     0.012 A 
HETATM   21  C   UNL     1      -4.178  -3.179 -33.519  1.00  0.00     0.012 A 
HETATM   22  C   UNL     1      -3.037  -0.257 -31.534  1.00  0.00     0.001 A 
HETATM   23  C   UNL     1      -3.866   0.741 -32.024  1.00  0.00     0.001 A 
HETATM   24  C   UNL     1      -5.097  -3.511 -34.511  1.00  0.00     0.001 A 
HETATM   25  C   UNL     1      -5.947  -2.537 -35.021  1.00  0.00     0.008 A 
ENDBRANCH  15  16
ENDBRANCH  12  15
ENDBRANCH   1  11
BRANCH   8  26
HETATM   26  C   UNL     1     -14.402   0.474 -33.938  1.00  0.00     0.270 C 
HETATM   27  N   UNL     1     -13.968  -0.745 -33.493  1.00  0.00    -0.365 N 
HETATM   28  H   UNL     1     -13.201  -0.775 -32.831  1.00  0.00     0.159 HD
HETATM   29  H   UNL     1     -14.438  -1.582 -33.797  1.00  0.00     0.159 HD
HETATM   30  O   UNL     1     -15.342   0.565 -34.719  1.00  0.00    -0.266 OA
ENDBRANCH   8  26
TORSDOF 4
ENDMDL
MODEL 3
REMARK VINA RESULT:      -9.6      1.902      2.770
REMARK  4 active torsions:
REMARK  status: ('A' for Active; 'I' for Inactive)
REMARK    1  A    between atoms: C_5  and  C_6 
REMARK    2  A    between atoms: C_6  and  C_7 
REMARK       I    between atoms: C_7  and  N_8 
REMARK    3  A    between atoms: N_8  and  C_9 
REMARK    4  A    between atoms: C_16  and  C_17 
REMARK       I    between atoms: C_17  and  N_18 
ROOT
HETATM    1  C   UNL     1     -11.266   1.919 -34.290  1.00  0.00     0.035 A 
HETATM    2  C   UNL     1     -11.571   2.726 -33.186  1.00  0.00     0.046 A 
HETATM    3  C   UNL     1     -12.918   2.885 -32.788  1.00  0.00     0.030 A 
HETATM    4  C   UNL     1     -13.912   2.248 -33.520  1.00  0.00     0.063 A 
HETATM    5  N   UNL     1     -15.086   2.590 -32.910  1.00  0.00    -0.277 N 
HETATM    6  H   UNL     1     -16.022   2.307 -33.178  1.00  0.00     0.189 HD
HETATM    7  N   UNL     1     -14.946   3.380 -31.832  1.00  0.00    -0.168 NA
HETATM    8  C   UNL     1     -13.609   3.570 -31.743  1.00  0.00     0.156 A 
HETATM    9  C   UNL     1     -13.646   1.443 -34.628  1.00  0.00     0.034 A 
HETATM   10  C   UNL     1     -12.303   1.285 -34.990  1.00  0.00     0.032 A 
ENDROOT
BRANCH   1  11
HETATM   11  N   UNL     1      -9.953   1.675 -34.745  1.00  0.00    -0.327 N 
HETATM   12  C   UNL     1      -9.063   0.720 -34.286  1.00  0.00     0.226 C 
HETATM   13  O   UNL     1      -9.228  -0.027 -33.326  1.00  0.00    -0.273 OA
HETATM   14  H   UNL     1      -9.636   2.252 -35.513  1.00  0.00     0.169 HD
BRANCH  12  15
HETATM   15  C   UNL     1      -7.745   0.703 -35.051  1.00  0.00     0.142 C 
BRANCH  15  16
HETATM   16  C   UNL     1      -6.528   0.421 -34.190  1.00  0.00    -0.038 A 
HETATM   17  C   UNL     1      -5.886  -0.851 -34.178  1.00  0.00    -0.019 A 
HETATM   18  C   UNL     1      -4.744  -1.029 -33.356  1.00  0.00    -0.025 A 
HETATM   19  C   UNL     1      -6.322  -1.962 -34.937  1.00  0.00     0.013 A 
HETATM   20  C   UNL     1      -4.086  -2.271 -33.322  1.00  0.00     0.012 A 
HETATM   21  C   UNL     1      -4.271   0.035 -32.573  1.00  0.00     0.012 A 
HETATM   22  C   UNL     1      -4.538  -3.344 -34.087  1.00  0.00     0.001 A 
HETATM   23  C   UNL     1      -5.656  -3.190 -34.894  1.00  0.00     0.001 A 
HETATM   24  C   UNL     1      -4.912   1.271 -32.584  1.00  0.00     0.001 A 
HETATM   25  C   UNL     1      -6.032   1.463 -33.385  1.00  0.00     0.008 A 
ENDBRANCH  15  16
ENDBRANCH  12  15
ENDBRANCH   1  11
BRANCH   8  26
HETATM   26  C   UNL     1     -13.028   4.381 -30.664  1.00  0.00     0.270 C 
HETATM   27  N   UNL     1     -12.292   3.663 -29.761  1.00  0.00    -0.365 N 
HETATM   28  H   UNL     1     -12.191   2.664 -29.903  1.00  0.00     0.159 HD
HETATM   29  H   UNL     1     -11.836   4.138 -29.000  1.00  0.00     0.159 HD
HETATM   30  O   UNL     1     -13.159   5.595 -30.550  1.00  0.00    -0.266 OA
ENDBRANCH   8  26
TORSDOF 4
ENDMDL
MODEL 4
REMARK VINA RESULT:      -9.6      5.696      8.685
REMARK  4 active torsions:
REMARK  status: ('A' for Active; 'I' for Inactive)
REMARK    1  A    between atoms: C_5  and  C_6 
REMARK    2  A    between atoms: C_6  and  C_7 
REMARK       I    between atoms: C_7  and  N_8 
REMARK    3  A    between atoms: N_8  and  C_9 
REMARK    4  A    between atoms: C_16  and  C_17 
REMARK       I    between atoms: C_17  and  N_18 
ROOT
HETATM    1  C   UNL     1      -3.731   3.486 -32.510  1.00  0.00     0.035 A 
HETATM    2  C   UNL     1      -2.521   3.767 -31.862  1.00  0.00     0.046 A 
HETATM    3  C   UNL     1      -1.844   4.976 -32.140  1.00  0.00     0.030 A 
HETATM    4  C   UNL     1      -2.390   5.851 -33.070  1.00  0.00     0.063 A 
HETATM    5  N   UNL     1      -1.523   6.906 -33.128  1.00  0.00    -0.277 N 
HETATM    6  H   UNL     1      -1.602   7.733 -33.708  1.00  0.00     0.189 HD
HETATM    7  N   UNL     1      -0.467   6.805 -32.304  1.00  0.00    -0.168 NA
HETATM    8  C   UNL     1      -0.652   5.617 -31.685  1.00  0.00     0.156 A 
HETATM    9  C   UNL     1      -3.589   5.602 -33.740  1.00  0.00     0.034 A 
HETATM   10  C   UNL     1      -4.250   4.406 -33.432  1.00  0.00     0.032 A 
ENDROOT
BRANCH   1  11
HETATM   11  N   UNL     1      -4.495   2.323 -32.278  1.00  0.00    -0.327 N 
HETATM   12  C   UNL     1      -4.062   1.119 -31.748  1.00  0.00     0.226 C 
HETATM   13  O   UNL     1      -2.904   0.819 -31.474  1.00  0.00    -0.273 OA
HETATM   14  H   UNL     1      -5.479   2.386 -32.506  1.00  0.00     0.169 HD
BRANCH  12  15
HETATM   15  C   UNL     1      -5.178   0.094 -31.587  1.00  0.00     0.142 C 
BRANCH  15  16
HETATM   16  C   UNL     1      -5.373  -0.809 -32.789  1.00  0.00    -0.038 A 
HETATM   17  C   UNL     1      -4.669  -2.040 -32.936  1.00  0.00    -0.019 A 
HETATM   18  C   UNL     1      -4.920  -2.835 -34.084  1.00  0.00    -0.025 A 
HETATM   19  C   UNL     1      -3.723  -2.523 -32.003  1.00  0.00     0.013 A 
HETATM   20  C   UNL     1      -4.244  -4.055 -34.258  1.00  0.00     0.012 A 
HETATM   21  C   UNL     1      -5.842  -2.401 -35.048  1.00  0.00     0.012 A 
HETATM   22  C   UNL     1      -3.320  -4.505 -33.317  1.00  0.00     0.001 A 
HETATM   23  C   UNL     1      -3.059  -3.739 -32.190  1.00  0.00     0.001 A 
HETATM   24  C   UNL     1      -6.516  -1.193 -34.901  1.00  0.00     0.001 A 
HETATM   25  C   UNL     1      -6.284  -0.402 -33.782  1.00  0.00     0.008 A 
ENDBRANCH  15  16
ENDBRANCH  12  15
ENDBRANCH   1  11
BRANCH   8  26
HETATM   26  C   UNL     1       0.296   5.133 -30.671  1.00  0.00     0.270 C 
HETATM   27  N   UNL     1      -0.119   5.327 -29.381  1.00  0.00    -0.365 N 
HETATM   28  H   UNL     1      -1.022   5.759 -29.223  1.00  0.00     0.159 HD
HETATM   29  H   UNL     1       0.455   5.006 -28.619  1.00  0.00     0.159 HD
HETATM   30  O   UNL     1       1.369   4.593 -30.915  1.00  0.00    -0.266 OA
ENDBRANCH   8  26
TORSDOF 4
ENDMDL
MODEL 5
REMARK VINA RESULT:      -9.5      5.547      8.713
REMARK  4 active torsions:
REMARK  status: ('A' for Active; 'I' for Inactive)
REMARK    1  A    between atoms: C_5  and  C_6 
REMARK    2  A    between atoms: C_6  and  C_7 
REMARK       I    between atoms: C_7  and  N_8 
REMARK    3  A    between atoms: N_8  and  C_9 
REMARK    4  A    between atoms: C_16  and  C_17 
REMARK       I    between atoms: C_17  and  N_18 
ROOT
HETATM    1  C   UNL     1      -3.847   3.443 -32.443  1.00  0.00     0.035 A 
HETATM    2  C   UNL     1      -2.620   3.959 -32.003  1.00  0.00     0.046 A 
HETATM    3  C   UNL     1      -2.137   5.170 -32.544  1.00  0.00     0.030 A 
HETATM    4  C   UNL     1      -2.886   5.814 -33.521  1.00  0.00     0.063 A 
HETATM    5  N   UNL     1      -2.172   6.932 -33.848  1.00  0.00    -0.277 N 
HETATM    6  H   UNL     1      -2.417   7.638 -34.532  1.00  0.00     0.189 HD
HETATM    7  N   UNL     1      -1.030   7.086 -33.158  1.00  0.00    -0.168 NA
HETATM    8  C   UNL     1      -0.995   6.005 -32.346  1.00  0.00     0.156 A 
HETATM    9  C   UNL     1      -4.108   5.327 -33.989  1.00  0.00     0.034 A 
HETATM   10  C   UNL     1      -4.575   4.135 -33.422  1.00  0.00     0.032 A 
ENDROOT
BRANCH   1  11
HETATM   11  N   UNL     1      -4.427   2.258 -31.942  1.00  0.00    -0.327 N 
HETATM   12  C   UNL     1      -5.099   2.087 -30.745  1.00  0.00     0.226 C 
HETATM   13  O   UNL     1      -5.227   2.923 -29.856  1.00  0.00    -0.273 OA
HETATM   14  H   UNL     1      -4.361   1.445 -32.541  1.00  0.00     0.169 HD
BRANCH  12  15
HETATM   15  C   UNL     1      -5.644   0.677 -30.554  1.00  0.00     0.142 C 
BRANCH  15  16
HETATM   16  C   UNL     1      -6.581   0.217 -31.654  1.00  0.00    -0.038 A 
HETATM   17  C   UNL     1      -6.176  -0.712 -32.657  1.00  0.00    -0.019 A 
HETATM   18  C   UNL     1      -7.119  -1.103 -33.643  1.00  0.00    -0.025 A 
HETATM   19  C   UNL     1      -4.880  -1.271 -32.737  1.00  0.00     0.013 A 
HETATM   20  C   UNL     1      -6.752  -2.018 -34.645  1.00  0.00     0.012 A 
HETATM   21  C   UNL     1      -8.417  -0.574 -33.619  1.00  0.00     0.012 A 
HETATM   22  C   UNL     1      -5.466  -2.554 -34.692  1.00  0.00     0.001 A 
HETATM   23  C   UNL     1      -4.530  -2.180 -33.739  1.00  0.00     0.001 A 
HETATM   24  C   UNL     1      -8.800   0.340 -32.642  1.00  0.00     0.001 A 
HETATM   25  C   UNL     1      -7.890   0.734 -31.668  1.00  0.00     0.008 A 
ENDBRANCH  15  16
ENDBRANCH  12  15
ENDBRANCH   1  11
BRANCH   8  26
HETATM   26  C   UNL     1       0.110   5.802 -31.398  1.00  0.00     0.270 C 
HETATM   27  N   UNL     1       0.501   6.941 -30.746  1.00  0.00    -0.365 N 
HETATM   28  H   UNL     1       0.009   7.805 -30.943  1.00  0.00     0.159 HD
HETATM   29  H   UNL     1       1.236   6.895 -30.060  1.00  0.00     0.159 HD
HETATM   30  O   UNL     1       0.656   4.728 -31.176  1.00  0.00    -0.266 OA
ENDBRANCH   8  26
TORSDOF 4
ENDMDL
MODEL 6
REMARK VINA RESULT:      -9.4      5.586      8.628
REMARK  4 active torsions:
REMARK  status: ('A' for Active; 'I' for Inactive)
REMARK    1  A    between atoms: C_5  and  C_6 
REMARK    2  A    between atoms: C_6  and  C_7 
REMARK       I    between atoms: C_7  and  N_8 
REMARK    3  A    between atoms: N_8  and  C_9 
REMARK    4  A    between atoms: C_16  and  C_17 
REMARK       I    between atoms: C_17  and  N_18 
ROOT
HETATM    1  C   UNL     1      -3.680   3.694 -32.717  1.00  0.00     0.035 A 
HETATM    2  C   UNL     1      -2.475   3.890 -32.029  1.00  0.00     0.046 A 
HETATM    3  C   UNL     1      -1.777   5.109 -32.177  1.00  0.00     0.030 A 
HETATM    4  C   UNL     1      -2.297   6.081 -33.021  1.00  0.00     0.063 A 
HETATM    5  N   UNL     1      -1.414   7.122 -32.964  1.00  0.00    -0.277 N 
HETATM    6  H   UNL     1      -1.472   8.005 -33.459  1.00  0.00     0.189 HD
HETATM    7  N   UNL     1      -0.370   6.923 -32.141  1.00  0.00    -0.168 NA
HETATM    8  C   UNL     1      -0.582   5.683 -31.645  1.00  0.00     0.156 A 
HETATM    9  C   UNL     1      -3.490   5.919 -33.728  1.00  0.00     0.034 A 
HETATM   10  C   UNL     1      -4.173   4.710 -33.549  1.00  0.00     0.032 A 
ENDROOT
BRANCH   1  11
HETATM   11  N   UNL     1      -4.464   2.526 -32.611  1.00  0.00    -0.327 N 
HETATM   12  C   UNL     1      -5.421   2.233 -31.655  1.00  0.00     0.226 C 
HETATM   13  O   UNL     1      -5.689   2.906 -30.664  1.00  0.00    -0.273 OA
HETATM   14  H   UNL     1      -4.325   1.832 -33.334  1.00  0.00     0.169 HD
BRANCH  12  15
HETATM   15  C   UNL     1      -6.115   0.896 -31.883  1.00  0.00     0.142 C 
BRANCH  15  16
HETATM   16  C   UNL     1      -5.169  -0.258 -32.155  1.00  0.00    -0.038 A 
HETATM   17  C   UNL     1      -5.452  -1.258 -33.131  1.00  0.00    -0.019 A 
HETATM   18  C   UNL     1      -4.508  -2.296 -33.335  1.00  0.00    -0.025 A 
HETATM   19  C   UNL     1      -6.629  -1.283 -33.914  1.00  0.00     0.013 A 
HETATM   20  C   UNL     1      -4.756  -3.296 -34.291  1.00  0.00     0.012 A 
HETATM   21  C   UNL     1      -3.327  -2.328 -32.580  1.00  0.00     0.012 A 
HETATM   22  C   UNL     1      -5.924  -3.290 -35.051  1.00  0.00     0.001 A 
HETATM   23  C   UNL     1      -6.861  -2.284 -34.862  1.00  0.00     0.001 A 
HETATM   24  C   UNL     1      -3.064  -1.353 -31.621  1.00  0.00     0.001 A 
HETATM   25  C   UNL     1      -3.977  -0.327 -31.409  1.00  0.00     0.008 A 
ENDBRANCH  15  16
ENDBRANCH  12  15
ENDBRANCH   1  11
BRANCH   8  26
HETATM   26  C   UNL     1       0.346   5.085 -30.674  1.00  0.00     0.270 C 
HETATM   27  N   UNL     1      -0.064   5.195 -29.372  1.00  0.00    -0.365 N 
HETATM   28  H   UNL     1      -0.950   5.648 -29.179  1.00  0.00     0.159 HD
HETATM   29  H   UNL     1       0.496   4.794 -28.638  1.00  0.00     0.159 HD
HETATM   30  O   UNL     1       1.396   4.523 -30.961  1.00  0.00    -0.266 OA
ENDBRANCH   8  26
TORSDOF 4
ENDMDL
MODEL 7
REMARK VINA RESULT:      -9.3      1.930      3.552
REMARK  4 active torsions:
REMARK  status: ('A' for Active; 'I' for Inactive)
REMARK    1  A    between atoms: C_5  and  C_6 
REMARK    2  A    between atoms: C_6  and  C_7 
REMARK       I    between atoms: C_7  and  N_8 
REMARK    3  A    between atoms: N_8  and  C_9 
REMARK    4  A    between atoms: C_16  and  C_17 
REMARK       I    between atoms: C_17  and  N_18 
ROOT
HETATM    1  C   UNL     1     -11.345   1.837 -34.232  1.00  0.00     0.035 A 
HETATM    2  C   UNL     1     -11.753   2.680 -33.190  1.00  0.00     0.046 A 
HETATM    3  C   UNL     1     -13.117   2.728 -32.824  1.00  0.00     0.030 A 
HETATM    4  C   UNL     1     -14.027   1.947 -33.525  1.00  0.00     0.063 A 
HETATM    5  N   UNL     1     -15.242   2.207 -32.957  1.00  0.00    -0.277 N 
HETATM    6  H   UNL     1     -16.138   1.814 -33.219  1.00  0.00     0.189 HD
HETATM    7  N   UNL     1     -15.204   3.077 -31.934  1.00  0.00    -0.168 NA
HETATM    8  C   UNL     1     -13.896   3.406 -31.838  1.00  0.00     0.156 A 
HETATM    9  C   UNL     1     -13.658   1.101 -34.573  1.00  0.00     0.034 A 
HETATM   10  C   UNL     1     -12.298   1.058 -34.903  1.00  0.00     0.032 A 
ENDROOT
BRANCH   1  11
HETATM   11  N   UNL     1     -10.004   1.698 -34.651  1.00  0.00    -0.327 N 
HETATM   12  C   UNL     1      -9.044   0.843 -34.139  1.00  0.00     0.226 C 
HETATM   13  O   UNL     1      -9.164   0.117 -33.158  1.00  0.00    -0.273 OA
HETATM   14  H   UNL     1      -9.722   2.276 -35.432  1.00  0.00     0.169 HD
BRANCH  12  15
HETATM   15  C   UNL     1      -7.712   0.921 -34.875  1.00  0.00     0.142 C 
BRANCH  15  16
HETATM   16  C   UNL     1      -6.720  -0.159 -34.484  1.00  0.00    -0.038 A 
HETATM   17  C   UNL     1      -5.635   0.094 -33.595  1.00  0.00    -0.019 A 
HETATM   18  C   UNL     1      -4.761  -0.974 -33.268  1.00  0.00    -0.025 A 
HETATM   19  C   UNL     1      -5.368   1.356 -33.015  1.00  0.00     0.013 A 
HETATM   20  C   UNL     1      -3.682  -0.758 -32.393  1.00  0.00     0.012 A 
HETATM   21  C   UNL     1      -4.970  -2.245 -33.821  1.00  0.00     0.012 A 
HETATM   22  C   UNL     1      -3.449   0.497 -31.834  1.00  0.00     0.001 A 
HETATM   23  C   UNL     1      -4.292   1.554 -32.145  1.00  0.00     0.001 A 
HETATM   24  C   UNL     1      -6.027  -2.479 -34.697  1.00  0.00     0.001 A 
HETATM   25  C   UNL     1      -6.894  -1.445 -35.027  1.00  0.00     0.008 A 
ENDBRANCH  15  16
ENDBRANCH  12  15
ENDBRANCH   1  11
BRANCH   8  26
HETATM   26  C   UNL     1     -13.422   4.342 -30.808  1.00  0.00     0.270 C 
HETATM   27  N   UNL     1     -12.592   3.775 -29.879  1.00  0.00    -0.365 N 
HETATM   28  H   UNL     1     -12.359   2.793 -29.973  1.00  0.00     0.159 HD
HETATM   29  H   UNL     1     -12.199   4.345 -29.148  1.00  0.00     0.159 HD
HETATM   30  O   UNL     1     -13.713   5.532 -30.753  1.00  0.00    -0.266 OA
ENDBRANCH   8  26
TORSDOF 4
ENDMDL
MODEL 8
REMARK VINA RESULT:      -9.2      5.817      8.336
REMARK  4 active torsions:
REMARK  status: ('A' for Active; 'I' for Inactive)
REMARK    1  A    between atoms: C_5  and  C_6 
REMARK    2  A    between atoms: C_6  and  C_7 
REMARK       I    between atoms: C_7  and  N_8 
REMARK    3  A    between atoms: N_8  and  C_9 
REMARK    4  A    between atoms: C_16  and  C_17 
REMARK       I    between atoms: C_17  and  N_18 
ROOT
HETATM    1  C   UNL     1      -3.586   4.173 -32.512  1.00  0.00     0.035 A 
HETATM    2  C   UNL     1      -3.726   5.429 -31.908  1.00  0.00     0.046 A 
HETATM    3  C   UNL     1      -2.883   6.492 -32.302  1.00  0.00     0.030 A 
HETATM    4  C   UNL     1      -1.917   6.256 -33.273  1.00  0.00     0.063 A 
HETATM    5  N   UNL     1      -1.266   7.446 -33.435  1.00  0.00    -0.277 N 
HETATM    6  H   UNL     1      -0.496   7.644 -34.063  1.00  0.00     0.189 HD
HETATM    7  N   UNL     1      -1.734   8.446 -32.668  1.00  0.00    -0.168 NA
HETATM    8  C   UNL     1      -2.735   7.871 -31.964  1.00  0.00     0.156 A 
HETATM    9  C   UNL     1      -1.744   5.016 -33.891  1.00  0.00     0.034 A 
HETATM   10  C   UNL     1      -2.605   3.985 -33.496  1.00  0.00     0.032 A 
ENDROOT
BRANCH   1  11
HETATM   11  N   UNL     1      -4.399   3.060 -32.207  1.00  0.00    -0.327 N 
HETATM   12  C   UNL     1      -4.021   1.883 -31.584  1.00  0.00     0.226 C 
HETATM   13  O   UNL     1      -2.880   1.559 -31.270  1.00  0.00    -0.273 OA
HETATM   14  H   UNL     1      -5.377   3.144 -32.454  1.00  0.00     0.169 HD
BRANCH  12  15
HETATM   15  C   UNL     1      -5.179   0.917 -31.364  1.00  0.00     0.142 C 
BRANCH  15  16
HETATM   16  C   UNL     1      -5.487   0.033 -32.558  1.00  0.00    -0.038 A 
HETATM   17  C   UNL     1      -4.831  -1.215 -32.767  1.00  0.00    -0.019 A 
HETATM   18  C   UNL     1      -5.187  -1.990 -33.901  1.00  0.00    -0.025 A 
HETATM   19  C   UNL     1      -3.833  -1.735 -31.911  1.00  0.00     0.013 A 
HETATM   20  C   UNL     1      -4.561  -3.226 -34.135  1.00  0.00     0.012 A 
HETATM   21  C   UNL     1      -6.164  -1.521 -34.791  1.00  0.00     0.012 A 
HETATM   22  C   UNL     1      -3.584  -3.712 -33.268  1.00  0.00     0.001 A 
HETATM   23  C   UNL     1      -3.220  -2.967 -32.156  1.00  0.00     0.001 A 
HETATM   24  C   UNL     1      -6.791  -0.295 -34.584  1.00  0.00     0.001 A 
HETATM   25  C   UNL     1      -6.455   0.476 -33.477  1.00  0.00     0.008 A 
ENDBRANCH  15  16
ENDBRANCH  12  15
ENDBRANCH   1  11
BRANCH   8  26
HETATM   26  C   UNL     1      -3.531   8.649 -31.002  1.00  0.00     0.270 C 
HETATM   27  N   UNL     1      -3.342   8.282 -29.697  1.00  0.00    -0.365 N 
HETATM   28  H   UNL     1      -2.682   7.541 -29.493  1.00  0.00     0.159 HD
HETATM   29  H   UNL     1      -3.827   8.775 -28.966  1.00  0.00     0.159 HD
HETATM   30  O   UNL     1      -4.299   9.557 -31.300  1.00  0.00    -0.266 OA
ENDBRANCH   8  26
TORSDOF 4
ENDMDL
MODEL 9
REMARK VINA RESULT:      -9.2      5.826      9.211
REMARK  4 active torsions:
REMARK  status: ('A' for Active; 'I' for Inactive)
REMARK    1  A    between atoms: C_5  and  C_6 
REMARK    2  A    between atoms: C_6  and  C_7 
REMARK       I    between atoms: C_7  and  N_8 
REMARK    3  A    between atoms: N_8  and  C_9 
REMARK    4  A    between atoms: C_16  and  C_17 
REMARK       I    between atoms: C_17  and  N_18 
ROOT
HETATM    1  C   UNL     1      -3.014   3.356 -32.164  1.00  0.00     0.035 A 
HETATM    2  C   UNL     1      -2.354   4.085 -31.166  1.00  0.00     0.046 A 
HETATM    3  C   UNL     1      -1.556   5.195 -31.524  1.00  0.00     0.030 A 
HETATM    4  C   UNL     1      -1.431   5.525 -32.867  1.00  0.00     0.063 A 
HETATM    5  N   UNL     1      -0.608   6.615 -32.898  1.00  0.00    -0.277 N 
HETATM    6  H   UNL     1      -0.295   7.124 -33.717  1.00  0.00     0.189 HD
HETATM    7  N   UNL     1      -0.199   7.039 -31.691  1.00  0.00    -0.168 NA
HETATM    8  C   UNL     1      -0.779   6.172 -30.830  1.00  0.00     0.156 A 
HETATM    9  C   UNL     1      -2.068   4.817 -33.889  1.00  0.00     0.034 A 
HETATM   10  C   UNL     1      -2.868   3.734 -33.506  1.00  0.00     0.032 A 
ENDROOT
BRANCH   1  11
HETATM   11  N   UNL     1      -3.855   2.253 -31.904  1.00  0.00    -0.327 N 
HETATM   12  C   UNL     1      -3.516   1.056 -31.296  1.00  0.00     0.226 C 
HETATM   13  O   UNL     1      -2.390   0.704 -30.959  1.00  0.00    -0.273 OA
HETATM   14  H   UNL     1      -4.824   2.361 -32.176  1.00  0.00     0.169 HD
BRANCH  12  15
HETATM   15  C   UNL     1      -4.697   0.108 -31.129  1.00  0.00     0.142 C 
BRANCH  15  16
HETATM   16  C   UNL     1      -5.118  -0.595 -32.406  1.00  0.00    -0.038 A 
HETATM   17  C   UNL     1      -6.255  -0.182 -33.159  1.00  0.00    -0.019 A 
HETATM   18  C   UNL     1      -6.573  -0.883 -34.351  1.00  0.00    -0.025 A 
HETATM   19  C   UNL     1      -7.100   0.891 -32.789  1.00  0.00     0.013 A 
HETATM   20  C   UNL     1      -7.687  -0.500 -35.118  1.00  0.00     0.012 A 
HETATM   21  C   UNL     1      -5.777  -1.961 -34.762  1.00  0.00     0.012 A 
HETATM   22  C   UNL     1      -8.496   0.565 -34.727  1.00  0.00     0.001 A 
HETATM   23  C   UNL     1      -8.203   1.260 -33.563  1.00  0.00     0.001 A 
HETATM   24  C   UNL     1      -4.674  -2.364 -34.014  1.00  0.00     0.001 A 
HETATM   25  C   UNL     1      -4.348  -1.687 -32.845  1.00  0.00     0.008 A 
ENDBRANCH  15  16
ENDBRANCH  12  15
ENDBRANCH   1  11
BRANCH   8  26
HETATM   26  C   UNL     1      -0.591   6.303 -29.378  1.00  0.00     0.270 C 
HETATM   27  N   UNL     1       0.199   5.330 -28.828  1.00  0.00    -0.365 N 
HETATM   28  H   UNL     1       0.596   4.625 -29.439  1.00  0.00     0.159 HD
HETATM   29  H   UNL     1       0.403   5.351 -27.843  1.00  0.00     0.159 HD
HETATM   30  O   UNL     1      -1.073   7.192 -28.686  1.00  0.00    -0.266 OA
ENDBRANCH   8  26
TORSDOF 4
ENDMDL
MODEL 10
REMARK VINA RESULT:      -9.0      2.626      8.775
REMARK  4 active torsions:
REMARK  status: ('A' for Active; 'I' for Inactive)
REMARK    1  A    between atoms: C_5  and  C_6 
REMARK    2  A    between atoms: C_6  and  C_7 
REMARK       I    between atoms: C_7  and  N_8 
REMARK    3  A    between atoms: N_8  and  C_9 
REMARK    4  A    between atoms: C_16  and  C_17 
REMARK       I    between atoms: C_17  and  N_18 
ROOT
HETATM    1  C   UNL     1      -7.500   0.175 -34.500  1.00  0.00     0.035 A 
HETATM    2  C   UNL     1      -7.310  -1.193 -34.737  1.00  0.00     0.046 A 
HETATM    3  C   UNL     1      -6.104  -1.811 -34.338  1.00  0.00     0.030 A 
HETATM    4  C   UNL     1      -5.123  -1.036 -33.733  1.00  0.00     0.063 A 
HETATM    5  N   UNL     1      -4.092  -1.895 -33.472  1.00  0.00    -0.277 N 
HETATM    6  H   UNL     1      -3.204  -1.673 -33.036  1.00  0.00     0.189 HD
HETATM    7  N   UNL     1      -4.320  -3.167 -33.837  1.00  0.00    -0.168 NA
HETATM    8  C   UNL     1      -5.562  -3.131 -34.373  1.00  0.00     0.156 A 
HETATM    9  C   UNL     1      -5.273   0.330 -33.487  1.00  0.00     0.034 A 
HETATM   10  C   UNL     1      -6.485   0.914 -33.875  1.00  0.00     0.032 A 
ENDROOT
BRANCH   1  11
HETATM   11  N   UNL     1      -8.679   0.874 -34.835  1.00  0.00    -0.327 N 
HETATM   12  C   UNL     1      -9.810   1.045 -34.056  1.00  0.00     0.226 C 
HETATM   13  O   UNL     1     -10.026   0.531 -32.962  1.00  0.00    -0.273 OA
HETATM   14  H   UNL     1      -8.686   1.322 -35.742  1.00  0.00     0.169 HD
BRANCH  12  15
HETATM   15  C   UNL     1     -10.875   1.910 -34.718  1.00  0.00     0.142 C 
BRANCH  15  16
HETATM   16  C   UNL     1     -12.262   1.754 -34.124  1.00  0.00    -0.038 A 
HETATM   17  C   UNL     1     -12.741   2.602 -33.083  1.00  0.00    -0.019 A 
HETATM   18  C   UNL     1     -14.057   2.400 -32.592  1.00  0.00    -0.025 A 
HETATM   19  C   UNL     1     -11.980   3.639 -32.498  1.00  0.00     0.013 A 
HETATM   20  C   UNL     1     -14.560   3.219 -31.567  1.00  0.00     0.012 A 
HETATM   21  C   UNL     1     -14.856   1.379 -33.128  1.00  0.00     0.012 A 
HETATM   22  C   UNL     1     -13.785   4.237 -31.015  1.00  0.00     0.001 A 
HETATM   23  C   UNL     1     -12.494   4.447 -31.480  1.00  0.00     0.001 A 
HETATM   24  C   UNL     1     -14.375   0.550 -34.138  1.00  0.00     0.001 A 
HETATM   25  C   UNL     1     -13.089   0.734 -34.631  1.00  0.00     0.008 A 
ENDBRANCH  15  16
ENDBRANCH  12  15
ENDBRANCH   1  11
BRANCH   8  26
HETATM   26  C   UNL     1      -6.202  -4.351 -34.887  1.00  0.00     0.270 C 
HETATM   27  N   UNL     1      -7.486  -4.533 -34.450  1.00  0.00    -0.365 N 
HETATM   28  H   UNL     1      -7.895  -3.835 -33.840  1.00  0.00     0.159 HD
HETATM   29  H   UNL     1      -8.013  -5.330 -34.770  1.00  0.00     0.159 HD
HETATM   30  O   UNL     1      -5.672  -5.154 -35.647  1.00  0.00    -0.266 OA
ENDBRANCH   8  26
TORSDOF 4
ENDMDL
