MODEL 1
REMARK VINA RESULT:      -9.8      0.000      0.000
REMARK  9 active torsions:
REMARK  status: ('A' for Active; 'I' for Inactive)
REMARK    1  A    between atoms: C_2  and  C_3 
REMARK    2  A    between atoms: C_3  and  O_4 
REMARK    3  A    between atoms: O_4  and  C_5 
REMARK    4  A    between atoms: C_6  and  C_7 
REMARK    5  A    between atoms: C_7  and  N_8 
REMARK    6  A    between atoms: C_17  and  C_18 
REMARK    7  A    between atoms: C_18  and  N_19 
REMARK    8  A    between atoms: C_23  and  O_24 
REMARK    9  A    between atoms: C_23  and  C_25 
ROOT
HETATM    1  N   UNL     1      -7.121  -0.426 -33.089  1.00  0.00    -0.061 N 
HETATM    2  H   UNL     1      -7.129  -1.278 -32.517  1.00  0.00     0.280 HD
HETATM    3  C   UNL     1      -6.584   0.647 -32.171  1.00  0.00     0.276 C 
HETATM    4  C   UNL     1      -6.334   1.988 -32.803  1.00  0.00     0.002 A 
HETATM    5  C   UNL     1      -7.400   2.723 -33.323  1.00  0.00     0.076 A 
HETATM    6  O   UNL     1      -8.675   2.233 -33.287  1.00  0.00    -0.349 OA
HETATM    7  C   UNL     1      -8.835   1.124 -34.184  1.00  0.00     0.203 C 
HETATM    8  C   UNL     1      -8.578  -0.209 -33.471  1.00  0.00     0.262 C 
HETATM    9  C   UNL     1      -5.044   2.547 -32.859  1.00  0.00     0.020 A 
HETATM   10  C   UNL     1      -4.823   3.815 -33.431  1.00  0.00    -0.032 A 
HETATM   11  C   UNL     1      -5.926   4.541 -33.906  1.00  0.00     0.011 A 
HETATM   12  C   UNL     1      -7.209   4.000 -33.841  1.00  0.00     0.038 A 
ENDROOT
BRANCH  10  13
HETATM   13  C   UNL     1      -3.430   4.376 -33.579  1.00  0.00     0.273 C 
BRANCH  13  14
HETATM   14  N   UNL     1      -3.306   5.858 -33.291  1.00  0.00    -0.067 N 
HETATM   15  H   UNL     1      -3.843   6.348 -34.021  1.00  0.00     0.280 HD
HETATM   16  C   UNL     1      -3.907   6.235 -31.959  1.00  0.00     0.238 C 
HETATM   17  C   UNL     1      -3.708   7.718 -31.678  1.00  0.00     0.071 C 
HETATM   18  C   UNL     1      -2.228   8.145 -31.737  1.00  0.00     0.089 C 
HETATM   19  C   UNL     1      -1.739   7.784 -33.153  1.00  0.00     0.071 C 
HETATM   20  C   UNL     1      -1.863   6.298 -33.429  1.00  0.00     0.238 C 
BRANCH  18  21
HETATM   21  O   UNL     1      -2.220   9.570 -31.657  1.00  0.00    -0.385 OA
HETATM   22  H   UNL     1      -3.132   9.916 -31.632  1.00  0.00     0.211 HD
ENDBRANCH  18  21
BRANCH  18  23
HETATM   23  C   UNL     1      -1.335   7.595 -30.629  1.00  0.00    -0.006 A 
HETATM   24  C   UNL     1      -1.697   7.629 -29.282  1.00  0.00     0.126 A 
HETATM   25  N   UNL     1      -0.976   7.092 -28.274  1.00  0.00    -0.272 NA
HETATM   26  C   UNL     1       0.224   6.564 -28.586  1.00  0.00     0.116 A 
HETATM   27  C   UNL     1       0.721   6.534 -29.873  1.00  0.00     0.020 A 
HETATM   28  C   UNL     1      -0.066   7.058 -30.899  1.00  0.00     0.013 A 
ENDBRANCH  18  23
ENDBRANCH  13  14
ENDBRANCH  10  13
BRANCH   1  29
HETATM   29  C   UNL     1      -6.234  -0.766 -34.278  1.00  0.00     0.276 C 
BRANCH  29  30
HETATM   30  C   UNL     1      -5.902  -2.232 -34.416  1.00  0.00     0.001 A 
HETATM   31  C   UNL     1      -4.657  -2.739 -33.988  1.00  0.00     0.077 A 
HETATM   32  C   UNL     1      -4.384  -4.103 -34.120  1.00  0.00     0.037 A 
HETATM   33  C   UNL     1      -5.332  -4.964 -34.675  1.00  0.00     0.003 A 
HETATM   34  C   UNL     1      -6.553  -4.469 -35.120  1.00  0.00     0.001 A 
HETATM   35  C   UNL     1      -6.835  -3.109 -35.003  1.00  0.00     0.012 A 
BRANCH  31  36
HETATM   36  O   UNL     1      -3.791  -1.817 -33.464  1.00  0.00    -0.347 OA
BRANCH  36  37
HETATM   37  C   UNL     1      -3.362  -1.928 -32.105  1.00  0.00     0.202 C 
BRANCH  37  38
HETATM   38  C   UNL     1      -2.549  -0.745 -31.686  1.00  0.00    -0.011 C 
HETATM   39  C   UNL     1      -3.036   0.312 -31.023  1.00  0.00     0.009 C 
ENDBRANCH  37  38
ENDBRANCH  36  37
ENDBRANCH  31  36
ENDBRANCH  29  30
ENDBRANCH   1  29
TORSDOF 9
ENDMDL
MODEL 2
REMARK VINA RESULT:      -9.7      1.658      2.218
REMARK  9 active torsions:
REMARK  status: ('A' for Active; 'I' for Inactive)
REMARK    1  A    between atoms: C_2  and  C_3 
REMARK    2  A    between atoms: C_3  and  O_4 
REMARK    3  A    between atoms: O_4  and  C_5 
REMARK    4  A    between atoms: C_6  and  C_7 
REMARK    5  A    between atoms: C_7  and  N_8 
REMARK    6  A    between atoms: C_17  and  C_18 
REMARK    7  A    between atoms: C_18  and  N_19 
REMARK    8  A    between atoms: C_23  and  O_24 
REMARK    9  A    between atoms: C_23  and  C_25 
ROOT
HETATM    1  N   UNL     1      -7.763  -0.179 -32.639  1.00  0.00    -0.061 N 
HETATM    2  H   UNL     1      -7.492  -1.014 -32.108  1.00  0.00     0.280 HD
HETATM    3  C   UNL     1      -6.990   0.951 -31.997  1.00  0.00     0.276 C 
HETATM    4  C   UNL     1      -7.096   2.287 -32.677  1.00  0.00     0.002 A 
HETATM    5  C   UNL     1      -8.327   2.939 -32.746  1.00  0.00     0.076 A 
HETATM    6  O   UNL     1      -9.454   2.369 -32.222  1.00  0.00    -0.349 OA
HETATM    7  C   UNL     1      -9.868   1.229 -32.989  1.00  0.00     0.203 C 
HETATM    8  C   UNL     1      -9.266  -0.065 -32.430  1.00  0.00     0.262 C 
HETATM    9  C   UNL     1      -5.967   2.926 -33.225  1.00  0.00     0.020 A 
HETATM   10  C   UNL     1      -6.071   4.191 -33.837  1.00  0.00    -0.032 A 
HETATM   11  C   UNL     1      -7.319   4.832 -33.850  1.00  0.00     0.011 A 
HETATM   12  C   UNL     1      -8.439   4.212 -33.297  1.00  0.00     0.038 A 
ENDROOT
BRANCH  10  13
HETATM   13  C   UNL     1      -4.884   4.835 -34.510  1.00  0.00     0.273 C 
BRANCH  13  14
HETATM   14  N   UNL     1      -3.554   4.586 -33.829  1.00  0.00    -0.067 N 
HETATM   15  H   UNL     1      -3.272   3.625 -34.070  1.00  0.00     0.280 HD
HETATM   16  C   UNL     1      -2.472   5.512 -34.331  1.00  0.00     0.238 C 
HETATM   17  C   UNL     1      -1.169   5.275 -33.581  1.00  0.00     0.071 C 
HETATM   18  C   UNL     1      -1.324   5.412 -32.053  1.00  0.00     0.089 C 
HETATM   19  C   UNL     1      -2.390   4.378 -31.641  1.00  0.00     0.071 C 
HETATM   20  C   UNL     1      -3.719   4.638 -32.325  1.00  0.00     0.238 C 
BRANCH  18  21
HETATM   21  O   UNL     1      -0.091   4.969 -31.485  1.00  0.00    -0.385 OA
HETATM   22  H   UNL     1      -0.135   4.017 -31.276  1.00  0.00     0.211 HD
ENDBRANCH  18  21
BRANCH  18  23
HETATM   23  C   UNL     1      -1.613   6.818 -31.540  1.00  0.00    -0.006 A 
HETATM   24  C   UNL     1      -1.726   7.922 -32.386  1.00  0.00     0.126 A 
HETATM   25  N   UNL     1      -2.051   9.171 -31.988  1.00  0.00    -0.272 NA
HETATM   26  C   UNL     1      -2.189   9.382 -30.664  1.00  0.00     0.116 A 
HETATM   27  C   UNL     1      -2.034   8.384 -29.724  1.00  0.00     0.020 A 
HETATM   28  C   UNL     1      -1.740   7.094 -30.168  1.00  0.00     0.013 A 
ENDBRANCH  18  23
ENDBRANCH  13  14
ENDBRANCH  10  13
BRANCH   1  29
HETATM   29  C   UNL     1      -7.379  -0.492 -34.077  1.00  0.00     0.276 C 
BRANCH  29  30
HETATM   30  C   UNL     1      -6.559  -1.748 -34.250  1.00  0.00     0.001 A 
HETATM   31  C   UNL     1      -5.160  -1.734 -34.064  1.00  0.00     0.077 A 
HETATM   32  C   UNL     1      -4.431  -2.915 -34.221  1.00  0.00     0.037 A 
HETATM   33  C   UNL     1      -5.076  -4.105 -34.563  1.00  0.00     0.003 A 
HETATM   34  C   UNL     1      -6.451  -4.122 -34.770  1.00  0.00     0.001 A 
HETATM   35  C   UNL     1      -7.189  -2.950 -34.626  1.00  0.00     0.012 A 
BRANCH  31  36
HETATM   36  O   UNL     1      -4.619  -0.520 -33.737  1.00  0.00    -0.347 OA
BRANCH  36  37
HETATM   37  C   UNL     1      -3.353  -0.454 -33.076  1.00  0.00     0.202 C 
BRANCH  37  38
HETATM   38  C   UNL     1      -3.512  -0.335 -31.594  1.00  0.00    -0.011 C 
HETATM   39  C   UNL     1      -3.443   0.818 -30.916  1.00  0.00     0.009 C 
ENDBRANCH  37  38
ENDBRANCH  36  37
ENDBRANCH  31  36
ENDBRANCH  29  30
ENDBRANCH   1  29
TORSDOF 9
ENDMDL
MODEL 3
REMARK VINA RESULT:      -9.3      1.764      3.273
REMARK  9 active torsions:
REMARK  status: ('A' for Active; 'I' for Inactive)
REMARK    1  A    between atoms: C_2  and  C_3 
REMARK    2  A    between atoms: C_3  and  O_4 
REMARK    3  A    between atoms: O_4  and  C_5 
REMARK    4  A    between atoms: C_6  and  C_7 
REMARK    5  A    between atoms: C_7  and  N_8 
REMARK    6  A    between atoms: C_17  and  C_18 
REMARK    7  A    between atoms: C_18  and  N_19 
REMARK    8  A    between atoms: C_23  and  O_24 
REMARK    9  A    between atoms: C_23  and  C_25 
ROOT
HETATM    1  N   UNL     1      -7.867   0.725 -32.958  1.00  0.00    -0.061 N 
HETATM    2  H   UNL     1      -7.848  -0.274 -32.722  1.00  0.00     0.280 HD
HETATM    3  C   UNL     1      -8.084   1.427 -31.637  1.00  0.00     0.276 C 
HETATM    4  C   UNL     1      -8.015   2.928 -31.673  1.00  0.00     0.002 A 
HETATM    5  C   UNL     1      -8.952   3.652 -32.410  1.00  0.00     0.076 A 
HETATM    6  O   UNL     1      -9.928   3.015 -33.124  1.00  0.00    -0.349 OA
HETATM    7  C   UNL     1      -9.381   2.324 -34.257  1.00  0.00     0.203 C 
HETATM    8  C   UNL     1      -9.045   0.869 -33.910  1.00  0.00     0.262 C 
HETATM    9  C   UNL     1      -7.038   3.637 -30.949  1.00  0.00     0.020 A 
HETATM   10  C   UNL     1      -6.996   5.045 -30.968  1.00  0.00    -0.032 A 
HETATM   11  C   UNL     1      -7.981   5.738 -31.687  1.00  0.00     0.011 A 
HETATM   12  C   UNL     1      -8.960   5.043 -32.396  1.00  0.00     0.038 A 
ENDROOT
BRANCH  10  13
HETATM   13  C   UNL     1      -5.894   5.805 -30.272  1.00  0.00     0.273 C 
BRANCH  13  14
HETATM   14  N   UNL     1      -5.007   6.622 -31.188  1.00  0.00    -0.067 N 
HETATM   15  H   UNL     1      -5.632   7.154 -31.811  1.00  0.00     0.280 HD
HETATM   16  C   UNL     1      -4.167   7.622 -30.431  1.00  0.00     0.238 C 
HETATM   17  C   UNL     1      -3.246   8.378 -31.377  1.00  0.00     0.071 C 
HETATM   18  C   UNL     1      -2.344   7.444 -32.209  1.00  0.00     0.089 C 
HETATM   19  C   UNL     1      -3.298   6.522 -32.993  1.00  0.00     0.071 C 
HETATM   20  C   UNL     1      -4.179   5.706 -32.065  1.00  0.00     0.238 C 
BRANCH  18  21
HETATM   21  O   UNL     1      -1.696   8.271 -33.175  1.00  0.00    -0.385 OA
HETATM   22  H   UNL     1      -1.478   9.140 -32.790  1.00  0.00     0.211 HD
ENDBRANCH  18  21
BRANCH  18  23
HETATM   23  C   UNL     1      -1.275   6.687 -31.427  1.00  0.00    -0.006 A 
HETATM   24  C   UNL     1      -0.865   5.398 -31.765  1.00  0.00     0.126 A 
HETATM   25  N   UNL     1       0.126   4.716 -31.150  1.00  0.00    -0.272 NA
HETATM   26  C   UNL     1       0.697   5.292 -30.074  1.00  0.00     0.116 A 
HETATM   27  C   UNL     1       0.329   6.535 -29.603  1.00  0.00     0.020 A 
HETATM   28  C   UNL     1      -0.667   7.234 -30.284  1.00  0.00     0.013 A 
ENDBRANCH  18  23
ENDBRANCH  13  14
ENDBRANCH  10  13
BRANCH   1  29
HETATM   29  C   UNL     1      -6.524   0.992 -33.622  1.00  0.00     0.276 C 
BRANCH  29  30
HETATM   30  C   UNL     1      -5.336   0.413 -32.891  1.00  0.00     0.001 A 
HETATM   31  C   UNL     1      -5.088  -0.976 -32.892  1.00  0.00     0.077 A 
HETATM   32  C   UNL     1      -3.974  -1.479 -32.215  1.00  0.00     0.037 A 
HETATM   33  C   UNL     1      -3.109  -0.618 -31.537  1.00  0.00     0.003 A 
HETATM   34  C   UNL     1      -3.360   0.750 -31.512  1.00  0.00     0.001 A 
HETATM   35  C   UNL     1      -4.472   1.264 -32.175  1.00  0.00     0.012 A 
BRANCH  31  36
HETATM   36  O   UNL     1      -5.994  -1.738 -33.578  1.00  0.00    -0.347 OA
BRANCH  36  37
HETATM   37  C   UNL     1      -5.674  -2.232 -34.881  1.00  0.00     0.202 C 
BRANCH  37  38
HETATM   38  C   UNL     1      -5.641  -3.727 -34.910  1.00  0.00    -0.011 C 
HETATM   39  C   UNL     1      -6.705  -4.502 -35.158  1.00  0.00     0.009 C 
ENDBRANCH  37  38
ENDBRANCH  36  37
ENDBRANCH  31  36
ENDBRANCH  29  30
ENDBRANCH   1  29
TORSDOF 9
ENDMDL
MODEL 4
REMARK VINA RESULT:      -9.2      1.567      1.843
REMARK  9 active torsions:
REMARK  status: ('A' for Active; 'I' for Inactive)
REMARK    1  A    between atoms: C_2  and  C_3 
REMARK    2  A    between atoms: C_3  and  O_4 
REMARK    3  A    between atoms: O_4  and  C_5 
REMARK    4  A    between atoms: C_6  and  C_7 
REMARK    5  A    between atoms: C_7  and  N_8 
REMARK    6  A    between atoms: C_17  and  C_18 
REMARK    7  A    between atoms: C_18  and  N_19 
REMARK    8  A    between atoms: C_23  and  O_24 
REMARK    9  A    between atoms: C_23  and  C_25 
ROOT
HETATM    1  N   UNL     1      -8.160   0.037 -32.906  1.00  0.00    -0.061 N 
HETATM    2  H   UNL     1      -8.288  -0.943 -32.630  1.00  0.00     0.280 HD
HETATM    3  C   UNL     1      -8.219   0.810 -31.608  1.00  0.00     0.276 C 
HETATM    4  C   UNL     1      -7.919   2.280 -31.706  1.00  0.00     0.002 A 
HETATM    5  C   UNL     1      -8.760   3.116 -32.443  1.00  0.00     0.076 A 
HETATM    6  O   UNL     1      -9.848   2.614 -33.101  1.00  0.00    -0.349 OA
HETATM    7  C   UNL     1      -9.455   1.807 -34.221  1.00  0.00     0.203 C 
HETATM    8  C   UNL     1      -9.336   0.330 -33.827  1.00  0.00     0.262 C 
HETATM    9  C   UNL     1      -6.819   2.854 -31.041  1.00  0.00     0.020 A 
HETATM   10  C   UNL     1      -6.561   4.236 -31.117  1.00  0.00    -0.032 A 
HETATM   11  C   UNL     1      -7.453   5.049 -31.834  1.00  0.00     0.011 A 
HETATM   12  C   UNL     1      -8.553   4.490 -32.484  1.00  0.00     0.038 A 
ENDROOT
BRANCH  10  13
HETATM   13  C   UNL     1      -5.331   4.839 -30.486  1.00  0.00     0.273 C 
BRANCH  13  14
HETATM   14  N   UNL     1      -4.297   5.352 -31.468  1.00  0.00    -0.067 N 
HETATM   15  H   UNL     1      -4.745   5.354 -32.396  1.00  0.00     0.280 HD
HETATM   16  C   UNL     1      -3.875   6.769 -31.168  1.00  0.00     0.238 C 
HETATM   17  C   UNL     1      -2.793   7.226 -32.136  1.00  0.00     0.071 C 
HETATM   18  C   UNL     1      -1.565   6.293 -32.145  1.00  0.00     0.089 C 
HETATM   19  C   UNL     1      -2.095   4.899 -32.533  1.00  0.00     0.071 C 
HETATM   20  C   UNL     1      -3.126   4.394 -31.541  1.00  0.00     0.238 C 
BRANCH  18  21
HETATM   21  O   UNL     1      -0.741   6.727 -33.226  1.00  0.00    -0.385 OA
HETATM   22  H   UNL     1      -0.566   5.989 -33.839  1.00  0.00     0.211 HD
ENDBRANCH  18  21
BRANCH  18  23
HETATM   23  C   UNL     1      -0.726   6.290 -30.871  1.00  0.00    -0.006 A 
HETATM   24  C   UNL     1      -0.673   7.378 -30.000  1.00  0.00     0.126 A 
HETATM   25  N   UNL     1      -0.004   7.397 -28.827  1.00  0.00    -0.272 NA
HETATM   26  C   UNL     1       0.738   6.316 -28.521  1.00  0.00     0.116 A 
HETATM   27  C   UNL     1       0.820   5.205 -29.336  1.00  0.00     0.020 A 
HETATM   28  C   UNL     1       0.084   5.197 -30.521  1.00  0.00     0.013 A 
ENDBRANCH  18  23
ENDBRANCH  13  14
ENDBRANCH  10  13
BRANCH   1  29
HETATM   29  C   UNL     1      -6.817   0.068 -33.619  1.00  0.00     0.276 C 
BRANCH  29  30
HETATM   30  C   UNL     1      -6.256  -1.291 -33.964  1.00  0.00     0.001 A 
HETATM   31  C   UNL     1      -4.874  -1.554 -33.858  1.00  0.00     0.077 A 
HETATM   32  C   UNL     1      -4.387  -2.825 -34.174  1.00  0.00     0.037 A 
HETATM   33  C   UNL     1      -5.258  -3.832 -34.596  1.00  0.00     0.003 A 
HETATM   34  C   UNL     1      -6.618  -3.573 -34.725  1.00  0.00     0.001 A 
HETATM   35  C   UNL     1      -7.116  -2.307 -34.422  1.00  0.00     0.012 A 
BRANCH  31  36
HETATM   36  O   UNL     1      -4.101  -0.504 -33.443  1.00  0.00    -0.347 OA
BRANCH  36  37
HETATM   37  C   UNL     1      -3.062  -0.714 -32.483  1.00  0.00     0.202 C 
BRANCH  37  38
HETATM   38  C   UNL     1      -3.318   0.045 -31.221  1.00  0.00    -0.011 C 
HETATM   39  C   UNL     1      -4.525   0.193 -30.658  1.00  0.00     0.009 C 
ENDBRANCH  37  38
ENDBRANCH  36  37
ENDBRANCH  31  36
ENDBRANCH  29  30
ENDBRANCH   1  29
TORSDOF 9
ENDMDL
MODEL 5
REMARK VINA RESULT:      -9.0      2.157      5.285
REMARK  9 active torsions:
REMARK  status: ('A' for Active; 'I' for Inactive)
REMARK    1  A    between atoms: C_2  and  C_3 
REMARK    2  A    between atoms: C_3  and  O_4 
REMARK    3  A    between atoms: O_4  and  C_5 
REMARK    4  A    between atoms: C_6  and  C_7 
REMARK    5  A    between atoms: C_7  and  N_8 
REMARK    6  A    between atoms: C_17  and  C_18 
REMARK    7  A    between atoms: C_18  and  N_19 
REMARK    8  A    between atoms: C_23  and  O_24 
REMARK    9  A    between atoms: C_23  and  C_25 
ROOT
HETATM    1  N   UNL     1      -8.119   0.029 -33.880  1.00  0.00    -0.061 N 
HETATM    2  H   UNL     1      -8.933   0.215 -34.476  1.00  0.00     0.280 HD
HETATM    3  C   UNL     1      -7.088   1.047 -34.310  1.00  0.00     0.276 C 
HETATM    4  C   UNL     1      -5.827   1.089 -33.493  1.00  0.00     0.002 A 
HETATM    5  C   UNL     1      -4.976  -0.016 -33.465  1.00  0.00     0.076 A 
HETATM    6  O   UNL     1      -5.282  -1.155 -34.156  1.00  0.00    -0.349 OA
HETATM    7  C   UNL     1      -6.400  -1.838 -33.569  1.00  0.00     0.203 C 
HETATM    8  C   UNL     1      -7.719  -1.401 -34.215  1.00  0.00     0.262 C 
HETATM    9  C   UNL     1      -5.456   2.239 -32.770  1.00  0.00     0.020 A 
HETATM   10  C   UNL     1      -4.259   2.279 -32.028  1.00  0.00    -0.032 A 
HETATM   11  C   UNL     1      -3.411   1.162 -32.058  1.00  0.00     0.011 A 
HETATM   12  C   UNL     1      -3.764   0.024 -32.783  1.00  0.00     0.038 A 
ENDROOT
BRANCH  10  13
HETATM   13  C   UNL     1      -3.906   3.473 -31.176  1.00  0.00     0.273 C 
BRANCH  13  14
HETATM   14  N   UNL     1      -3.485   4.705 -31.950  1.00  0.00    -0.067 N 
HETATM   15  H   UNL     1      -3.883   4.612 -32.896  1.00  0.00     0.280 HD
HETATM   16  C   UNL     1      -4.040   5.975 -31.350  1.00  0.00     0.238 C 
HETATM   17  C   UNL     1      -3.545   7.194 -32.116  1.00  0.00     0.071 C 
HETATM   18  C   UNL     1      -2.007   7.268 -32.196  1.00  0.00     0.089 C 
HETATM   19  C   UNL     1      -1.556   5.965 -32.886  1.00  0.00     0.071 C 
HETATM   20  C   UNL     1      -1.979   4.738 -32.101  1.00  0.00     0.238 C 
BRANCH  18  21
HETATM   21  O   UNL     1      -1.704   8.330 -33.100  1.00  0.00    -0.385 OA
HETATM   22  H   UNL     1      -1.348   7.975 -33.936  1.00  0.00     0.211 HD
ENDBRANCH  18  21
BRANCH  18  23
HETATM   23  C   UNL     1      -1.288   7.536 -30.878  1.00  0.00    -0.006 A 
HETATM   24  C   UNL     1      -1.810   8.372 -29.891  1.00  0.00     0.126 A 
HETATM   25  N   UNL     1      -1.247   8.584 -28.681  1.00  0.00    -0.272 NA
HETATM   26  C   UNL     1      -0.048   8.015 -28.449  1.00  0.00     0.116 A 
HETATM   27  C   UNL     1       0.601   7.224 -29.375  1.00  0.00     0.020 A 
HETATM   28  C   UNL     1      -0.024   6.988 -30.599  1.00  0.00     0.013 A 
ENDBRANCH  18  23
ENDBRANCH  13  14
ENDBRANCH  10  13
BRANCH   1  29
HETATM   29  C   UNL     1      -8.635   0.189 -32.458  1.00  0.00     0.276 C 
BRANCH  29  30
HETATM   30  C   UNL     1      -9.251   1.536 -32.161  1.00  0.00     0.001 A 
HETATM   31  C   UNL     1     -10.351   2.012 -32.905  1.00  0.00     0.077 A 
HETATM   32  C   UNL     1     -10.905   3.257 -32.599  1.00  0.00     0.037 A 
HETATM   33  C   UNL     1     -10.375   4.033 -31.566  1.00  0.00     0.003 A 
HETATM   34  C   UNL     1      -9.276   3.581 -30.844  1.00  0.00     0.001 A 
HETATM   35  C   UNL     1      -8.708   2.345 -31.144  1.00  0.00     0.012 A 
BRANCH  31  36
HETATM   36  O   UNL     1     -10.795   1.183 -33.900  1.00  0.00    -0.347 OA
BRANCH  36  37
HETATM   37  C   UNL     1     -12.096   1.374 -34.464  1.00  0.00     0.202 C 
BRANCH  37  38
HETATM   38  C   UNL     1     -13.090   0.418 -33.888  1.00  0.00    -0.011 C 
HETATM   39  C   UNL     1     -14.412   0.485 -34.093  1.00  0.00     0.009 C 
ENDBRANCH  37  38
ENDBRANCH  36  37
ENDBRANCH  31  36
ENDBRANCH  29  30
ENDBRANCH   1  29
TORSDOF 9
ENDMDL
MODEL 6
REMARK VINA RESULT:      -8.8      3.884      8.663
REMARK  9 active torsions:
REMARK  status: ('A' for Active; 'I' for Inactive)
REMARK    1  A    between atoms: C_2  and  C_3 
REMARK    2  A    between atoms: C_3  and  O_4 
REMARK    3  A    between atoms: O_4  and  C_5 
REMARK    4  A    between atoms: C_6  and  C_7 
REMARK    5  A    between atoms: C_7  and  N_8 
REMARK    6  A    between atoms: C_17  and  C_18 
REMARK    7  A    between atoms: C_18  and  N_19 
REMARK    8  A    between atoms: C_23  and  O_24 
REMARK    9  A    between atoms: C_23  and  C_25 
ROOT
HETATM    1  N   UNL     1      -5.335   2.042 -31.810  1.00  0.00    -0.061 N 
HETATM    2  H   UNL     1      -4.482   1.546 -32.092  1.00  0.00     0.280 HD
HETATM    3  C   UNL     1      -5.578   3.044 -32.916  1.00  0.00     0.276 C 
HETATM    4  C   UNL     1      -6.861   3.822 -32.825  1.00  0.00     0.002 A 
HETATM    5  C   UNL     1      -7.076   4.691 -31.754  1.00  0.00     0.076 A 
HETATM    6  O   UNL     1      -6.142   4.832 -30.766  1.00  0.00    -0.349 OA
HETATM    7  C   UNL     1      -6.054   3.649 -29.957  1.00  0.00     0.203 C 
HETATM    8  C   UNL     1      -4.976   2.695 -30.483  1.00  0.00     0.262 C 
HETATM    9  C   UNL     1      -7.854   3.725 -33.818  1.00  0.00     0.020 A 
HETATM   10  C   UNL     1      -9.042   4.477 -33.737  1.00  0.00    -0.032 A 
HETATM   11  C   UNL     1      -9.202   5.370 -32.667  1.00  0.00     0.011 A 
HETATM   12  C   UNL     1      -8.217   5.483 -31.686  1.00  0.00     0.038 A 
ENDROOT
BRANCH  10  13
HETATM   13  C   UNL     1     -10.149   4.304 -34.748  1.00  0.00     0.273 C 
BRANCH  13  14
HETATM   14  N   UNL     1     -10.772   2.924 -34.779  1.00  0.00    -0.067 N 
HETATM   15  H   UNL     1     -10.140   2.325 -35.330  1.00  0.00     0.280 HD
HETATM   16  C   UNL     1     -10.886   2.316 -33.403  1.00  0.00     0.238 C 
HETATM   17  C   UNL     1     -11.573   0.959 -33.468  1.00  0.00     0.071 C 
HETATM   18  C   UNL     1     -12.959   1.021 -34.141  1.00  0.00     0.089 C 
HETATM   19  C   UNL     1     -12.718   1.583 -35.557  1.00  0.00     0.071 C 
HETATM   20  C   UNL     1     -12.097   2.966 -35.513  1.00  0.00     0.238 C 
BRANCH  18  21
HETATM   21  O   UNL     1     -13.382  -0.332 -34.310  1.00  0.00    -0.385 OA
HETATM   22  H   UNL     1     -14.328  -0.424 -34.087  1.00  0.00     0.211 HD
ENDBRANCH  18  21
BRANCH  18  23
HETATM   23  C   UNL     1     -14.038   1.771 -33.368  1.00  0.00    -0.006 A 
HETATM   24  C   UNL     1     -15.392   1.444 -33.451  1.00  0.00     0.126 A 
HETATM   25  N   UNL     1     -16.374   2.029 -32.733  1.00  0.00    -0.272 NA
HETATM   26  C   UNL     1     -16.030   3.065 -31.944  1.00  0.00     0.116 A 
HETATM   27  C   UNL     1     -14.734   3.526 -31.831  1.00  0.00     0.020 A 
HETATM   28  C   UNL     1     -13.734   2.874 -32.552  1.00  0.00     0.013 A 
ENDBRANCH  18  23
ENDBRANCH  13  14
ENDBRANCH  10  13
BRANCH   1  29
HETATM   29  C   UNL     1      -6.390   0.953 -31.677  1.00  0.00     0.276 C 
BRANCH  29  30
HETATM   30  C   UNL     1      -6.435  -0.022 -32.829  1.00  0.00     0.001 A 
HETATM   31  C   UNL     1      -5.518  -1.092 -32.911  1.00  0.00     0.077 A 
HETATM   32  C   UNL     1      -5.592  -1.984 -33.984  1.00  0.00     0.037 A 
HETATM   33  C   UNL     1      -6.564  -1.821 -34.973  1.00  0.00     0.003 A 
HETATM   34  C   UNL     1      -7.456  -0.757 -34.911  1.00  0.00     0.001 A 
HETATM   35  C   UNL     1      -7.387   0.145 -33.852  1.00  0.00     0.012 A 
BRANCH  31  36
HETATM   36  O   UNL     1      -4.600  -1.164 -31.899  1.00  0.00    -0.347 OA
BRANCH  36  37
HETATM   37  C   UNL     1      -3.205  -1.261 -32.201  1.00  0.00     0.202 C 
BRANCH  37  38
HETATM   38  C   UNL     1      -2.624  -2.546 -31.704  1.00  0.00    -0.011 C 
HETATM   39  C   UNL     1      -3.146  -3.756 -31.944  1.00  0.00     0.009 C 
ENDBRANCH  37  38
ENDBRANCH  36  37
ENDBRANCH  31  36
ENDBRANCH  29  30
ENDBRANCH   1  29
TORSDOF 9
ENDMDL
MODEL 7
REMARK VINA RESULT:      -8.7      2.517     10.091
REMARK  9 active torsions:
REMARK  status: ('A' for Active; 'I' for Inactive)
REMARK    1  A    between atoms: C_2  and  C_3 
REMARK    2  A    between atoms: C_3  and  O_4 
REMARK    3  A    between atoms: O_4  and  C_5 
REMARK    4  A    between atoms: C_6  and  C_7 
REMARK    5  A    between atoms: C_7  and  N_8 
REMARK    6  A    between atoms: C_17  and  C_18 
REMARK    7  A    between atoms: C_18  and  N_19 
REMARK    8  A    between atoms: C_23  and  O_24 
REMARK    9  A    between atoms: C_23  and  C_25 
ROOT
HETATM    1  N   UNL     1      -1.589   7.993 -29.175  1.00  0.00    -0.061 N 
HETATM    2  H   UNL     1      -0.967   8.153 -28.375  1.00  0.00     0.280 HD
HETATM    3  C   UNL     1      -0.786   7.125 -30.116  1.00  0.00     0.276 C 
HETATM    4  C   UNL     1      -1.518   6.618 -31.327  1.00  0.00     0.002 A 
HETATM    5  C   UNL     1      -1.990   7.517 -32.284  1.00  0.00     0.076 A 
HETATM    6  O   UNL     1      -1.818   8.864 -32.127  1.00  0.00    -0.349 OA
HETATM    7  C   UNL     1      -2.630   9.375 -31.058  1.00  0.00     0.203 C 
HETATM    8  C   UNL     1      -1.860   9.383 -29.733  1.00  0.00     0.262 C 
HETATM    9  C   UNL     1      -1.715   5.242 -31.546  1.00  0.00     0.020 A 
HETATM   10  C   UNL     1      -2.379   4.775 -32.697  1.00  0.00    -0.032 A 
HETATM   11  C   UNL     1      -2.804   5.708 -33.655  1.00  0.00     0.011 A 
HETATM   12  C   UNL     1      -2.600   7.072 -33.452  1.00  0.00     0.038 A 
ENDROOT
BRANCH  10  13
HETATM   13  C   UNL     1      -2.678   3.308 -32.888  1.00  0.00     0.273 C 
BRANCH  13  14
HETATM   14  N   UNL     1      -3.687   2.731 -31.917  1.00  0.00    -0.067 N 
HETATM   15  H   UNL     1      -3.426   3.072 -30.980  1.00  0.00     0.280 HD
HETATM   16  C   UNL     1      -5.090   3.212 -32.196  1.00  0.00     0.238 C 
HETATM   17  C   UNL     1      -6.083   2.564 -31.241  1.00  0.00     0.071 C 
HETATM   18  C   UNL     1      -6.028   1.023 -31.276  1.00  0.00     0.089 C 
HETATM   19  C   UNL     1      -4.581   0.642 -30.906  1.00  0.00     0.071 C 
HETATM   20  C   UNL     1      -3.580   1.221 -31.888  1.00  0.00     0.238 C 
BRANCH  18  21
HETATM   21  O   UNL     1      -6.853   0.570 -30.202  1.00  0.00    -0.385 OA
HETATM   22  H   UNL     1      -7.297   1.324 -29.771  1.00  0.00     0.211 HD
ENDBRANCH  18  21
BRANCH  18  23
HETATM   23  C   UNL     1      -6.516   0.373 -32.566  1.00  0.00    -0.006 A 
HETATM   24  C   UNL     1      -7.461   0.969 -33.401  1.00  0.00     0.126 A 
HETATM   25  N   UNL     1      -7.870   0.467 -34.587  1.00  0.00    -0.272 NA
HETATM   26  C   UNL     1      -7.396  -0.742 -34.944  1.00  0.00     0.116 A 
HETATM   27  C   UNL     1      -6.509  -1.460 -34.168  1.00  0.00     0.020 A 
HETATM   28  C   UNL     1      -6.071  -0.898 -32.969  1.00  0.00     0.013 A 
ENDBRANCH  18  23
ENDBRANCH  13  14
ENDBRANCH  10  13
BRANCH   1  29
HETATM   29  C   UNL     1      -2.825   7.334 -28.580  1.00  0.00     0.276 C 
BRANCH  29  30
HETATM   30  C   UNL     1      -3.133   7.742 -27.160  1.00  0.00     0.001 A 
HETATM   31  C   UNL     1      -2.181   7.570 -26.132  1.00  0.00     0.077 A 
HETATM   32  C   UNL     1      -2.492   7.966 -24.829  1.00  0.00     0.037 A 
HETATM   33  C   UNL     1      -3.737   8.528 -24.539  1.00  0.00     0.003 A 
HETATM   34  C   UNL     1      -4.689   8.680 -25.541  1.00  0.00     0.001 A 
HETATM   35  C   UNL     1      -4.395   8.279 -26.843  1.00  0.00     0.012 A 
BRANCH  31  36
HETATM   36  O   UNL     1      -0.994   7.006 -26.513  1.00  0.00    -0.347 OA
BRANCH  36  37
HETATM   37  C   UNL     1       0.239   7.510 -25.992  1.00  0.00     0.202 C 
BRANCH  37  38
HETATM   38  C   UNL     1       1.297   7.572 -27.047  1.00  0.00    -0.011 C 
HETATM   39  C   UNL     1       1.656   8.689 -27.695  1.00  0.00     0.009 C 
ENDBRANCH  37  38
ENDBRANCH  36  37
ENDBRANCH  31  36
ENDBRANCH  29  30
ENDBRANCH   1  29
TORSDOF 9
ENDMDL
MODEL 8
REMARK VINA RESULT:      -8.7      2.585      9.084
REMARK  9 active torsions:
REMARK  status: ('A' for Active; 'I' for Inactive)
REMARK    1  A    between atoms: C_2  and  C_3 
REMARK    2  A    between atoms: C_3  and  O_4 
REMARK    3  A    between atoms: O_4  and  C_5 
REMARK    4  A    between atoms: C_6  and  C_7 
REMARK    5  A    between atoms: C_7  and  N_8 
REMARK    6  A    between atoms: C_17  and  C_18 
REMARK    7  A    between atoms: C_18  and  N_19 
REMARK    8  A    between atoms: C_23  and  O_24 
REMARK    9  A    between atoms: C_23  and  C_25 
ROOT
HETATM    1  N   UNL     1      -4.132   7.678 -30.196  1.00  0.00    -0.061 N 
HETATM    2  H   UNL     1      -3.516   8.242 -30.792  1.00  0.00     0.280 HD
HETATM    3  C   UNL     1      -5.095   7.019 -31.157  1.00  0.00     0.276 C 
HETATM    4  C   UNL     1      -6.037   6.013 -30.556  1.00  0.00     0.002 A 
HETATM    5  C   UNL     1      -6.983   6.418 -29.615  1.00  0.00     0.076 A 
HETATM    6  O   UNL     1      -7.056   7.722 -29.208  1.00  0.00    -0.349 OA
HETATM    7  C   UNL     1      -5.918   8.086 -28.412  1.00  0.00     0.203 C 
HETATM    8  C   UNL     1      -4.805   8.688 -29.278  1.00  0.00     0.262 C 
HETATM    9  C   UNL     1      -6.014   4.660 -30.944  1.00  0.00     0.020 A 
HETATM   10  C   UNL     1      -6.917   3.729 -30.395  1.00  0.00    -0.032 A 
HETATM   11  C   UNL     1      -7.880   4.184 -29.481  1.00  0.00     0.011 A 
HETATM   12  C   UNL     1      -7.918   5.525 -29.102  1.00  0.00     0.038 A 
ENDROOT
BRANCH  10  13
HETATM   13  C   UNL     1      -6.834   2.262 -30.735  1.00  0.00     0.273 C 
BRANCH  13  14
HETATM   14  N   UNL     1      -7.409   1.888 -32.086  1.00  0.00    -0.067 N 
HETATM   15  H   UNL     1      -8.177   2.548 -32.275  1.00  0.00     0.280 HD
HETATM   16  C   UNL     1      -6.401   2.039 -33.200  1.00  0.00     0.238 C 
HETATM   17  C   UNL     1      -6.995   1.596 -34.529  1.00  0.00     0.071 C 
HETATM   18  C   UNL     1      -7.537   0.152 -34.491  1.00  0.00     0.089 C 
HETATM   19  C   UNL     1      -8.604   0.130 -33.378  1.00  0.00     0.071 C 
HETATM   20  C   UNL     1      -8.016   0.502 -32.029  1.00  0.00     0.238 C 
BRANCH  18  21
HETATM   21  O   UNL     1      -8.233  -0.046 -35.721  1.00  0.00    -0.385 OA
HETATM   22  H   UNL     1      -9.173   0.197 -35.624  1.00  0.00     0.211 HD
ENDBRANCH  18  21
BRANCH  18  23
HETATM   23  C   UNL     1      -6.488  -0.946 -34.348  1.00  0.00    -0.006 A 
HETATM   24  C   UNL     1      -5.207  -0.705 -33.851  1.00  0.00     0.126 A 
HETATM   25  N   UNL     1      -4.270  -1.654 -33.638  1.00  0.00    -0.272 NA
HETATM   26  C   UNL     1      -4.566  -2.912 -34.020  1.00  0.00     0.116 A 
HETATM   27  C   UNL     1      -5.775  -3.261 -34.587  1.00  0.00     0.020 A 
HETATM   28  C   UNL     1      -6.740  -2.267 -34.755  1.00  0.00     0.013 A 
ENDBRANCH  18  23
ENDBRANCH  13  14
ENDBRANCH  10  13
BRANCH   1  29
HETATM   29  C   UNL     1      -3.198   6.728 -29.462  1.00  0.00     0.276 C 
BRANCH  29  30
HETATM   30  C   UNL     1      -1.828   6.590 -30.080  1.00  0.00     0.001 A 
HETATM   31  C   UNL     1      -1.542   5.550 -30.990  1.00  0.00     0.077 A 
HETATM   32  C   UNL     1      -0.267   5.456 -31.553  1.00  0.00     0.037 A 
HETATM   33  C   UNL     1       0.724   6.380 -31.219  1.00  0.00     0.003 A 
HETATM   34  C   UNL     1       0.458   7.394 -30.306  1.00  0.00     0.001 A 
HETATM   35  C   UNL     1      -0.807   7.494 -29.729  1.00  0.00     0.012 A 
BRANCH  31  36
HETATM   36  O   UNL     1      -2.576   4.691 -31.250  1.00  0.00    -0.347 OA
BRANCH  36  37
HETATM   37  C   UNL     1      -2.618   3.973 -32.486  1.00  0.00     0.202 C 
BRANCH  37  38
HETATM   38  C   UNL     1      -3.123   4.830 -33.602  1.00  0.00    -0.011 C 
HETATM   39  C   UNL     1      -2.386   5.222 -34.650  1.00  0.00     0.009 C 
ENDBRANCH  37  38
ENDBRANCH  36  37
ENDBRANCH  31  36
ENDBRANCH  29  30
ENDBRANCH   1  29
TORSDOF 9
ENDMDL
MODEL 9
REMARK VINA RESULT:      -8.6      2.252      9.184
REMARK  9 active torsions:
REMARK  status: ('A' for Active; 'I' for Inactive)
REMARK    1  A    between atoms: C_2  and  C_3 
REMARK    2  A    between atoms: C_3  and  O_4 
REMARK    3  A    between atoms: O_4  and  C_5 
REMARK    4  A    between atoms: C_6  and  C_7 
REMARK    5  A    between atoms: C_7  and  N_8 
REMARK    6  A    between atoms: C_17  and  C_18 
REMARK    7  A    between atoms: C_18  and  N_19 
REMARK    8  A    between atoms: C_23  and  O_24 
REMARK    9  A    between atoms: C_23  and  C_25 
ROOT
HETATM    1  N   UNL     1      -1.435   6.142 -31.053  1.00  0.00    -0.061 N 
HETATM    2  H   UNL     1      -0.834   5.928 -30.250  1.00  0.00     0.280 HD
HETATM    3  C   UNL     1      -2.044   4.813 -31.439  1.00  0.00     0.276 C 
HETATM    4  C   UNL     1      -3.089   4.860 -32.519  1.00  0.00     0.002 A 
HETATM    5  C   UNL     1      -2.745   5.273 -33.806  1.00  0.00     0.076 A 
HETATM    6  O   UNL     1      -1.467   5.661 -34.101  1.00  0.00    -0.349 OA
HETATM    7  C   UNL     1      -1.142   6.910 -33.474  1.00  0.00     0.203 C 
HETATM    8  C   UNL     1      -0.484   6.690 -32.107  1.00  0.00     0.262 C 
HETATM    9  C   UNL     1      -4.418   4.463 -32.276  1.00  0.00     0.020 A 
HETATM   10  C   UNL     1      -5.384   4.485 -33.300  1.00  0.00    -0.032 A 
HETATM   11  C   UNL     1      -4.989   4.868 -34.591  1.00  0.00     0.011 A 
HETATM   12  C   UNL     1      -3.672   5.249 -34.843  1.00  0.00     0.038 A 
ENDROOT
BRANCH  10  13
HETATM   13  C   UNL     1      -6.829   4.153 -33.020  1.00  0.00     0.273 C 
BRANCH  13  14
HETATM   14  N   UNL     1      -7.207   2.705 -33.259  1.00  0.00    -0.067 N 
HETATM   15  H   UNL     1      -8.174   2.706 -33.614  1.00  0.00     0.280 HD
HETATM   16  C   UNL     1      -6.341   2.053 -34.308  1.00  0.00     0.238 C 
HETATM   17  C   UNL     1      -6.709   0.585 -34.475  1.00  0.00     0.071 C 
HETATM   18  C   UNL     1      -6.633  -0.205 -33.153  1.00  0.00     0.089 C 
HETATM   19  C   UNL     1      -7.604   0.498 -32.183  1.00  0.00     0.071 C 
HETATM   20  C   UNL     1      -7.214   1.945 -31.949  1.00  0.00     0.238 C 
BRANCH  18  21
HETATM   21  O   UNL     1      -7.192  -1.490 -33.423  1.00  0.00    -0.385 OA
HETATM   22  H   UNL     1      -7.818  -1.440 -34.169  1.00  0.00     0.211 HD
ENDBRANCH  18  21
BRANCH  18  23
HETATM   23  C   UNL     1      -5.235  -0.399 -32.576  1.00  0.00    -0.006 A 
HETATM   24  C   UNL     1      -4.481  -1.552 -32.795  1.00  0.00     0.126 A 
HETATM   25  N   UNL     1      -3.214  -1.740 -32.367  1.00  0.00    -0.272 NA
HETATM   26  C   UNL     1      -2.673  -0.777 -31.595  1.00  0.00     0.116 A 
HETATM   27  C   UNL     1      -3.345   0.378 -31.253  1.00  0.00     0.020 A 
HETATM   28  C   UNL     1      -4.637   0.564 -31.745  1.00  0.00     0.013 A 
ENDBRANCH  18  23
ENDBRANCH  13  14
ENDBRANCH  10  13
BRANCH   1  29
HETATM   29  C   UNL     1      -2.419   7.180 -30.535  1.00  0.00     0.276 C 
BRANCH  29  30
HETATM   30  C   UNL     1      -2.676   7.117 -29.048  1.00  0.00     0.001 A 
HETATM   31  C   UNL     1      -1.611   7.155 -28.124  1.00  0.00     0.077 A 
HETATM   32  C   UNL     1      -1.882   7.104 -26.755  1.00  0.00     0.037 A 
HETATM   33  C   UNL     1      -3.198   7.013 -26.297  1.00  0.00     0.003 A 
HETATM   34  C   UNL     1      -4.252   6.952 -27.202  1.00  0.00     0.001 A 
HETATM   35  C   UNL     1      -3.995   6.992 -28.570  1.00  0.00     0.012 A 
BRANCH  31  36
HETATM   36  O   UNL     1      -0.358   7.238 -28.669  1.00  0.00    -0.347 OA
BRANCH  36  37
HETATM   37  C   UNL     1       0.796   7.136 -27.831  1.00  0.00     0.202 C 
BRANCH  37  38
HETATM   38  C   UNL     1       1.513   8.444 -27.722  1.00  0.00    -0.011 C 
HETATM   39  C   UNL     1       1.753   9.082 -26.569  1.00  0.00     0.009 C 
ENDBRANCH  37  38
ENDBRANCH  36  37
ENDBRANCH  31  36
ENDBRANCH  29  30
ENDBRANCH   1  29
TORSDOF 9
ENDMDL
MODEL 10
REMARK VINA RESULT:      -8.6      2.473      7.851
REMARK  9 active torsions:
REMARK  status: ('A' for Active; 'I' for Inactive)
REMARK    1  A    between atoms: C_2  and  C_3 
REMARK    2  A    between atoms: C_3  and  O_4 
REMARK    3  A    between atoms: O_4  and  C_5 
REMARK    4  A    between atoms: C_6  and  C_7 
REMARK    5  A    between atoms: C_7  and  N_8 
REMARK    6  A    between atoms: C_17  and  C_18 
REMARK    7  A    between atoms: C_18  and  N_19 
REMARK    8  A    between atoms: C_23  and  O_24 
REMARK    9  A    between atoms: C_23  and  C_25 
ROOT
HETATM    1  N   UNL     1      -3.660   1.385 -31.180  1.00  0.00    -0.061 N 
HETATM    2  H   UNL     1      -3.585   1.972 -30.342  1.00  0.00     0.280 HD
HETATM    3  C   UNL     1      -5.101   0.929 -31.200  1.00  0.00     0.276 C 
HETATM    4  C   UNL     1      -5.528   0.155 -32.416  1.00  0.00     0.002 A 
HETATM    5  C   UNL     1      -4.951  -1.085 -32.691  1.00  0.00     0.076 A 
HETATM    6  O   UNL     1      -3.981  -1.604 -31.881  1.00  0.00    -0.349 OA
HETATM    7  C   UNL     1      -2.755  -0.864 -31.992  1.00  0.00     0.203 C 
HETATM    8  C   UNL     1      -2.679   0.247 -30.939  1.00  0.00     0.262 C 
HETATM    9  C   UNL     1      -6.529   0.635 -33.281  1.00  0.00     0.020 A 
HETATM   10  C   UNL     1      -6.941  -0.109 -34.404  1.00  0.00    -0.032 A 
HETATM   11  C   UNL     1      -6.366  -1.370 -34.624  1.00  0.00     0.011 A 
HETATM   12  C   UNL     1      -5.383  -1.858 -33.764  1.00  0.00     0.038 A 
ENDROOT
BRANCH  10  13
HETATM   13  C   UNL     1      -7.945   0.445 -35.385  1.00  0.00     0.273 C 
BRANCH  13  14
HETATM   14  N   UNL     1      -9.236   0.938 -34.766  1.00  0.00    -0.067 N 
HETATM   15  H   UNL     1     -10.002   0.603 -35.368  1.00  0.00     0.280 HD
HETATM   16  C   UNL     1      -9.464   0.369 -33.387  1.00  0.00     0.238 C 
HETATM   17  C   UNL     1     -10.736   0.935 -32.773  1.00  0.00     0.071 C 
HETATM   18  C   UNL     1     -10.742   2.476 -32.722  1.00  0.00     0.089 C 
HETATM   19  C   UNL     1     -10.579   2.949 -34.181  1.00  0.00     0.071 C 
HETATM   20  C   UNL     1      -9.281   2.452 -34.789  1.00  0.00     0.238 C 
BRANCH  18  21
HETATM   21  O   UNL     1     -12.058   2.858 -32.319  1.00  0.00    -0.385 OA
HETATM   22  H   UNL     1     -12.697   2.690 -33.037  1.00  0.00     0.211 HD
ENDBRANCH  18  21
BRANCH  18  23
HETATM   23  C   UNL     1      -9.741   3.111 -31.763  1.00  0.00    -0.006 A 
HETATM   24  C   UNL     1      -9.615   4.492 -31.609  1.00  0.00     0.126 A 
HETATM   25  N   UNL     1      -8.796   5.099 -30.723  1.00  0.00    -0.272 NA
HETATM   26  C   UNL     1      -7.977   4.312 -29.999  1.00  0.00     0.116 A 
HETATM   27  C   UNL     1      -7.961   2.937 -30.112  1.00  0.00     0.020 A 
HETATM   28  C   UNL     1      -8.848   2.335 -31.005  1.00  0.00     0.013 A 
ENDBRANCH  18  23
ENDBRANCH  13  14
ENDBRANCH  10  13
BRANCH   1  29
HETATM   29  C   UNL     1      -3.252   2.295 -32.329  1.00  0.00     0.276 C 
BRANCH  29  30
HETATM   30  C   UNL     1      -3.716   3.726 -32.194  1.00  0.00     0.001 A 
HETATM   31  C   UNL     1      -2.835   4.737 -31.757  1.00  0.00     0.077 A 
HETATM   32  C   UNL     1      -3.292   6.053 -31.651  1.00  0.00     0.037 A 
HETATM   33  C   UNL     1      -4.613   6.371 -31.972  1.00  0.00     0.003 A 
HETATM   34  C   UNL     1      -5.494   5.376 -32.381  1.00  0.00     0.001 A 
HETATM   35  C   UNL     1      -5.054   4.058 -32.481  1.00  0.00     0.012 A 
BRANCH  31  36
HETATM   36  O   UNL     1      -1.563   4.327 -31.460  1.00  0.00    -0.347 OA
BRANCH  36  37
HETATM   37  C   UNL     1      -0.445   5.145 -31.816  1.00  0.00     0.202 C 
BRANCH  37  38
HETATM   38  C   UNL     1       0.266   5.660 -30.606  1.00  0.00    -0.011 C 
HETATM   39  C   UNL     1       0.275   6.943 -30.222  1.00  0.00     0.009 C 
ENDBRANCH  37  38
ENDBRANCH  36  37
ENDBRANCH  31  36
ENDBRANCH  29  30
ENDBRANCH   1  29
TORSDOF 9
ENDMDL
