MODEL 1
REMARK VINA RESULT:     -10.4      0.000      0.000
REMARK  5 active torsions:
REMARK  status: ('A' for Active; 'I' for Inactive)
REMARK    1  A    between atoms: O_2  and  C_3 
REMARK    2  A    between atoms: C_4  and  O_5 
REMARK    3  A    between atoms: C_8  and  C_9 
REMARK    4  A    between atoms: C_13  and  C_14 
REMARK       I    between atoms: C_14  and  N_15 
REMARK    5  A    between atoms: N_15  and  N_16 
ROOT
HETATM    1  C   UNL     1      -7.964   0.854 -33.786  1.00  0.00     0.069 A 
HETATM    2  N   UNL     1      -7.805  -0.388 -34.298  1.00  0.00    -0.248 NA
HETATM    3  C   UNL     1      -6.622  -1.010 -34.187  1.00  0.00     0.068 A 
HETATM    4  C   UNL     1      -5.491  -0.427 -33.576  1.00  0.00     0.009 A 
HETATM    5  C   UNL     1      -5.645   0.919 -33.157  1.00  0.00     0.048 A 
HETATM    6  C   UNL     1      -6.895   1.545 -33.247  1.00  0.00     0.050 A 
HETATM    7  C   UNL     1      -6.538  -2.303 -34.683  1.00  0.00     0.032 A 
HETATM    8  C   UNL     1      -5.378  -3.069 -34.565  1.00  0.00     0.002 A 
HETATM    9  C   UNL     1      -4.278  -2.541 -33.911  1.00  0.00     0.001 A 
HETATM   10  C   UNL     1      -4.335  -1.241 -33.412  1.00  0.00     0.015 A 
ENDROOT
BRANCH   5  11
HETATM   11  C   UNL     1      -4.557   1.777 -32.596  1.00  0.00     0.271 C 
HETATM   12  N   UNL     1      -4.563   3.111 -32.953  1.00  0.00    -0.252 N 
HETATM   13  H   UNL     1      -5.423   3.543 -33.281  1.00  0.00     0.191 HD
HETATM   14  O   UNL     1      -3.771   1.294 -31.786  1.00  0.00    -0.266 OA
BRANCH  12  15
HETATM   15  N   UNL     1      -3.711   3.969 -32.267  1.00  0.00    -0.167 N 
HETATM   16  C   UNL     1      -4.097   4.600 -31.116  1.00  0.00     0.345 C 
HETATM   17  O   UNL     1      -5.140   4.446 -30.501  1.00  0.00    -0.245 OA
HETATM   18  N   UNL     1      -3.123   5.525 -30.795  1.00  0.00    -0.323 N 
HETATM   19  C   UNL     1      -1.983   5.442 -31.696  1.00  0.00     0.117 C 
HETATM   20  H   UNL     1      -3.172   6.062 -29.937  1.00  0.00     0.165 HD
HETATM   21  C   UNL     1      -0.839   4.659 -31.036  1.00  0.00     0.041 C 
HETATM   22  C   UNL     1      -1.526   6.807 -32.207  1.00  0.00     0.041 C 
HETATM   23  C   UNL     1      -2.612   4.587 -32.820  1.00  0.00     0.275 C 
HETATM   24  C   UNL     1      -0.141   5.481 -29.952  1.00  0.00     0.003 C 
HETATM   25  C   UNL     1       0.335   6.827 -30.490  1.00  0.00     0.000 C 
HETATM   26  C   UNL     1      -0.803   7.617 -31.131  1.00  0.00     0.003 C 
HETATM   27  O   UNL     1      -2.185   4.498 -33.962  1.00  0.00    -0.268 OA
ENDBRANCH  12  15
ENDBRANCH   5  11
BRANCH   1  28
HETATM   28  C   UNL     1      -9.343   1.385 -33.810  1.00  0.00    -0.004 A 
HETATM   29  C   UNL     1      -9.606   2.698 -34.256  1.00  0.00     0.053 A 
HETATM   30  C   UNL     1     -10.911   3.207 -34.340  1.00  0.00     0.102 A 
HETATM   31  C   UNL     1     -11.984   2.371 -34.001  1.00  0.00     0.101 A 
HETATM   32  C   UNL     1     -11.747   1.083 -33.522  1.00  0.00     0.040 A 
HETATM   33  C   UNL     1     -10.443   0.593 -33.435  1.00  0.00     0.017 A 
BRANCH  30  34
HETATM   34  O   UNL     1     -11.218   4.483 -34.736  1.00  0.00    -0.353 OA
HETATM   35  C   UNL     1     -10.156   5.296 -35.215  1.00  0.00     0.210 C 
ENDBRANCH  30  34
BRANCH  31  36
HETATM   36  O   UNL     1     -13.306   2.736 -34.053  1.00  0.00    -0.353 OA
HETATM   37  C   UNL     1     -14.130   1.975 -33.170  1.00  0.00     0.210 C 
ENDBRANCH  31  36
ENDBRANCH   1  28
TORSDOF 5
ENDMDL
MODEL 2
REMARK VINA RESULT:      -9.9      1.575      2.167
REMARK  5 active torsions:
REMARK  status: ('A' for Active; 'I' for Inactive)
REMARK    1  A    between atoms: O_2  and  C_3 
REMARK    2  A    between atoms: C_4  and  O_5 
REMARK    3  A    between atoms: C_8  and  C_9 
REMARK    4  A    between atoms: C_13  and  C_14 
REMARK       I    between atoms: C_14  and  N_15 
REMARK    5  A    between atoms: N_15  and  N_16 
ROOT
HETATM    1  C   UNL     1      -8.890   1.047 -33.933  1.00  0.00     0.069 A 
HETATM    2  N   UNL     1      -8.390  -0.185 -34.181  1.00  0.00    -0.248 NA
HETATM    3  C   UNL     1      -7.082  -0.425 -33.999  1.00  0.00     0.068 A 
HETATM    4  C   UNL     1      -6.162   0.559 -33.580  1.00  0.00     0.009 A 
HETATM    5  C   UNL     1      -6.685   1.871 -33.445  1.00  0.00     0.048 A 
HETATM    6  C   UNL     1      -8.058   2.100 -33.603  1.00  0.00     0.050 A 
HETATM    7  C   UNL     1      -6.641  -1.722 -34.217  1.00  0.00     0.032 A 
HETATM    8  C   UNL     1      -5.316  -2.102 -33.998  1.00  0.00     0.002 A 
HETATM    9  C   UNL     1      -4.411  -1.168 -33.523  1.00  0.00     0.001 A 
HETATM   10  C   UNL     1      -4.829   0.144 -33.305  1.00  0.00     0.015 A 
ENDROOT
BRANCH   5  11
HETATM   11  C   UNL     1      -5.881   3.091 -33.130  1.00  0.00     0.271 C 
HETATM   12  N   UNL     1      -5.491   3.264 -31.818  1.00  0.00    -0.252 N 
HETATM   13  H   UNL     1      -5.450   2.463 -31.192  1.00  0.00     0.191 HD
HETATM   14  O   UNL     1      -5.531   3.831 -34.046  1.00  0.00    -0.266 OA
BRANCH  12  15
HETATM   15  N   UNL     1      -4.555   4.256 -31.545  1.00  0.00    -0.167 N 
HETATM   16  C   UNL     1      -3.228   3.969 -31.374  1.00  0.00     0.345 C 
HETATM   17  O   UNL     1      -2.680   2.888 -31.518  1.00  0.00    -0.245 OA
HETATM   18  N   UNL     1      -2.604   5.114 -30.920  1.00  0.00    -0.323 N 
HETATM   19  C   UNL     1      -3.515   6.248 -30.889  1.00  0.00     0.117 C 
HETATM   20  H   UNL     1      -1.600   5.148 -30.790  1.00  0.00     0.165 HD
HETATM   21  C   UNL     1      -3.296   7.141 -32.119  1.00  0.00     0.041 C 
HETATM   22  C   UNL     1      -3.439   7.038 -29.584  1.00  0.00     0.041 C 
HETATM   23  C   UNL     1      -4.858   5.496 -31.031  1.00  0.00     0.275 C 
HETATM   24  C   UNL     1      -2.006   7.955 -32.007  1.00  0.00     0.003 C 
HETATM   25  C   UNL     1      -1.964   8.759 -30.711  1.00  0.00     0.000 C 
HETATM   26  C   UNL     1      -2.163   7.874 -29.485  1.00  0.00     0.003 C 
HETATM   27  O   UNL     1      -5.956   5.950 -30.738  1.00  0.00    -0.268 OA
ENDBRANCH  12  15
ENDBRANCH   5  11
BRANCH   1  28
HETATM   28  C   UNL     1     -10.361   1.166 -34.001  1.00  0.00    -0.004 A 
HETATM   29  C   UNL     1     -10.970   2.227 -34.706  1.00  0.00     0.053 A 
HETATM   30  C   UNL     1     -12.364   2.333 -34.832  1.00  0.00     0.102 A 
HETATM   31  C   UNL     1     -13.169   1.334 -34.266  1.00  0.00     0.101 A 
HETATM   32  C   UNL     1     -12.592   0.298 -33.532  1.00  0.00     0.040 A 
HETATM   33  C   UNL     1     -11.205   0.211 -33.408  1.00  0.00     0.017 A 
BRANCH  30  34
HETATM   34  O   UNL     1     -13.005   3.358 -35.478  1.00  0.00    -0.353 OA
HETATM   35  C   UNL     1     -12.559   4.680 -35.216  1.00  0.00     0.210 C 
ENDBRANCH  30  34
BRANCH  31  36
HETATM   36  O   UNL     1     -14.540   1.308 -34.327  1.00  0.00    -0.353 OA
HETATM   37  C   UNL     1     -15.161   1.637 -33.086  1.00  0.00     0.210 C 
ENDBRANCH  31  36
ENDBRANCH   1  28
TORSDOF 5
ENDMDL
MODEL 3
REMARK VINA RESULT:      -9.6      2.141      9.101
REMARK  5 active torsions:
REMARK  status: ('A' for Active; 'I' for Inactive)
REMARK    1  A    between atoms: O_2  and  C_3 
REMARK    2  A    between atoms: C_4  and  O_5 
REMARK    3  A    between atoms: C_8  and  C_9 
REMARK    4  A    between atoms: C_13  and  C_14 
REMARK       I    between atoms: C_14  and  N_15 
REMARK    5  A    between atoms: N_15  and  N_16 
ROOT
HETATM    1  C   UNL     1      -5.006   2.297 -32.363  1.00  0.00     0.069 A 
HETATM    2  N   UNL     1      -4.357   1.167 -32.724  1.00  0.00    -0.248 NA
HETATM    3  C   UNL     1      -5.053   0.102 -33.150  1.00  0.00     0.068 A 
HETATM    4  C   UNL     1      -6.462   0.074 -33.224  1.00  0.00     0.009 A 
HETATM    5  C   UNL     1      -7.127   1.224 -32.725  1.00  0.00     0.048 A 
HETATM    6  C   UNL     1      -6.387   2.341 -32.316  1.00  0.00     0.050 A 
HETATM    7  C   UNL     1      -4.327  -1.007 -33.558  1.00  0.00     0.032 A 
HETATM    8  C   UNL     1      -4.942  -2.146 -34.079  1.00  0.00     0.002 A 
HETATM    9  C   UNL     1      -6.319  -2.170 -34.222  1.00  0.00     0.001 A 
HETATM   10  C   UNL     1      -7.071  -1.070 -33.811  1.00  0.00     0.015 A 
ENDROOT
BRANCH   5  11
HETATM   11  C   UNL     1      -8.607   1.374 -32.591  1.00  0.00     0.271 C 
HETATM   12  N   UNL     1      -9.371   1.083 -33.703  1.00  0.00    -0.252 N 
HETATM   13  H   UNL     1      -8.993   0.486 -34.435  1.00  0.00     0.191 HD
HETATM   14  O   UNL     1      -9.084   1.657 -31.494  1.00  0.00    -0.266 OA
BRANCH  12  15
HETATM   15  N   UNL     1     -10.749   0.989 -33.536  1.00  0.00    -0.167 N 
HETATM   16  C   UNL     1     -11.338  -0.134 -33.021  1.00  0.00     0.345 C 
HETATM   17  O   UNL     1     -10.781  -1.121 -32.568  1.00  0.00    -0.245 OA
HETATM   18  N   UNL     1     -12.704  -0.000 -33.173  1.00  0.00    -0.323 N 
HETATM   19  C   UNL     1     -13.062   1.305 -33.708  1.00  0.00     0.117 C 
HETATM   20  H   UNL     1     -13.343  -0.690 -32.797  1.00  0.00     0.165 HD
HETATM   21  C   UNL     1     -13.538   2.231 -32.578  1.00  0.00     0.041 C 
HETATM   22  C   UNL     1     -14.073   1.224 -34.850  1.00  0.00     0.041 C 
HETATM   23  C   UNL     1     -11.671   1.765 -34.200  1.00  0.00     0.275 C 
HETATM   24  C   UNL     1     -14.937   1.856 -32.090  1.00  0.00     0.003 C 
HETATM   25  C   UNL     1     -15.938   1.811 -33.241  1.00  0.00     0.000 C 
HETATM   26  C   UNL     1     -15.478   0.878 -34.358  1.00  0.00     0.003 C 
HETATM   27  O   UNL     1     -11.469   2.654 -35.016  1.00  0.00    -0.268 OA
ENDBRANCH  12  15
ENDBRANCH   5  11
BRANCH   1  28
HETATM   28  C   UNL     1      -4.147   3.463 -32.070  1.00  0.00    -0.004 A 
HETATM   29  C   UNL     1      -3.010   3.742 -32.859  1.00  0.00     0.053 A 
HETATM   30  C   UNL     1      -2.209   4.873 -32.637  1.00  0.00     0.102 A 
HETATM   31  C   UNL     1      -2.574   5.766 -31.620  1.00  0.00     0.101 A 
HETATM   32  C   UNL     1      -3.670   5.493 -30.803  1.00  0.00     0.040 A 
HETATM   33  C   UNL     1      -4.452   4.359 -31.031  1.00  0.00     0.017 A 
BRANCH  30  34
HETATM   34  O   UNL     1      -1.080   5.172 -33.353  1.00  0.00    -0.353 OA
HETATM   35  C   UNL     1      -1.236   5.474 -34.731  1.00  0.00     0.210 C 
ENDBRANCH  30  34
BRANCH  31  36
HETATM   36  O   UNL     1      -1.891   6.915 -31.307  1.00  0.00    -0.353 OA
HETATM   37  C   UNL     1      -2.270   8.028 -32.115  1.00  0.00     0.210 C 
ENDBRANCH  31  36
ENDBRANCH   1  28
TORSDOF 5
ENDMDL
MODEL 4
REMARK VINA RESULT:      -9.5      2.612      5.573
REMARK  5 active torsions:
REMARK  status: ('A' for Active; 'I' for Inactive)
REMARK    1  A    between atoms: O_2  and  C_3 
REMARK    2  A    between atoms: C_4  and  O_5 
REMARK    3  A    between atoms: C_8  and  C_9 
REMARK    4  A    between atoms: C_13  and  C_14 
REMARK       I    between atoms: C_14  and  N_15 
REMARK    5  A    between atoms: N_15  and  N_16 
ROOT
HETATM    1  C   UNL     1      -6.673   1.262 -33.846  1.00  0.00     0.069 A 
HETATM    2  N   UNL     1      -7.991   1.527 -33.987  1.00  0.00    -0.248 NA
HETATM    3  C   UNL     1      -8.427   2.795 -33.945  1.00  0.00     0.068 A 
HETATM    4  C   UNL     1      -7.578   3.902 -33.732  1.00  0.00     0.009 A 
HETATM    5  C   UNL     1      -6.220   3.592 -33.464  1.00  0.00     0.048 A 
HETATM    6  C   UNL     1      -5.773   2.267 -33.545  1.00  0.00     0.050 A 
HETATM    7  C   UNL     1      -9.783   3.005 -34.151  1.00  0.00     0.032 A 
HETATM    8  C   UNL     1     -10.337   4.285 -34.194  1.00  0.00     0.002 A 
HETATM    9  C   UNL     1      -9.512   5.388 -34.052  1.00  0.00     0.001 A 
HETATM   10  C   UNL     1      -8.147   5.202 -33.836  1.00  0.00     0.015 A 
ENDROOT
BRANCH   5  11
HETATM   11  C   UNL     1      -5.166   4.584 -33.093  1.00  0.00     0.271 C 
HETATM   12  N   UNL     1      -4.962   4.809 -31.747  1.00  0.00    -0.252 N 
HETATM   13  H   UNL     1      -5.254   4.111 -31.067  1.00  0.00     0.191 HD
HETATM   14  O   UNL     1      -4.475   5.083 -33.977  1.00  0.00    -0.266 OA
BRANCH  12  15
HETATM   15  N   UNL     1      -3.841   5.543 -31.374  1.00  0.00    -0.167 N 
HETATM   16  C   UNL     1      -3.804   6.907 -31.479  1.00  0.00     0.345 C 
HETATM   17  O   UNL     1      -4.717   7.650 -31.801  1.00  0.00    -0.245 OA
HETATM   18  N   UNL     1      -2.507   7.314 -31.233  1.00  0.00    -0.323 N 
HETATM   19  C   UNL     1      -1.659   6.200 -30.837  1.00  0.00     0.117 C 
HETATM   20  H   UNL     1      -2.265   8.297 -31.191  1.00  0.00     0.165 HD
HETATM   21  C   UNL     1      -1.480   6.183 -29.311  1.00  0.00     0.041 C 
HETATM   22  C   UNL     1      -0.321   6.178 -31.573  1.00  0.00     0.041 C 
HETATM   23  C   UNL     1      -2.570   5.026 -31.262  1.00  0.00     0.275 C 
HETATM   24  C   UNL     1      -0.539   7.291 -28.839  1.00  0.00     0.003 C 
HETATM   25  C   UNL     1       0.802   7.233 -29.565  1.00  0.00     0.000 C 
HETATM   26  C   UNL     1       0.630   7.268 -31.080  1.00  0.00     0.003 C 
HETATM   27  O   UNL     1      -2.200   3.875 -31.446  1.00  0.00    -0.268 OA
ENDBRANCH  12  15
ENDBRANCH   5  11
BRANCH   1  28
HETATM   28  C   UNL     1      -6.274  -0.143 -34.073  1.00  0.00    -0.004 A 
HETATM   29  C   UNL     1      -5.115  -0.674 -33.465  1.00  0.00     0.053 A 
HETATM   30  C   UNL     1      -4.744  -2.019 -33.619  1.00  0.00     0.102 A 
HETATM   31  C   UNL     1      -5.571  -2.862 -34.374  1.00  0.00     0.101 A 
HETATM   32  C   UNL     1      -6.699  -2.352 -35.016  1.00  0.00     0.040 A 
HETATM   33  C   UNL     1      -7.050  -1.011 -34.860  1.00  0.00     0.017 A 
BRANCH  30  34
HETATM   34  O   UNL     1      -3.615  -2.575 -33.077  1.00  0.00    -0.353 OA
HETATM   35  C   UNL     1      -3.050  -1.938 -31.940  1.00  0.00     0.210 C 
ENDBRANCH  30  34
BRANCH  31  36
HETATM   36  O   UNL     1      -5.334  -4.197 -34.592  1.00  0.00    -0.353 OA
HETATM   37  C   UNL     1      -6.298  -4.801 -35.454  1.00  0.00     0.210 C 
ENDBRANCH  31  36
ENDBRANCH   1  28
TORSDOF 5
ENDMDL
MODEL 5
REMARK VINA RESULT:      -9.5      2.407      5.975
REMARK  5 active torsions:
REMARK  status: ('A' for Active; 'I' for Inactive)
REMARK    1  A    between atoms: O_2  and  C_3 
REMARK    2  A    between atoms: C_4  and  O_5 
REMARK    3  A    between atoms: C_8  and  C_9 
REMARK    4  A    between atoms: C_13  and  C_14 
REMARK       I    between atoms: C_14  and  N_15 
REMARK    5  A    between atoms: N_15  and  N_16 
ROOT
HETATM    1  C   UNL     1      -6.430   0.614 -33.573  1.00  0.00     0.069 A 
HETATM    2  N   UNL     1      -7.742   0.590 -33.899  1.00  0.00    -0.248 NA
HETATM    3  C   UNL     1      -8.442   1.734 -33.942  1.00  0.00     0.068 A 
HETATM    4  C   UNL     1      -7.888   2.996 -33.637  1.00  0.00     0.009 A 
HETATM    5  C   UNL     1      -6.545   2.983 -33.180  1.00  0.00     0.048 A 
HETATM    6  C   UNL     1      -5.817   1.786 -33.173  1.00  0.00     0.050 A 
HETATM    7  C   UNL     1      -9.769   1.650 -34.336  1.00  0.00     0.032 A 
HETATM    8  C   UNL     1     -10.574   2.780 -34.479  1.00  0.00     0.002 A 
HETATM    9  C   UNL     1     -10.033   4.034 -34.248  1.00  0.00     0.001 A 
HETATM   10  C   UNL     1      -8.703   4.143 -33.843  1.00  0.00     0.015 A 
ENDROOT
BRANCH   5  11
HETATM   11  C   UNL     1      -5.790   4.175 -32.688  1.00  0.00     0.271 C 
HETATM   12  N   UNL     1      -5.187   4.069 -31.450  1.00  0.00    -0.252 N 
HETATM   13  H   UNL     1      -4.979   3.151 -31.066  1.00  0.00     0.191 HD
HETATM   14  O   UNL     1      -5.661   5.149 -33.425  1.00  0.00    -0.266 OA
BRANCH  12  15
HETATM   15  N   UNL     1      -4.293   5.067 -31.078  1.00  0.00    -0.167 N 
HETATM   16  C   UNL     1      -2.940   4.904 -31.195  1.00  0.00     0.345 C 
HETATM   17  O   UNL     1      -2.349   3.963 -31.700  1.00  0.00    -0.245 OA
HETATM   18  N   UNL     1      -2.330   5.968 -30.562  1.00  0.00    -0.323 N 
HETATM   19  C   UNL     1      -3.301   6.946 -30.095  1.00  0.00     0.117 C 
HETATM   20  H   UNL     1      -1.324   6.086 -30.586  1.00  0.00     0.165 HD
HETATM   21  C   UNL     1      -3.373   8.132 -31.068  1.00  0.00     0.041 C 
HETATM   22  C   UNL     1      -3.050   7.396 -28.657  1.00  0.00     0.041 C 
HETATM   23  C   UNL     1      -4.589   6.100 -30.217  1.00  0.00     0.275 C 
HETATM   24  C   UNL     1      -2.148   9.038 -30.949  1.00  0.00     0.003 C 
HETATM   25  C   UNL     1      -1.932   9.501 -29.511  1.00  0.00     0.000 C 
HETATM   26  C   UNL     1      -1.841   8.325 -28.543  1.00  0.00     0.003 C 
HETATM   27  O   UNL     1      -5.646   6.337 -29.649  1.00  0.00    -0.268 OA
ENDBRANCH  12  15
ENDBRANCH   5  11
BRANCH   1  28
HETATM   28  C   UNL     1      -5.711  -0.670 -33.716  1.00  0.00    -0.004 A 
HETATM   29  C   UNL     1      -6.120  -1.626 -34.671  1.00  0.00     0.053 A 
HETATM   30  C   UNL     1      -5.422  -2.829 -34.865  1.00  0.00     0.102 A 
HETATM   31  C   UNL     1      -4.267  -3.066 -34.107  1.00  0.00     0.101 A 
HETATM   32  C   UNL     1      -3.866  -2.154 -33.131  1.00  0.00     0.040 A 
HETATM   33  C   UNL     1      -4.575  -0.966 -32.944  1.00  0.00     0.017 A 
BRANCH  30  34
HETATM   34  O   UNL     1      -5.794  -3.802 -35.754  1.00  0.00    -0.353 OA
HETATM   35  C   UNL     1      -6.839  -4.682 -35.366  1.00  0.00     0.210 C 
ENDBRANCH  30  34
BRANCH  31  36
HETATM   36  O   UNL     1      -3.484  -4.189 -34.206  1.00  0.00    -0.353 OA
HETATM   37  C   UNL     1      -3.822  -5.191 -33.248  1.00  0.00     0.210 C 
ENDBRANCH  31  36
ENDBRANCH   1  28
TORSDOF 5
ENDMDL
MODEL 6
REMARK VINA RESULT:      -9.0      3.071      6.277
REMARK  5 active torsions:
REMARK  status: ('A' for Active; 'I' for Inactive)
REMARK    1  A    between atoms: O_2  and  C_3 
REMARK    2  A    between atoms: C_4  and  O_5 
REMARK    3  A    between atoms: C_8  and  C_9 
REMARK    4  A    between atoms: C_13  and  C_14 
REMARK       I    between atoms: C_14  and  N_15 
REMARK    5  A    between atoms: N_15  and  N_16 
ROOT
HETATM    1  C   UNL     1      -7.743   0.373 -33.044  1.00  0.00     0.069 A 
HETATM    2  N   UNL     1      -9.020   0.065 -33.366  1.00  0.00    -0.248 NA
HETATM    3  C   UNL     1      -9.989   0.979 -33.208  1.00  0.00     0.068 A 
HETATM    4  C   UNL     1      -9.762   2.271 -32.687  1.00  0.00     0.009 A 
HETATM    5  C   UNL     1      -8.441   2.530 -32.241  1.00  0.00     0.048 A 
HETATM    6  C   UNL     1      -7.432   1.580 -32.445  1.00  0.00     0.050 A 
HETATM    7  C   UNL     1     -11.268   0.620 -33.609  1.00  0.00     0.032 A 
HETATM    8  C   UNL     1     -12.341   1.511 -33.550  1.00  0.00     0.002 A 
HETATM    9  C   UNL     1     -12.127   2.804 -33.104  1.00  0.00     0.001 A 
HETATM   10  C   UNL     1     -10.852   3.185 -32.688  1.00  0.00     0.015 A 
ENDROOT
BRANCH   5  11
HETATM   11  C   UNL     1      -7.993   3.776 -31.548  1.00  0.00     0.271 C 
HETATM   12  N   UNL     1      -7.766   3.692 -30.189  1.00  0.00    -0.252 N 
HETATM   13  H   UNL     1      -7.580   2.787 -29.762  1.00  0.00     0.191 HD
HETATM   14  O   UNL     1      -7.762   4.782 -32.215  1.00  0.00    -0.266 OA
BRANCH  12  15
HETATM   15  N   UNL     1      -7.131   4.763 -29.571  1.00  0.00    -0.167 N 
HETATM   16  C   UNL     1      -7.820   5.872 -29.160  1.00  0.00     0.345 C 
HETATM   17  O   UNL     1      -9.028   6.042 -29.182  1.00  0.00    -0.245 OA
HETATM   18  N   UNL     1      -6.897   6.826 -28.780  1.00  0.00    -0.323 N 
HETATM   19  C   UNL     1      -5.538   6.309 -28.828  1.00  0.00     0.117 C 
HETATM   20  H   UNL     1      -7.190   7.707 -28.375  1.00  0.00     0.165 HD
HETATM   21  C   UNL     1      -5.065   5.921 -27.418  1.00  0.00     0.041 C 
HETATM   22  C   UNL     1      -4.562   7.260 -29.520  1.00  0.00     0.041 C 
HETATM   23  C   UNL     1      -5.783   5.030 -29.659  1.00  0.00     0.275 C 
HETATM   24  C   UNL     1      -4.751   7.152 -26.567  1.00  0.00     0.003 C 
HETATM   25  C   UNL     1      -3.753   8.073 -27.263  1.00  0.00     0.000 C 
HETATM   26  C   UNL     1      -4.226   8.476 -28.656  1.00  0.00     0.003 C 
HETATM   27  O   UNL     1      -4.922   4.401 -30.259  1.00  0.00    -0.268 OA
ENDBRANCH  12  15
ENDBRANCH   5  11
BRANCH   1  28
HETATM   28  C   UNL     1      -6.728  -0.636 -33.410  1.00  0.00    -0.004 A 
HETATM   29  C   UNL     1      -5.526  -0.752 -32.679  1.00  0.00     0.053 A 
HETATM   30  C   UNL     1      -4.570  -1.738 -32.971  1.00  0.00     0.102 A 
HETATM   31  C   UNL     1      -4.839  -2.652 -33.999  1.00  0.00     0.101 A 
HETATM   32  C   UNL     1      -6.002  -2.534 -34.760  1.00  0.00     0.040 A 
HETATM   33  C   UNL     1      -6.939  -1.543 -34.463  1.00  0.00     0.017 A 
BRANCH  30  34
HETATM   34  O   UNL     1      -3.375  -1.873 -32.314  1.00  0.00    -0.353 OA
HETATM   35  C   UNL     1      -2.798  -0.703 -31.753  1.00  0.00     0.210 C 
ENDBRANCH  30  34
BRANCH  31  36
HETATM   36  O   UNL     1      -4.001  -3.671 -34.377  1.00  0.00    -0.353 OA
HETATM   37  C   UNL     1      -4.607  -4.959 -34.279  1.00  0.00     0.210 C 
ENDBRANCH  31  36
ENDBRANCH   1  28
TORSDOF 5
ENDMDL
MODEL 7
REMARK VINA RESULT:      -8.9      3.534      9.536
REMARK  5 active torsions:
REMARK  status: ('A' for Active; 'I' for Inactive)
REMARK    1  A    between atoms: O_2  and  C_3 
REMARK    2  A    between atoms: C_4  and  O_5 
REMARK    3  A    between atoms: C_8  and  C_9 
REMARK    4  A    between atoms: C_13  and  C_14 
REMARK       I    between atoms: C_14  and  N_15 
REMARK    5  A    between atoms: N_15  and  N_16 
ROOT
HETATM    1  C   UNL     1      -7.071   1.328 -32.641  1.00  0.00     0.069 A 
HETATM    2  N   UNL     1      -6.223   1.928 -31.776  1.00  0.00    -0.248 NA
HETATM    3  C   UNL     1      -6.639   2.973 -31.045  1.00  0.00     0.068 A 
HETATM    4  C   UNL     1      -7.937   3.520 -31.141  1.00  0.00     0.009 A 
HETATM    5  C   UNL     1      -8.770   2.955 -32.140  1.00  0.00     0.048 A 
HETATM    6  C   UNL     1      -8.334   1.842 -32.871  1.00  0.00     0.050 A 
HETATM    7  C   UNL     1      -5.738   3.509 -30.136  1.00  0.00     0.032 A 
HETATM    8  C   UNL     1      -6.083   4.555 -29.279  1.00  0.00     0.002 A 
HETATM    9  C   UNL     1      -7.370   5.063 -29.310  1.00  0.00     0.001 A 
HETATM   10  C   UNL     1      -8.291   4.546 -30.221  1.00  0.00     0.015 A 
ENDROOT
BRANCH   5  11
HETATM   11  C   UNL     1     -10.133   3.446 -32.505  1.00  0.00     0.271 C 
HETATM   12  N   UNL     1     -11.173   2.545 -32.401  1.00  0.00    -0.252 N 
HETATM   13  H   UNL     1     -11.079   1.731 -31.798  1.00  0.00     0.191 HD
HETATM   14  O   UNL     1     -10.286   4.631 -32.791  1.00  0.00    -0.266 OA
BRANCH  12  15
HETATM   15  N   UNL     1     -12.470   3.037 -32.508  1.00  0.00    -0.167 N 
HETATM   16  C   UNL     1     -13.031   3.335 -33.719  1.00  0.00     0.345 C 
HETATM   17  O   UNL     1     -12.553   3.138 -34.825  1.00  0.00    -0.245 OA
HETATM   18  N   UNL     1     -14.226   3.985 -33.482  1.00  0.00    -0.323 N 
HETATM   19  C   UNL     1     -14.542   4.031 -32.063  1.00  0.00     0.117 C 
HETATM   20  H   UNL     1     -14.845   4.238 -34.244  1.00  0.00     0.165 HD
HETATM   21  C   UNL     1     -15.568   2.943 -31.710  1.00  0.00     0.041 C 
HETATM   22  C   UNL     1     -14.989   5.415 -31.597  1.00  0.00     0.041 C 
HETATM   23  C   UNL     1     -13.161   3.646 -31.485  1.00  0.00     0.275 C 
HETATM   24  C   UNL     1     -16.968   3.300 -32.209  1.00  0.00     0.003 C 
HETATM   25  C   UNL     1     -17.406   4.673 -31.707  1.00  0.00     0.000 C 
HETATM   26  C   UNL     1     -16.400   5.760 -32.072  1.00  0.00     0.003 C 
HETATM   27  O   UNL     1     -12.794   3.852 -30.336  1.00  0.00    -0.268 OA
ENDBRANCH  12  15
ENDBRANCH   5  11
BRANCH   1  28
HETATM   28  C   UNL     1      -6.573   0.088 -33.272  1.00  0.00    -0.004 A 
HETATM   29  C   UNL     1      -5.415  -0.556 -32.787  1.00  0.00     0.053 A 
HETATM   30  C   UNL     1      -4.952  -1.764 -33.333  1.00  0.00     0.102 A 
HETATM   31  C   UNL     1      -5.685  -2.359 -34.369  1.00  0.00     0.101 A 
HETATM   32  C   UNL     1      -6.810  -1.721 -34.891  1.00  0.00     0.040 A 
HETATM   33  C   UNL     1      -7.254  -0.517 -34.343  1.00  0.00     0.017 A 
BRANCH  30  34
HETATM   34  O   UNL     1      -3.818  -2.413 -32.920  1.00  0.00    -0.353 OA
HETATM   35  C   UNL     1      -3.012  -1.770 -31.943  1.00  0.00     0.210 C 
ENDBRANCH  30  34
BRANCH  31  36
HETATM   36  O   UNL     1      -5.354  -3.542 -34.981  1.00  0.00    -0.353 OA
HETATM   37  C   UNL     1      -6.475  -4.401 -35.178  1.00  0.00     0.210 C 
ENDBRANCH  31  36
ENDBRANCH   1  28
TORSDOF 5
ENDMDL
MODEL 8
REMARK VINA RESULT:      -8.9      3.572      9.556
REMARK  5 active torsions:
REMARK  status: ('A' for Active; 'I' for Inactive)
REMARK    1  A    between atoms: O_2  and  C_3 
REMARK    2  A    between atoms: C_4  and  O_5 
REMARK    3  A    between atoms: C_8  and  C_9 
REMARK    4  A    between atoms: C_13  and  C_14 
REMARK       I    between atoms: C_14  and  N_15 
REMARK    5  A    between atoms: N_15  and  N_16 
ROOT
HETATM    1  C   UNL     1      -6.552   1.036 -33.533  1.00  0.00     0.069 A 
HETATM    2  N   UNL     1      -5.783   2.141 -33.652  1.00  0.00    -0.248 NA
HETATM    3  C   UNL     1      -6.310   3.353 -33.418  1.00  0.00     0.068 A 
HETATM    4  C   UNL     1      -7.663   3.557 -33.072  1.00  0.00     0.009 A 
HETATM    5  C   UNL     1      -8.480   2.398 -33.073  1.00  0.00     0.048 A 
HETATM    6  C   UNL     1      -7.908   1.136 -33.284  1.00  0.00     0.050 A 
HETATM    7  C   UNL     1      -5.455   4.442 -33.503  1.00  0.00     0.032 A 
HETATM    8  C   UNL     1      -5.878   5.741 -33.219  1.00  0.00     0.002 A 
HETATM    9  C   UNL     1      -7.184   5.957 -32.813  1.00  0.00     0.001 A 
HETATM   10  C   UNL     1      -8.064   4.878 -32.729  1.00  0.00     0.015 A 
ENDROOT
BRANCH   5  11
HETATM   11  C   UNL     1      -9.958   2.384 -32.856  1.00  0.00     0.271 C 
HETATM   12  N   UNL     1     -10.602   3.605 -32.846  1.00  0.00    -0.252 N 
HETATM   13  H   UNL     1     -10.169   4.409 -33.294  1.00  0.00     0.191 HD
HETATM   14  O   UNL     1     -10.543   1.307 -32.786  1.00  0.00    -0.266 OA
BRANCH  12  15
HETATM   15  N   UNL     1     -11.992   3.604 -32.880  1.00  0.00    -0.167 N 
HETATM   16  C   UNL     1     -12.686   3.799 -34.044  1.00  0.00     0.345 C 
HETATM   17  O   UNL     1     -12.227   3.899 -35.170  1.00  0.00    -0.245 OA
HETATM   18  N   UNL     1     -14.020   3.947 -33.720  1.00  0.00    -0.323 N 
HETATM   19  C   UNL     1     -14.257   3.735 -32.300  1.00  0.00     0.117 C 
HETATM   20  H   UNL     1     -14.727   4.034 -34.440  1.00  0.00     0.165 HD
HETATM   21  C   UNL     1     -14.806   2.321 -32.057  1.00  0.00     0.041 C 
HETATM   22  C   UNL     1     -15.143   4.811 -31.676  1.00  0.00     0.041 C 
HETATM   23  C   UNL     1     -12.801   3.817 -31.787  1.00  0.00     0.275 C 
HETATM   24  C   UNL     1     -16.266   2.197 -32.495  1.00  0.00     0.003 C 
HETATM   25  C   UNL     1     -17.139   3.262 -31.837  1.00  0.00     0.000 C 
HETATM   26  C   UNL     1     -16.607   4.669 -32.092  1.00  0.00     0.003 C 
HETATM   27  O   UNL     1     -12.472   4.027 -30.627  1.00  0.00    -0.268 OA
ENDBRANCH  12  15
ENDBRANCH   5  11
BRANCH   1  28
HETATM   28  C   UNL     1      -5.842  -0.255 -33.645  1.00  0.00    -0.004 A 
HETATM   29  C   UNL     1      -6.288  -1.251 -34.541  1.00  0.00     0.053 A 
HETATM   30  C   UNL     1      -5.599  -2.463 -34.707  1.00  0.00     0.102 A 
HETATM   31  C   UNL     1      -4.417  -2.671 -33.983  1.00  0.00     0.101 A 
HETATM   32  C   UNL     1      -3.978  -1.718 -33.064  1.00  0.00     0.040 A 
HETATM   33  C   UNL     1      -4.678  -0.521 -32.904  1.00  0.00     0.017 A 
BRANCH  30  34
HETATM   34  O   UNL     1      -6.006  -3.474 -35.538  1.00  0.00    -0.353 OA
HETATM   35  C   UNL     1      -6.829  -4.490 -34.982  1.00  0.00     0.210 C 
ENDBRANCH  30  34
BRANCH  31  36
HETATM   36  O   UNL     1      -3.641  -3.801 -34.061  1.00  0.00    -0.353 OA
HETATM   37  C   UNL     1      -3.414  -4.411 -32.792  1.00  0.00     0.210 C 
ENDBRANCH  31  36
ENDBRANCH   1  28
TORSDOF 5
ENDMDL
MODEL 9
REMARK VINA RESULT:      -8.9      3.813      9.850
REMARK  5 active torsions:
REMARK  status: ('A' for Active; 'I' for Inactive)
REMARK    1  A    between atoms: O_2  and  C_3 
REMARK    2  A    between atoms: C_4  and  O_5 
REMARK    3  A    between atoms: C_8  and  C_9 
REMARK    4  A    between atoms: C_13  and  C_14 
REMARK       I    between atoms: C_14  and  N_15 
REMARK    5  A    between atoms: N_15  and  N_16 
ROOT
HETATM    1  C   UNL     1      -3.213   6.863 -29.217  1.00  0.00     0.069 A 
HETATM    2  N   UNL     1      -2.133   7.153 -29.977  1.00  0.00    -0.248 NA
HETATM    3  C   UNL     1      -2.159   6.911 -31.296  1.00  0.00     0.068 A 
HETATM    4  C   UNL     1      -3.262   6.331 -31.959  1.00  0.00     0.009 A 
HETATM    5  C   UNL     1      -4.334   5.922 -31.125  1.00  0.00     0.048 A 
HETATM    6  C   UNL     1      -4.308   6.213 -29.755  1.00  0.00     0.050 A 
HETATM    7  C   UNL     1      -1.040   7.282 -32.029  1.00  0.00     0.032 A 
HETATM    8  C   UNL     1      -0.981   7.137 -33.416  1.00  0.00     0.002 A 
HETATM    9  C   UNL     1      -2.077   6.631 -34.094  1.00  0.00     0.001 A 
HETATM   10  C   UNL     1      -3.209   6.243 -33.378  1.00  0.00     0.015 A 
ENDROOT
BRANCH   5  11
HETATM   11  C   UNL     1      -5.548   5.182 -31.583  1.00  0.00     0.271 C 
HETATM   12  N   UNL     1      -5.582   3.823 -31.346  1.00  0.00    -0.252 N 
HETATM   13  H   UNL     1      -4.996   3.421 -30.618  1.00  0.00     0.191 HD
HETATM   14  O   UNL     1      -6.489   5.812 -32.061  1.00  0.00    -0.266 OA
BRANCH  12  15
HETATM   15  N   UNL     1      -6.787   3.159 -31.549  1.00  0.00    -0.167 N 
HETATM   16  C   UNL     1      -7.649   2.898 -30.518  1.00  0.00     0.345 C 
HETATM   17  O   UNL     1      -7.549   3.266 -29.359  1.00  0.00    -0.245 OA
HETATM   18  N   UNL     1      -8.637   2.061 -30.997  1.00  0.00    -0.323 N 
HETATM   19  C   UNL     1      -8.506   1.835 -32.428  1.00  0.00     0.117 C 
HETATM   20  H   UNL     1      -9.424   1.793 -30.417  1.00  0.00     0.165 HD
HETATM   21  C   UNL     1      -9.493   2.723 -33.201  1.00  0.00     0.041 C 
HETATM   22  C   UNL     1      -8.634   0.363 -32.814  1.00  0.00     0.041 C 
HETATM   23  C   UNL     1      -7.067   2.362 -32.635  1.00  0.00     0.275 C 
HETATM   24  C   UNL     1     -10.929   2.214 -33.078  1.00  0.00     0.003 C 
HETATM   25  C   UNL     1     -11.041   0.751 -33.496  1.00  0.00     0.000 C 
HETATM   26  C   UNL     1     -10.075  -0.138 -32.719  1.00  0.00     0.003 C 
HETATM   27  O   UNL     1      -6.352   2.104 -33.594  1.00  0.00    -0.268 OA
ENDBRANCH  12  15
ENDBRANCH   5  11
BRANCH   1  28
HETATM   28  C   UNL     1      -3.150   7.319 -27.813  1.00  0.00    -0.004 A 
HETATM   29  C   UNL     1      -4.313   7.753 -27.140  1.00  0.00     0.053 A 
HETATM   30  C   UNL     1      -4.291   8.139 -25.791  1.00  0.00     0.102 A 
HETATM   31  C   UNL     1      -3.081   8.057 -25.087  1.00  0.00     0.101 A 
HETATM   32  C   UNL     1      -1.912   7.668 -25.740  1.00  0.00     0.040 A 
HETATM   33  C   UNL     1      -1.948   7.295 -27.085  1.00  0.00     0.017 A 
BRANCH  30  34
HETATM   34  O   UNL     1      -5.383   8.598 -25.101  1.00  0.00    -0.353 OA
HETATM   35  C   UNL     1      -5.771   9.948 -25.308  1.00  0.00     0.210 C 
ENDBRANCH  30  34
BRANCH  31  36
HETATM   36  O   UNL     1      -2.923   8.388 -23.764  1.00  0.00    -0.353 OA
HETATM   37  C   UNL     1      -1.973   9.434 -23.560  1.00  0.00     0.210 C 
ENDBRANCH  31  36
ENDBRANCH   1  28
TORSDOF 5
ENDMDL
MODEL 10
REMARK VINA RESULT:      -8.9      2.515      8.774
REMARK  5 active torsions:
REMARK  status: ('A' for Active; 'I' for Inactive)
REMARK    1  A    between atoms: O_2  and  C_3 
REMARK    2  A    between atoms: C_4  and  O_5 
REMARK    3  A    between atoms: C_8  and  C_9 
REMARK    4  A    between atoms: C_13  and  C_14 
REMARK       I    between atoms: C_14  and  N_15 
REMARK    5  A    between atoms: N_15  and  N_16 
ROOT
HETATM    1  C   UNL     1      -5.373   2.482 -32.380  1.00  0.00     0.069 A 
HETATM    2  N   UNL     1      -4.826   1.305 -32.758  1.00  0.00    -0.248 NA
HETATM    3  C   UNL     1      -5.616   0.304 -33.175  1.00  0.00     0.068 A 
HETATM    4  C   UNL     1      -7.023   0.392 -33.221  1.00  0.00     0.009 A 
HETATM    5  C   UNL     1      -7.581   1.589 -32.704  1.00  0.00     0.048 A 
HETATM    6  C   UNL     1      -6.744   2.639 -32.305  1.00  0.00     0.050 A 
HETATM    7  C   UNL     1      -4.991  -0.859 -33.602  1.00  0.00     0.032 A 
HETATM    8  C   UNL     1      -5.707  -1.940 -34.115  1.00  0.00     0.002 A 
HETATM    9  C   UNL     1      -7.084  -1.851 -34.231  1.00  0.00     0.001 A 
HETATM   10  C   UNL     1      -7.735  -0.695 -33.800  1.00  0.00     0.015 A 
ENDROOT
BRANCH   5  11
HETATM   11  C   UNL     1      -9.042   1.859 -32.540  1.00  0.00     0.271 C 
HETATM   12  N   UNL     1      -9.462   3.163 -32.711  1.00  0.00    -0.252 N 
HETATM   13  H   UNL     1      -8.890   3.813 -33.244  1.00  0.00     0.191 HD
HETATM   14  O   UNL     1      -9.808   0.917 -32.351  1.00  0.00    -0.266 OA
BRANCH  12  15
HETATM   15  N   UNL     1     -10.831   3.396 -32.795  1.00  0.00    -0.167 N 
HETATM   16  C   UNL     1     -11.478   3.471 -33.998  1.00  0.00     0.345 C 
HETATM   17  O   UNL     1     -11.008   3.264 -35.105  1.00  0.00    -0.245 OA
HETATM   18  N   UNL     1     -12.765   3.911 -33.759  1.00  0.00    -0.323 N 
HETATM   19  C   UNL     1     -13.037   4.031 -32.335  1.00  0.00     0.117 C 
HETATM   20  H   UNL     1     -13.445   3.973 -34.507  1.00  0.00     0.165 HD
HETATM   21  C   UNL     1     -13.828   2.811 -31.838  1.00  0.00     0.041 C 
HETATM   22  C   UNL     1     -13.719   5.347 -31.967  1.00  0.00     0.041 C 
HETATM   23  C   UNL     1     -11.590   3.961 -31.795  1.00  0.00     0.275 C 
HETATM   24  C   UNL     1     -15.286   2.857 -32.296  1.00  0.00     0.003 C 
HETATM   25  C   UNL     1     -15.957   4.167 -31.892  1.00  0.00     0.000 C 
HETATM   26  C   UNL     1     -15.185   5.381 -32.398  1.00  0.00     0.003 C 
HETATM   27  O   UNL     1     -11.230   4.337 -30.688  1.00  0.00    -0.268 OA
ENDBRANCH  12  15
ENDBRANCH   5  11
BRANCH   1  28
HETATM   28  C   UNL     1      -4.416   3.573 -32.099  1.00  0.00    -0.004 A 
HETATM   29  C   UNL     1      -3.243   3.723 -32.871  1.00  0.00     0.053 A 
HETATM   30  C   UNL     1      -2.346   4.783 -32.661  1.00  0.00     0.102 A 
HETATM   31  C   UNL     1      -2.646   5.734 -31.676  1.00  0.00     0.101 A 
HETATM   32  C   UNL     1      -3.778   5.585 -30.876  1.00  0.00     0.040 A 
HETATM   33  C   UNL     1      -4.657   4.522 -31.091  1.00  0.00     0.017 A 
BRANCH  30  34
HETATM   34  O   UNL     1      -1.180   4.956 -33.360  1.00  0.00    -0.353 OA
HETATM   35  C   UNL     1      -1.273   5.503 -34.667  1.00  0.00     0.210 C 
ENDBRANCH  30  34
BRANCH  31  36
HETATM   36  O   UNL     1      -1.865   6.823 -31.379  1.00  0.00    -0.353 OA
HETATM   37  C   UNL     1      -2.333   8.027 -31.984  1.00  0.00     0.210 C 
ENDBRANCH  31  36
ENDBRANCH   1  28
TORSDOF 5
ENDMDL
