MODEL 1
REMARK VINA RESULT:      -9.9      0.000      0.000
REMARK  7 active torsions:
REMARK  status: ('A' for Active; 'I' for Inactive)
REMARK    1  A    between atoms: C_2  and  N_3 
REMARK    2  A    between atoms: C_2  and  C_25 
REMARK       I    between atoms: N_3  and  C_4 
REMARK    3  A    between atoms: C_4  and  C_5 
REMARK    4  A    between atoms: C_8  and  C_9 
REMARK       I    between atoms: C_9  and  N_10 
REMARK    5  A    between atoms: N_10  and  C_11 
REMARK    6  A    between atoms: N_19  and  C_20 
REMARK    7  A    between atoms: C_33  and  O_34 
ROOT
HETATM    1  C   UNL     1      -5.290   5.174 -31.912  1.00  0.00     0.098 A 
HETATM    2  C   UNL     1      -4.961   6.034 -30.734  1.00  0.00     0.206 A 
HETATM    3  O   UNL     1      -5.625   5.960 -29.697  1.00  0.00    -0.286 OA
HETATM    4  C   UNL     1      -3.804   6.974 -30.828  1.00  0.00     0.098 A 
HETATM    5  C   UNL     1      -3.150   7.010 -32.002  1.00  0.00     0.112 A 
HETATM    6  N   UNL     1      -3.496   6.245 -33.099  1.00  0.00    -0.360 N 
HETATM    7  C   UNL     1      -4.525   5.329 -33.007  1.00  0.00     0.112 A 
ENDROOT
BRANCH   1   8
HETATM    8  C   UNL     1      -6.401   4.178 -31.939  1.00  0.00     0.257 C 
HETATM    9  N   UNL     1      -6.440   3.344 -30.857  1.00  0.00    -0.348 N 
HETATM   10  H   UNL     1      -5.725   3.454 -30.140  1.00  0.00     0.163 HD
HETATM   11  O   UNL     1      -7.211   4.130 -32.859  1.00  0.00    -0.267 OA
BRANCH   9  12
HETATM   12  C   UNL     1      -7.439   2.312 -30.646  1.00  0.00     0.114 C 
HETATM   13  C   UNL     1      -8.852   2.893 -30.660  1.00  0.00     0.037 C 
BRANCH  12  14
HETATM   14  C   UNL     1      -7.252   1.235 -31.703  1.00  0.00    -0.035 A 
HETATM   15  C   UNL     1      -5.993   0.644 -31.927  1.00  0.00     0.021 A 
HETATM   16  C   UNL     1      -5.834  -0.425 -32.822  1.00  0.00    -0.025 A 
HETATM   17  C   UNL     1      -6.954  -0.906 -33.530  1.00  0.00    -0.023 A 
HETATM   18  C   UNL     1      -4.586  -1.039 -33.015  1.00  0.00     0.015 A 
HETATM   19  C   UNL     1      -8.204  -0.300 -33.327  1.00  0.00     0.013 A 
HETATM   20  C   UNL     1      -6.794  -1.989 -34.410  1.00  0.00     0.049 A 
HETATM   21  C   UNL     1      -8.352   0.752 -32.420  1.00  0.00     0.010 A 
HETATM   22  C   UNL     1      -5.550  -2.604 -34.587  1.00  0.00     0.069 A 
HETATM   23  C   UNL     1      -4.446  -2.122 -33.889  1.00  0.00     0.037 A 
BRANCH  22  24
HETATM   24  O   UNL     1      -5.552  -3.656 -35.461  1.00  0.00    -0.356 OA
HETATM   25  C   UNL     1      -6.624  -4.583 -35.349  1.00  0.00     0.210 C 
ENDBRANCH  22  24
ENDBRANCH  12  14
ENDBRANCH   9  12
ENDBRANCH   1   8
BRANCH   4  26
HETATM   26  C   UNL     1      -3.342   7.850 -29.714  1.00  0.00     0.257 C 
HETATM   27  N   UNL     1      -2.292   7.353 -28.982  1.00  0.00    -0.352 N 
HETATM   28  H   UNL     1      -1.990   6.399 -29.182  1.00  0.00     0.163 HD
HETATM   29  O   UNL     1      -3.872   8.933 -29.481  1.00  0.00    -0.267 OA
BRANCH  27  30
HETATM   30  C   UNL     1      -1.777   7.989 -27.778  1.00  0.00     0.084 C 
HETATM   31  C   UNL     1      -1.415   6.942 -26.715  1.00  0.00     0.025 C 
HETATM   32  C   UNL     1      -0.173   6.132 -27.089  1.00  0.00     0.002 C 
HETATM   33  C   UNL     1       1.017   7.036 -27.399  1.00  0.00     0.000 C 
HETATM   34  C   UNL     1       0.683   8.066 -28.472  1.00  0.00     0.002 C 
HETATM   35  C   UNL     1      -0.567   8.873 -28.115  1.00  0.00     0.025 C 
ENDBRANCH  27  30
ENDBRANCH   4  26
BRANCH   6  36
HETATM   36  C   UNL     1      -2.633   6.255 -34.287  1.00  0.00     0.089 A 
HETATM   37  C   UNL     1      -1.134   6.370 -34.186  1.00  0.00     0.028 A 
HETATM   38  C   UNL     1      -1.753   5.080 -34.630  1.00  0.00     0.028 A 
ENDBRANCH   6  36
TORSDOF 7
ENDMDL
MODEL 2
REMARK VINA RESULT:      -9.8      2.147      3.409
REMARK  7 active torsions:
REMARK  status: ('A' for Active; 'I' for Inactive)
REMARK    1  A    between atoms: C_2  and  N_3 
REMARK    2  A    between atoms: C_2  and  C_25 
REMARK       I    between atoms: N_3  and  C_4 
REMARK    3  A    between atoms: C_4  and  C_5 
REMARK    4  A    between atoms: C_8  and  C_9 
REMARK       I    between atoms: C_9  and  N_10 
REMARK    5  A    between atoms: N_10  and  C_11 
REMARK    6  A    between atoms: N_19  and  C_20 
REMARK    7  A    between atoms: C_33  and  O_34 
ROOT
HETATM    1  C   UNL     1      -6.270   4.493 -30.948  1.00  0.00     0.098 A 
HETATM    2  C   UNL     1      -4.844   4.417 -31.393  1.00  0.00     0.206 A 
HETATM    3  O   UNL     1      -4.434   3.440 -32.023  1.00  0.00    -0.286 OA
HETATM    4  C   UNL     1      -3.928   5.553 -31.074  1.00  0.00     0.098 A 
HETATM    5  C   UNL     1      -4.451   6.568 -30.363  1.00  0.00     0.112 A 
HETATM    6  N   UNL     1      -5.757   6.602 -29.916  1.00  0.00    -0.360 N 
HETATM    7  C   UNL     1      -6.630   5.587 -30.254  1.00  0.00     0.112 A 
ENDROOT
BRANCH   1   8
HETATM    8  C   UNL     1      -7.291   3.440 -31.224  1.00  0.00     0.257 C 
HETATM    9  N   UNL     1      -7.431   3.119 -32.546  1.00  0.00    -0.348 N 
HETATM   10  H   UNL     1      -6.853   3.613 -33.224  1.00  0.00     0.163 HD
HETATM   11  O   UNL     1      -7.937   2.908 -30.327  1.00  0.00    -0.267 OA
BRANCH   9  12
HETATM   12  C   UNL     1      -8.340   2.110 -33.058  1.00  0.00     0.114 C 
HETATM   13  C   UNL     1      -9.231   2.674 -34.165  1.00  0.00     0.037 C 
BRANCH  12  14
HETATM   14  C   UNL     1      -7.524   0.918 -33.532  1.00  0.00    -0.035 A 
HETATM   15  C   UNL     1      -6.371   0.502 -32.838  1.00  0.00     0.021 A 
HETATM   16  C   UNL     1      -5.675  -0.661 -33.203  1.00  0.00    -0.025 A 
HETATM   17  C   UNL     1      -6.125  -1.419 -34.303  1.00  0.00    -0.023 A 
HETATM   18  C   UNL     1      -4.549  -1.095 -32.486  1.00  0.00     0.015 A 
HETATM   19  C   UNL     1      -7.258  -0.990 -35.012  1.00  0.00     0.013 A 
HETATM   20  C   UNL     1      -5.437  -2.592 -34.653  1.00  0.00     0.049 A 
HETATM   21  C   UNL     1      -7.953   0.160 -34.626  1.00  0.00     0.010 A 
HETATM   22  C   UNL     1      -4.324  -3.026 -33.925  1.00  0.00     0.069 A 
HETATM   23  C   UNL     1      -3.880  -2.271 -32.843  1.00  0.00     0.037 A 
BRANCH  22  24
HETATM   24  O   UNL     1      -3.769  -4.194 -34.373  1.00  0.00    -0.356 OA
HETATM   25  C   UNL     1      -4.603  -5.346 -34.365  1.00  0.00     0.210 C 
ENDBRANCH  22  24
ENDBRANCH  12  14
ENDBRANCH   9  12
ENDBRANCH   1   8
BRANCH   4  26
HETATM   26  C   UNL     1      -2.501   5.624 -31.498  1.00  0.00     0.257 C 
HETATM   27  N   UNL     1      -1.587   5.439 -30.490  1.00  0.00    -0.352 N 
HETATM   28  H   UNL     1      -1.943   5.380 -29.537  1.00  0.00     0.163 HD
HETATM   29  O   UNL     1      -2.183   5.834 -32.665  1.00  0.00    -0.267 OA
BRANCH  27  30
HETATM   30  C   UNL     1      -0.149   5.596 -30.668  1.00  0.00     0.084 C 
HETATM   31  C   UNL     1       0.225   7.075 -30.833  1.00  0.00     0.025 C 
HETATM   32  C   UNL     1       0.073   7.866 -29.533  1.00  0.00     0.002 C 
HETATM   33  C   UNL     1       0.852   7.226 -28.388  1.00  0.00     0.000 C 
HETATM   34  C   UNL     1       0.473   5.762 -28.193  1.00  0.00     0.002 C 
HETATM   35  C   UNL     1       0.608   4.963 -29.492  1.00  0.00     0.025 C 
ENDBRANCH  27  30
ENDBRANCH   4  26
BRANCH   6  36
HETATM   36  C   UNL     1      -6.267   7.817 -29.268  1.00  0.00     0.089 A 
HETATM   37  C   UNL     1      -7.493   7.802 -28.392  1.00  0.00     0.028 A 
HETATM   38  C   UNL     1      -6.144   8.025 -27.780  1.00  0.00     0.028 A 
ENDBRANCH   6  36
TORSDOF 7
ENDMDL
MODEL 3
REMARK VINA RESULT:      -9.5      2.310      4.459
REMARK  7 active torsions:
REMARK  status: ('A' for Active; 'I' for Inactive)
REMARK    1  A    between atoms: C_2  and  N_3 
REMARK    2  A    between atoms: C_2  and  C_25 
REMARK       I    between atoms: N_3  and  C_4 
REMARK    3  A    between atoms: C_4  and  C_5 
REMARK    4  A    between atoms: C_8  and  C_9 
REMARK       I    between atoms: C_9  and  N_10 
REMARK    5  A    between atoms: N_10  and  C_11 
REMARK    6  A    between atoms: N_19  and  C_20 
REMARK    7  A    between atoms: C_33  and  O_34 
ROOT
HETATM    1  C   UNL     1      -7.584   4.794 -30.423  1.00  0.00     0.098 A 
HETATM    2  C   UNL     1      -6.097   4.920 -30.517  1.00  0.00     0.206 A 
HETATM    3  O   UNL     1      -5.420   4.016 -31.014  1.00  0.00    -0.286 OA
HETATM    4  C   UNL     1      -5.445   6.165 -30.012  1.00  0.00     0.098 A 
HETATM    5  C   UNL     1      -6.254   7.089 -29.464  1.00  0.00     0.112 A 
HETATM    6  N   UNL     1      -7.621   6.938 -29.339  1.00  0.00    -0.360 N 
HETATM    7  C   UNL     1      -8.243   5.819 -29.854  1.00  0.00     0.112 A 
ENDROOT
BRANCH   1   8
HETATM    8  C   UNL     1      -8.358   3.616 -30.912  1.00  0.00     0.257 C 
HETATM    9  N   UNL     1      -8.005   3.185 -32.160  1.00  0.00    -0.348 N 
HETATM   10  H   UNL     1      -7.270   3.690 -32.653  1.00  0.00     0.163 HD
HETATM   11  O   UNL     1      -9.230   3.082 -30.234  1.00  0.00    -0.267 OA
BRANCH   9  12
HETATM   12  C   UNL     1      -8.597   2.045 -32.838  1.00  0.00     0.114 C 
HETATM   13  C   UNL     1      -9.175   2.444 -34.196  1.00  0.00     0.037 C 
BRANCH  12  14
HETATM   14  C   UNL     1      -7.544   0.955 -32.962  1.00  0.00    -0.035 A 
HETATM   15  C   UNL     1      -7.817  -0.248 -33.639  1.00  0.00     0.021 A 
HETATM   16  C   UNL     1      -6.819  -1.213 -33.852  1.00  0.00    -0.025 A 
HETATM   17  C   UNL     1      -5.518  -0.981 -33.359  1.00  0.00    -0.023 A 
HETATM   18  C   UNL     1      -7.082  -2.395 -34.561  1.00  0.00     0.015 A 
HETATM   19  C   UNL     1      -5.253   0.207 -32.660  1.00  0.00     0.013 A 
HETATM   20  C   UNL     1      -4.518  -1.939 -33.592  1.00  0.00     0.049 A 
HETATM   21  C   UNL     1      -6.251   1.166 -32.470  1.00  0.00     0.010 A 
HETATM   22  C   UNL     1      -4.785  -3.108 -34.311  1.00  0.00     0.069 A 
HETATM   23  C   UNL     1      -6.073  -3.335 -34.792  1.00  0.00     0.037 A 
BRANCH  22  24
HETATM   24  O   UNL     1      -3.709  -3.938 -34.473  1.00  0.00    -0.356 OA
HETATM   25  C   UNL     1      -3.391  -4.797 -33.386  1.00  0.00     0.210 C 
ENDBRANCH  22  24
ENDBRANCH  12  14
ENDBRANCH   9  12
ENDBRANCH   1   8
BRANCH   4  26
HETATM   26  C   UNL     1      -3.981   6.436 -30.088  1.00  0.00     0.257 C 
HETATM   27  N   UNL     1      -3.447   6.383 -31.352  1.00  0.00    -0.352 N 
HETATM   28  H   UNL     1      -4.054   6.062 -32.106  1.00  0.00     0.163 HD
HETATM   29  O   UNL     1      -3.318   6.687 -29.087  1.00  0.00    -0.267 OA
BRANCH  27  30
HETATM   30  C   UNL     1      -2.021   6.490 -31.629  1.00  0.00     0.084 C 
HETATM   31  C   UNL     1      -1.413   5.112 -31.922  1.00  0.00     0.025 C 
HETATM   32  C   UNL     1      -1.861   4.549 -33.271  1.00  0.00     0.002 C 
HETATM   33  C   UNL     1      -1.583   5.526 -34.410  1.00  0.00     0.000 C 
HETATM   34  C   UNL     1      -2.203   6.895 -34.147  1.00  0.00     0.002 C 
HETATM   35  C   UNL     1      -1.773   7.461 -32.792  1.00  0.00     0.025 C 
ENDBRANCH  27  30
ENDBRANCH   4  26
BRANCH   6  36
HETATM   36  C   UNL     1      -8.430   8.064 -28.852  1.00  0.00     0.089 A 
HETATM   37  C   UNL     1      -9.344   7.936 -27.661  1.00  0.00     0.028 A 
HETATM   38  C   UNL     1      -8.102   8.767 -27.560  1.00  0.00     0.028 A 
ENDBRANCH   6  36
TORSDOF 7
ENDMDL
MODEL 4
REMARK VINA RESULT:      -9.3      2.764     10.665
REMARK  7 active torsions:
REMARK  status: ('A' for Active; 'I' for Inactive)
REMARK    1  A    between atoms: C_2  and  N_3 
REMARK    2  A    between atoms: C_2  and  C_25 
REMARK       I    between atoms: N_3  and  C_4 
REMARK    3  A    between atoms: C_4  and  C_5 
REMARK    4  A    between atoms: C_8  and  C_9 
REMARK       I    between atoms: C_9  and  N_10 
REMARK    5  A    between atoms: N_10  and  C_11 
REMARK    6  A    between atoms: N_19  and  C_20 
REMARK    7  A    between atoms: C_33  and  O_34 
ROOT
HETATM    1  C   UNL     1      -3.549   4.921 -31.400  1.00  0.00     0.098 A 
HETATM    2  C   UNL     1      -4.308   3.637 -31.285  1.00  0.00     0.206 A 
HETATM    3  O   UNL     1      -3.720   2.579 -31.047  1.00  0.00    -0.286 OA
HETATM    4  C   UNL     1      -5.792   3.660 -31.447  1.00  0.00     0.098 A 
HETATM    5  C   UNL     1      -6.350   4.850 -31.727  1.00  0.00     0.112 A 
HETATM    6  N   UNL     1      -5.631   6.020 -31.880  1.00  0.00    -0.360 N 
HETATM    7  C   UNL     1      -4.266   6.024 -31.674  1.00  0.00     0.112 A 
ENDROOT
BRANCH   1   8
HETATM    8  C   UNL     1      -2.071   5.038 -31.234  1.00  0.00     0.257 C 
HETATM    9  N   UNL     1      -1.678   5.882 -30.233  1.00  0.00    -0.348 N 
HETATM   10  H   UNL     1      -2.400   6.361 -29.698  1.00  0.00     0.163 HD
HETATM   11  O   UNL     1      -1.285   4.414 -31.940  1.00  0.00    -0.267 OA
BRANCH   9  12
HETATM   12  C   UNL     1      -0.297   6.141 -29.866  1.00  0.00     0.114 C 
HETATM   13  C   UNL     1       0.442   6.891 -30.973  1.00  0.00     0.037 C 
BRANCH  12  14
HETATM   14  C   UNL     1      -0.282   6.902 -28.549  1.00  0.00    -0.035 A 
HETATM   15  C   UNL     1       0.927   7.183 -27.884  1.00  0.00     0.021 A 
HETATM   16  C   UNL     1       0.960   7.978 -26.727  1.00  0.00    -0.025 A 
HETATM   17  C   UNL     1      -0.246   8.490 -26.207  1.00  0.00    -0.023 A 
HETATM   18  C   UNL     1       2.170   8.289 -26.088  1.00  0.00     0.015 A 
HETATM   19  C   UNL     1      -1.454   8.188 -26.855  1.00  0.00     0.013 A 
HETATM   20  C   UNL     1      -0.206   9.301 -25.061  1.00  0.00     0.049 A 
HETATM   21  C   UNL     1      -1.471   7.410 -28.015  1.00  0.00     0.010 A 
HETATM   22  C   UNL     1       1.005   9.618 -24.437  1.00  0.00     0.069 A 
HETATM   23  C   UNL     1       2.193   9.105 -24.952  1.00  0.00     0.037 A 
BRANCH  22  24
HETATM   24  O   UNL     1       0.888  10.431 -23.343  1.00  0.00    -0.356 OA
HETATM   25  C   UNL     1      -0.366  10.430 -22.672  1.00  0.00     0.210 C 
ENDBRANCH  22  24
ENDBRANCH  12  14
ENDBRANCH   9  12
ENDBRANCH   1   8
BRANCH   4  26
HETATM   26  C   UNL     1      -6.670   2.462 -31.310  1.00  0.00     0.257 C 
HETATM   27  N   UNL     1      -6.407   1.447 -32.197  1.00  0.00    -0.352 N 
HETATM   28  H   UNL     1      -5.726   1.630 -32.933  1.00  0.00     0.163 HD
HETATM   29  O   UNL     1      -7.556   2.404 -30.462  1.00  0.00    -0.267 OA
BRANCH  27  30
HETATM   30  C   UNL     1      -7.227   0.249 -32.315  1.00  0.00     0.084 C 
HETATM   31  C   UNL     1      -8.408   0.483 -33.267  1.00  0.00     0.025 C 
HETATM   32  C   UNL     1      -7.970   0.599 -34.727  1.00  0.00     0.002 C 
HETATM   33  C   UNL     1      -7.142  -0.606 -35.164  1.00  0.00     0.000 C 
HETATM   34  C   UNL     1      -5.948  -0.838 -34.243  1.00  0.00     0.002 C 
HETATM   35  C   UNL     1      -6.374  -0.941 -32.777  1.00  0.00     0.025 C 
ENDBRANCH  27  30
ENDBRANCH   4  26
BRANCH   6  36
HETATM   36  C   UNL     1      -6.348   7.291 -32.048  1.00  0.00     0.089 A 
HETATM   37  C   UNL     1      -7.833   7.408 -31.823  1.00  0.00     0.028 A 
HETATM   38  C   UNL     1      -6.882   8.055 -30.863  1.00  0.00     0.028 A 
ENDBRANCH   6  36
TORSDOF 7
ENDMDL
MODEL 5
REMARK VINA RESULT:      -9.3      3.384      5.649
REMARK  7 active torsions:
REMARK  status: ('A' for Active; 'I' for Inactive)
REMARK    1  A    between atoms: C_2  and  N_3 
REMARK    2  A    between atoms: C_2  and  C_25 
REMARK       I    between atoms: N_3  and  C_4 
REMARK    3  A    between atoms: C_4  and  C_5 
REMARK    4  A    between atoms: C_8  and  C_9 
REMARK       I    between atoms: C_9  and  N_10 
REMARK    5  A    between atoms: N_10  and  C_11 
REMARK    6  A    between atoms: N_19  and  C_20 
REMARK    7  A    between atoms: C_33  and  O_34 
ROOT
HETATM    1  C   UNL     1      -5.836   3.277 -31.080  1.00  0.00     0.098 A 
HETATM    2  C   UNL     1      -4.705   4.157 -31.511  1.00  0.00     0.206 A 
HETATM    3  O   UNL     1      -4.753   5.376 -31.330  1.00  0.00    -0.286 OA
HETATM    4  C   UNL     1      -3.509   3.532 -32.152  1.00  0.00     0.098 A 
HETATM    5  C   UNL     1      -3.549   2.201 -32.334  1.00  0.00     0.112 A 
HETATM    6  N   UNL     1      -4.621   1.407 -31.976  1.00  0.00    -0.360 N 
HETATM    7  C   UNL     1      -5.708   1.963 -31.330  1.00  0.00     0.112 A 
ENDROOT
BRANCH   1   8
HETATM    8  C   UNL     1      -7.072   3.772 -30.408  1.00  0.00     0.257 C 
HETATM    9  N   UNL     1      -7.727   4.765 -31.083  1.00  0.00    -0.348 N 
HETATM   10  H   UNL     1      -7.328   5.090 -31.962  1.00  0.00     0.163 HD
HETATM   11  O   UNL     1      -7.464   3.309 -29.342  1.00  0.00    -0.267 OA
BRANCH   9  12
HETATM   12  C   UNL     1      -8.961   5.388 -30.643  1.00  0.00     0.114 C 
HETATM   13  C   UNL     1      -8.913   6.905 -30.818  1.00  0.00     0.037 C 
BRANCH  12  14
HETATM   14  C   UNL     1     -10.118   4.760 -31.404  1.00  0.00    -0.035 A 
HETATM   15  C   UNL     1      -9.906   4.068 -32.612  1.00  0.00     0.021 A 
HETATM   16  C   UNL     1     -10.950   3.393 -33.263  1.00  0.00    -0.025 A 
HETATM   17  C   UNL     1     -12.245   3.425 -32.708  1.00  0.00    -0.023 A 
HETATM   18  C   UNL     1     -10.729   2.671 -34.446  1.00  0.00     0.015 A 
HETATM   19  C   UNL     1     -12.463   4.137 -31.519  1.00  0.00     0.013 A 
HETATM   20  C   UNL     1     -13.283   2.731 -33.353  1.00  0.00     0.049 A 
HETATM   21  C   UNL     1     -11.411   4.790 -30.871  1.00  0.00     0.010 A 
HETATM   22  C   UNL     1     -13.052   2.002 -34.524  1.00  0.00     0.069 A 
HETATM   23  C   UNL     1     -11.771   1.978 -35.071  1.00  0.00     0.037 A 
BRANCH  22  24
HETATM   24  O   UNL     1     -14.153   1.366 -35.028  1.00  0.00    -0.356 OA
HETATM   25  C   UNL     1     -14.968   0.661 -34.099  1.00  0.00     0.210 C 
ENDBRANCH  22  24
ENDBRANCH  12  14
ENDBRANCH   9  12
ENDBRANCH   1   8
BRANCH   4  26
HETATM   26  C   UNL     1      -2.298   4.287 -32.583  1.00  0.00     0.257 C 
HETATM   27  N   UNL     1      -1.530   4.785 -31.560  1.00  0.00    -0.352 N 
HETATM   28  H   UNL     1      -1.897   4.698 -30.612  1.00  0.00     0.163 HD
HETATM   29  O   UNL     1      -2.023   4.443 -33.769  1.00  0.00    -0.267 OA
BRANCH  27  30
HETATM   30  C   UNL     1      -0.381   5.656 -31.765  1.00  0.00     0.084 C 
HETATM   31  C   UNL     1      -0.777   7.131 -31.616  1.00  0.00     0.025 C 
HETATM   32  C   UNL     1      -1.089   7.511 -30.168  1.00  0.00     0.002 C 
HETATM   33  C   UNL     1       0.061   7.153 -29.231  1.00  0.00     0.000 C 
HETATM   34  C   UNL     1       0.450   5.683 -29.347  1.00  0.00     0.002 C 
HETATM   35  C   UNL     1       0.751   5.288 -30.795  1.00  0.00     0.025 C 
ENDBRANCH  27  30
ENDBRANCH   4  26
BRANCH   6  36
HETATM   36  C   UNL     1      -4.509  -0.053 -32.090  1.00  0.00     0.089 A 
HETATM   37  C   UNL     1      -5.671  -0.914 -32.513  1.00  0.00     0.028 A 
HETATM   38  C   UNL     1      -4.502  -0.738 -33.433  1.00  0.00     0.028 A 
ENDBRANCH   6  36
TORSDOF 7
ENDMDL
MODEL 6
REMARK VINA RESULT:      -9.3      2.679     10.001
REMARK  7 active torsions:
REMARK  status: ('A' for Active; 'I' for Inactive)
REMARK    1  A    between atoms: C_2  and  N_3 
REMARK    2  A    between atoms: C_2  and  C_25 
REMARK       I    between atoms: N_3  and  C_4 
REMARK    3  A    between atoms: C_4  and  C_5 
REMARK    4  A    between atoms: C_8  and  C_9 
REMARK       I    between atoms: C_9  and  N_10 
REMARK    5  A    between atoms: N_10  and  C_11 
REMARK    6  A    between atoms: N_19  and  C_20 
REMARK    7  A    between atoms: C_33  and  O_34 
ROOT
HETATM    1  C   UNL     1      -4.820   2.193 -32.225  1.00  0.00     0.098 A 
HETATM    2  C   UNL     1      -6.094   2.914 -31.920  1.00  0.00     0.206 A 
HETATM    3  O   UNL     1      -6.080   4.100 -31.584  1.00  0.00    -0.286 OA
HETATM    4  C   UNL     1      -7.387   2.176 -32.046  1.00  0.00     0.098 A 
HETATM    5  C   UNL     1      -7.311   0.880 -32.395  1.00  0.00     0.112 A 
HETATM    6  N   UNL     1      -6.123   0.214 -32.625  1.00  0.00    -0.360 N 
HETATM    7  C   UNL     1      -4.924   0.898 -32.570  1.00  0.00     0.112 A 
ENDROOT
BRANCH   1   8
HETATM    8  C   UNL     1      -3.467   2.820 -32.162  1.00  0.00     0.257 C 
HETATM    9  N   UNL     1      -3.250   3.796 -33.094  1.00  0.00    -0.348 N 
HETATM   10  H   UNL     1      -4.001   4.008 -33.749  1.00  0.00     0.163 HD
HETATM   11  O   UNL     1      -2.631   2.484 -31.329  1.00  0.00    -0.267 OA
BRANCH   9  12
HETATM   12  C   UNL     1      -2.025   4.564 -33.216  1.00  0.00     0.114 C 
HETATM   13  C   UNL     1      -1.927   5.244 -34.582  1.00  0.00     0.037 C 
BRANCH  12  14
HETATM   14  C   UNL     1      -1.966   5.565 -32.072  1.00  0.00    -0.035 A 
HETATM   15  C   UNL     1      -0.801   5.714 -31.295  1.00  0.00     0.021 A 
HETATM   16  C   UNL     1      -0.700   6.710 -30.310  1.00  0.00    -0.025 A 
HETATM   17  C   UNL     1      -1.796   7.566 -30.079  1.00  0.00    -0.023 A 
HETATM   18  C   UNL     1       0.475   6.883 -29.562  1.00  0.00     0.015 A 
HETATM   19  C   UNL     1      -2.967   7.400 -30.835  1.00  0.00     0.013 A 
HETATM   20  C   UNL     1      -1.683   8.573 -29.106  1.00  0.00     0.049 A 
HETATM   21  C   UNL     1      -3.047   6.416 -31.825  1.00  0.00     0.010 A 
HETATM   22  C   UNL     1      -0.504   8.749 -28.375  1.00  0.00     0.069 A 
HETATM   23  C   UNL     1       0.573   7.896 -28.603  1.00  0.00     0.037 A 
BRANCH  22  24
HETATM   24  O   UNL     1      -0.537   9.780 -27.477  1.00  0.00    -0.356 OA
HETATM   25  C   UNL     1       0.445   9.769 -26.449  1.00  0.00     0.210 C 
ENDBRANCH  22  24
ENDBRANCH  12  14
ENDBRANCH   9  12
ENDBRANCH   1   8
BRANCH   4  26
HETATM   26  C   UNL     1      -8.727   2.788 -31.819  1.00  0.00     0.257 C 
HETATM   27  N   UNL     1      -9.560   2.783 -32.911  1.00  0.00    -0.352 N 
HETATM   28  H   UNL     1      -9.168   2.471 -33.799  1.00  0.00     0.163 HD
HETATM   29  O   UNL     1      -9.047   3.258 -30.731  1.00  0.00    -0.267 OA
BRANCH  27  30
HETATM   30  C   UNL     1     -10.858   3.443 -32.937  1.00  0.00     0.084 C 
HETATM   31  C   UNL     1     -10.865   4.603 -33.942  1.00  0.00     0.025 C 
HETATM   32  C   UNL     1     -10.830   4.121 -35.393  1.00  0.00     0.002 C 
HETATM   33  C   UNL     1     -11.955   3.133 -35.686  1.00  0.00     0.000 C 
HETATM   34  C   UNL     1     -11.948   1.959 -34.711  1.00  0.00     0.002 C 
HETATM   35  C   UNL     1     -11.968   2.431 -33.256  1.00  0.00     0.025 C 
ENDBRANCH  27  30
ENDBRANCH   4  26
BRANCH   6  36
HETATM   36  C   UNL     1      -6.154  -1.163 -33.135  1.00  0.00     0.089 A 
HETATM   37  C   UNL     1      -7.293  -1.678 -33.977  1.00  0.00     0.028 A 
HETATM   38  C   UNL     1      -5.947  -1.464 -34.598  1.00  0.00     0.028 A 
ENDBRANCH   6  36
TORSDOF 7
ENDMDL
MODEL 7
REMARK VINA RESULT:      -9.1      5.822      9.247
REMARK  7 active torsions:
REMARK  status: ('A' for Active; 'I' for Inactive)
REMARK    1  A    between atoms: C_2  and  N_3 
REMARK    2  A    between atoms: C_2  and  C_25 
REMARK       I    between atoms: N_3  and  C_4 
REMARK    3  A    between atoms: C_4  and  C_5 
REMARK    4  A    between atoms: C_8  and  C_9 
REMARK       I    between atoms: C_9  and  N_10 
REMARK    5  A    between atoms: N_10  and  C_11 
REMARK    6  A    between atoms: N_19  and  C_20 
REMARK    7  A    between atoms: C_33  and  O_34 
ROOT
HETATM    1  C   UNL     1     -10.378   4.578 -34.465  1.00  0.00     0.098 A 
HETATM    2  C   UNL     1     -11.140   5.814 -34.823  1.00  0.00     0.206 A 
HETATM    3  O   UNL     1     -10.570   6.905 -34.895  1.00  0.00    -0.286 OA
HETATM    4  C   UNL     1     -12.602   5.702 -35.108  1.00  0.00     0.098 A 
HETATM    5  C   UNL     1     -13.149   4.480 -34.984  1.00  0.00     0.112 A 
HETATM    6  N   UNL     1     -12.442   3.356 -34.604  1.00  0.00    -0.360 N 
HETATM    7  C   UNL     1     -11.079   3.434 -34.395  1.00  0.00     0.112 A 
ENDROOT
BRANCH   1   8
HETATM    8  C   UNL     1      -8.913   4.550 -34.182  1.00  0.00     0.257 C 
HETATM    9  N   UNL     1      -8.436   3.332 -33.785  1.00  0.00    -0.348 N 
HETATM   10  H   UNL     1      -9.096   2.561 -33.704  1.00  0.00     0.163 HD
HETATM   11  O   UNL     1      -8.206   5.544 -34.309  1.00  0.00    -0.267 OA
BRANCH   9  12
HETATM   12  C   UNL     1      -7.045   3.051 -33.477  1.00  0.00     0.114 C 
HETATM   13  C   UNL     1      -6.745   3.284 -31.997  1.00  0.00     0.037 C 
BRANCH  12  14
HETATM   14  C   UNL     1      -6.734   1.625 -33.907  1.00  0.00    -0.035 A 
HETATM   15  C   UNL     1      -5.610   0.942 -33.404  1.00  0.00     0.021 A 
HETATM   16  C   UNL     1      -5.375  -0.408 -33.710  1.00  0.00    -0.025 A 
HETATM   17  C   UNL     1      -6.273  -1.090 -34.555  1.00  0.00    -0.023 A 
HETATM   18  C   UNL     1      -4.276  -1.099 -33.177  1.00  0.00     0.015 A 
HETATM   19  C   UNL     1      -7.379  -0.402 -35.078  1.00  0.00     0.013 A 
HETATM   20  C   UNL     1      -6.046  -2.447 -34.842  1.00  0.00     0.049 A 
HETATM   21  C   UNL     1      -7.610   0.937 -34.752  1.00  0.00     0.010 A 
HETATM   22  C   UNL     1      -4.956  -3.132 -34.297  1.00  0.00     0.069 A 
HETATM   23  C   UNL     1      -4.069  -2.452 -33.466  1.00  0.00     0.037 A 
BRANCH  22  24
HETATM   24  O   UNL     1      -4.874  -4.451 -34.652  1.00  0.00    -0.356 OA
HETATM   25  C   UNL     1      -4.102  -5.297 -33.809  1.00  0.00     0.210 C 
ENDBRANCH  22  24
ENDBRANCH  12  14
ENDBRANCH   9  12
ENDBRANCH   1   8
BRANCH   4  26
HETATM   26  C   UNL     1     -13.466   6.845 -35.521  1.00  0.00     0.257 C 
HETATM   27  N   UNL     1     -13.107   7.446 -36.703  1.00  0.00    -0.352 N 
HETATM   28  H   UNL     1     -12.235   7.145 -37.137  1.00  0.00     0.163 HD
HETATM   29  O   UNL     1     -14.424   7.208 -34.845  1.00  0.00    -0.267 OA
BRANCH  27  30
HETATM   30  C   UNL     1     -13.738   8.654 -37.216  1.00  0.00     0.084 C 
HETATM   31  C   UNL     1     -13.050   9.910 -36.666  1.00  0.00     0.025 C 
HETATM   32  C   UNL     1     -11.655  10.120 -37.256  1.00  0.00     0.002 C 
HETATM   33  C   UNL     1     -11.683  10.132 -38.781  1.00  0.00     0.000 C 
HETATM   34  C   UNL     1     -12.341   8.877 -39.346  1.00  0.00     0.002 C 
HETATM   35  C   UNL     1     -13.733   8.649 -38.752  1.00  0.00     0.025 C 
ENDBRANCH  27  30
ENDBRANCH   4  26
BRANCH   6  36
HETATM   36  C   UNL     1     -13.102   2.044 -34.632  1.00  0.00     0.089 A 
HETATM   37  C   UNL     1     -12.583   0.870 -33.843  1.00  0.00     0.028 A 
HETATM   38  C   UNL     1     -13.870   1.524 -33.444  1.00  0.00     0.028 A 
ENDBRANCH   6  36
TORSDOF 7
ENDMDL
MODEL 8
REMARK VINA RESULT:      -9.1      2.642     10.465
REMARK  7 active torsions:
REMARK  status: ('A' for Active; 'I' for Inactive)
REMARK    1  A    between atoms: C_2  and  N_3 
REMARK    2  A    between atoms: C_2  and  C_25 
REMARK       I    between atoms: N_3  and  C_4 
REMARK    3  A    between atoms: C_4  and  C_5 
REMARK    4  A    between atoms: C_8  and  C_9 
REMARK       I    between atoms: C_9  and  N_10 
REMARK    5  A    between atoms: N_10  and  C_11 
REMARK    6  A    between atoms: N_19  and  C_20 
REMARK    7  A    between atoms: C_33  and  O_34 
ROOT
HETATM    1  C   UNL     1      -4.107   5.472 -30.864  1.00  0.00     0.098 A 
HETATM    2  C   UNL     1      -4.483   4.027 -30.939  1.00  0.00     0.206 A 
HETATM    3  O   UNL     1      -5.055   3.477 -29.995  1.00  0.00    -0.286 OA
HETATM    4  C   UNL     1      -4.168   3.263 -32.183  1.00  0.00     0.098 A 
HETATM    5  C   UNL     1      -3.522   3.932 -33.154  1.00  0.00     0.112 A 
HETATM    6  N   UNL     1      -3.137   5.254 -33.052  1.00  0.00    -0.360 N 
HETATM    7  C   UNL     1      -3.473   5.988 -31.932  1.00  0.00     0.112 A 
ENDROOT
BRANCH   1   8
HETATM    8  C   UNL     1      -4.387   6.351 -29.692  1.00  0.00     0.257 C 
HETATM    9  N   UNL     1      -3.315   6.556 -28.868  1.00  0.00    -0.348 N 
HETATM   10  H   UNL     1      -2.435   6.100 -29.103  1.00  0.00     0.163 HD
HETATM   11  O   UNL     1      -5.491   6.851 -29.501  1.00  0.00    -0.267 OA
BRANCH   9  12
HETATM   12  C   UNL     1      -3.334   7.390 -27.680  1.00  0.00     0.114 C 
HETATM   13  C   UNL     1      -4.092   6.714 -26.538  1.00  0.00     0.037 C 
BRANCH  12  14
HETATM   14  C   UNL     1      -1.900   7.722 -27.299  1.00  0.00    -0.035 A 
HETATM   15  C   UNL     1      -1.613   8.594 -26.231  1.00  0.00     0.021 A 
HETATM   16  C   UNL     1      -0.295   8.820 -25.803  1.00  0.00    -0.025 A 
HETATM   17  C   UNL     1       0.768   8.177 -26.470  1.00  0.00    -0.023 A 
HETATM   18  C   UNL     1      -0.013   9.659 -24.714  1.00  0.00     0.015 A 
HETATM   19  C   UNL     1       0.484   7.329 -27.552  1.00  0.00     0.013 A 
HETATM   20  C   UNL     1       2.083   8.390 -26.026  1.00  0.00     0.049 A 
HETATM   21  C   UNL     1      -0.834   7.099 -27.957  1.00  0.00     0.010 A 
HETATM   22  C   UNL     1       2.355   9.217 -24.931  1.00  0.00     0.069 A 
HETATM   23  C   UNL     1       1.302   9.854 -24.279  1.00  0.00     0.037 A 
BRANCH  22  24
HETATM   24  O   UNL     1       3.680   9.314 -24.605  1.00  0.00    -0.356 OA
HETATM   25  C   UNL     1       4.063   8.837 -23.321  1.00  0.00     0.210 C 
ENDBRANCH  22  24
ENDBRANCH  12  14
ENDBRANCH   9  12
ENDBRANCH   1   8
BRANCH   4  26
HETATM   26  C   UNL     1      -4.530   1.834 -32.404  1.00  0.00     0.257 C 
HETATM   27  N   UNL     1      -5.866   1.600 -32.620  1.00  0.00    -0.352 N 
HETATM   28  H   UNL     1      -6.505   2.387 -32.505  1.00  0.00     0.163 HD
HETATM   29  O   UNL     1      -3.684   0.944 -32.391  1.00  0.00    -0.267 OA
BRANCH  27  30
HETATM   30  C   UNL     1      -6.443   0.268 -32.730  1.00  0.00     0.084 C 
HETATM   31  C   UNL     1      -7.942   0.290 -32.396  1.00  0.00     0.025 C 
HETATM   32  C   UNL     1      -8.772   0.982 -33.476  1.00  0.00     0.002 C 
HETATM   33  C   UNL     1      -8.525   0.376 -34.854  1.00  0.00     0.000 C 
HETATM   34  C   UNL     1      -7.043   0.370 -35.213  1.00  0.00     0.002 C 
HETATM   35  C   UNL     1      -6.199  -0.309 -34.132  1.00  0.00     0.025 C 
ENDBRANCH  27  30
ENDBRANCH   4  26
BRANCH   6  36
HETATM   36  C   UNL     1      -2.560   5.931 -34.221  1.00  0.00     0.089 A 
HETATM   37  C   UNL     1      -1.552   7.043 -34.086  1.00  0.00     0.028 A 
HETATM   38  C   UNL     1      -1.125   5.713 -34.628  1.00  0.00     0.028 A 
ENDBRANCH   6  36
TORSDOF 7
ENDMDL
MODEL 9
REMARK VINA RESULT:      -9.0      1.551      1.982
REMARK  7 active torsions:
REMARK  status: ('A' for Active; 'I' for Inactive)
REMARK    1  A    between atoms: C_2  and  N_3 
REMARK    2  A    between atoms: C_2  and  C_25 
REMARK       I    between atoms: N_3  and  C_4 
REMARK    3  A    between atoms: C_4  and  C_5 
REMARK    4  A    between atoms: C_8  and  C_9 
REMARK       I    between atoms: C_9  and  N_10 
REMARK    5  A    between atoms: N_10  and  C_11 
REMARK    6  A    between atoms: N_19  and  C_20 
REMARK    7  A    between atoms: C_33  and  O_34 
ROOT
HETATM    1  C   UNL     1      -4.948   5.497 -31.531  1.00  0.00     0.098 A 
HETATM    2  C   UNL     1      -4.645   6.648 -30.625  1.00  0.00     0.206 A 
HETATM    3  O   UNL     1      -5.488   7.055 -29.823  1.00  0.00    -0.286 OA
HETATM    4  C   UNL     1      -3.297   7.287 -30.698  1.00  0.00     0.098 A 
HETATM    5  C   UNL     1      -2.446   6.797 -31.616  1.00  0.00     0.112 A 
HETATM    6  N   UNL     1      -2.757   5.766 -32.481  1.00  0.00    -0.360 N 
HETATM    7  C   UNL     1      -3.978   5.128 -32.385  1.00  0.00     0.112 A 
ENDROOT
BRANCH   1   8
HETATM    8  C   UNL     1      -6.244   4.758 -31.540  1.00  0.00     0.257 C 
HETATM    9  N   UNL     1      -6.589   4.235 -32.755  1.00  0.00    -0.348 N 
HETATM   10  H   UNL     1      -5.961   4.393 -33.542  1.00  0.00     0.163 HD
HETATM   11  O   UNL     1      -6.928   4.629 -30.530  1.00  0.00    -0.267 OA
BRANCH   9  12
HETATM   12  C   UNL     1      -7.789   3.457 -33.009  1.00  0.00     0.114 C 
HETATM   13  C   UNL     1      -8.745   4.196 -33.944  1.00  0.00     0.037 C 
BRANCH  12  14
HETATM   14  C   UNL     1      -7.378   2.102 -33.564  1.00  0.00    -0.035 A 
HETATM   15  C   UNL     1      -6.200   1.463 -33.131  1.00  0.00     0.021 A 
HETATM   16  C   UNL     1      -5.870   0.167 -33.556  1.00  0.00    -0.025 A 
HETATM   17  C   UNL     1      -6.726  -0.505 -34.453  1.00  0.00    -0.023 A 
HETATM   18  C   UNL     1      -4.716  -0.484 -33.092  1.00  0.00     0.015 A 
HETATM   19  C   UNL     1      -7.886   0.142 -34.906  1.00  0.00     0.013 A 
HETATM   20  C   UNL     1      -6.402  -1.810 -34.859  1.00  0.00     0.049 A 
HETATM   21  C   UNL     1      -8.212   1.426 -34.461  1.00  0.00     0.010 A 
HETATM   22  C   UNL     1      -5.257  -2.457 -34.383  1.00  0.00     0.069 A 
HETATM   23  C   UNL     1      -4.412  -1.787 -33.501  1.00  0.00     0.037 A 
BRANCH  22  24
HETATM   24  O   UNL     1      -5.083  -3.729 -34.853  1.00  0.00    -0.356 OA
HETATM   25  C   UNL     1      -6.252  -4.432 -35.254  1.00  0.00     0.210 C 
ENDBRANCH  22  24
ENDBRANCH  12  14
ENDBRANCH   9  12
ENDBRANCH   1   8
BRANCH   4  26
HETATM   26  C   UNL     1      -2.851   8.407 -29.821  1.00  0.00     0.257 C 
HETATM   27  N   UNL     1      -3.146   8.254 -28.489  1.00  0.00    -0.352 N 
HETATM   28  H   UNL     1      -3.730   7.460 -28.225  1.00  0.00     0.163 HD
HETATM   29  O   UNL     1      -2.265   9.387 -30.273  1.00  0.00    -0.267 OA
BRANCH  27  30
HETATM   30  C   UNL     1      -2.913   9.287 -27.488  1.00  0.00     0.084 C 
HETATM   31  C   UNL     1      -4.076   9.354 -26.488  1.00  0.00     0.025 C 
HETATM   32  C   UNL     1      -4.115   8.143 -25.554  1.00  0.00     0.002 C 
HETATM   33  C   UNL     1      -2.784   7.939 -24.838  1.00  0.00     0.000 C 
HETATM   34  C   UNL     1      -1.620   7.844 -25.820  1.00  0.00     0.002 C 
HETATM   35  C   UNL     1      -1.579   9.044 -26.768  1.00  0.00     0.025 C 
ENDBRANCH  27  30
ENDBRANCH   4  26
BRANCH   6  36
HETATM   36  C   UNL     1      -1.712   5.213 -33.352  1.00  0.00     0.089 A 
HETATM   37  C   UNL     1      -2.004   4.740 -34.752  1.00  0.00     0.028 A 
HETATM   38  C   UNL     1      -1.192   5.980 -34.540  1.00  0.00     0.028 A 
ENDBRANCH   6  36
TORSDOF 7
ENDMDL
MODEL 10
REMARK VINA RESULT:      -8.9      2.241      3.195
REMARK  7 active torsions:
REMARK  status: ('A' for Active; 'I' for Inactive)
REMARK    1  A    between atoms: C_2  and  N_3 
REMARK    2  A    between atoms: C_2  and  C_25 
REMARK       I    between atoms: N_3  and  C_4 
REMARK    3  A    between atoms: C_4  and  C_5 
REMARK    4  A    between atoms: C_8  and  C_9 
REMARK       I    between atoms: C_9  and  N_10 
REMARK    5  A    between atoms: N_10  and  C_11 
REMARK    6  A    between atoms: N_19  and  C_20 
REMARK    7  A    between atoms: C_33  and  O_34 
ROOT
HETATM    1  C   UNL     1      -5.933   6.234 -31.281  1.00  0.00     0.098 A 
HETATM    2  C   UNL     1      -4.443   6.311 -31.385  1.00  0.00     0.206 A 
HETATM    3  O   UNL     1      -3.768   5.287 -31.509  1.00  0.00    -0.286 OA
HETATM    4  C   UNL     1      -3.787   7.653 -31.352  1.00  0.00     0.098 A 
HETATM    5  C   UNL     1      -4.594   8.715 -31.190  1.00  0.00     0.112 A 
HETATM    6  N   UNL     1      -5.965   8.625 -31.045  1.00  0.00    -0.360 N 
HETATM    7  C   UNL     1      -6.590   7.397 -31.133  1.00  0.00     0.112 A 
ENDROOT
BRANCH   1   8
HETATM    8  C   UNL     1      -6.711   4.961 -31.326  1.00  0.00     0.257 C 
HETATM    9  N   UNL     1      -6.663   4.226 -30.174  1.00  0.00    -0.348 N 
HETATM   10  H   UNL     1      -6.108   4.585 -29.399  1.00  0.00     0.163 HD
HETATM   11  O   UNL     1      -7.346   4.621 -32.319  1.00  0.00    -0.267 OA
BRANCH   9  12
HETATM   12  C   UNL     1      -7.356   2.967 -29.969  1.00  0.00     0.114 C 
HETATM   13  C   UNL     1      -8.810   3.050 -30.430  1.00  0.00     0.037 C 
BRANCH  12  14
HETATM   14  C   UNL     1      -6.588   1.870 -30.690  1.00  0.00    -0.035 A 
HETATM   15  C   UNL     1      -7.233   0.998 -31.588  1.00  0.00     0.021 A 
HETATM   16  C   UNL     1      -6.514   0.055 -32.339  1.00  0.00    -0.025 A 
HETATM   17  C   UNL     1      -5.117  -0.037 -32.175  1.00  0.00    -0.023 A 
HETATM   18  C   UNL     1      -7.154  -0.786 -33.263  1.00  0.00     0.015 A 
HETATM   19  C   UNL     1      -4.477   0.813 -31.260  1.00  0.00     0.013 A 
HETATM   20  C   UNL     1      -4.399  -0.969 -32.944  1.00  0.00     0.049 A 
HETATM   21  C   UNL     1      -5.203   1.759 -30.532  1.00  0.00     0.010 A 
HETATM   22  C   UNL     1      -5.041  -1.794 -33.872  1.00  0.00     0.069 A 
HETATM   23  C   UNL     1      -6.423  -1.703 -34.026  1.00  0.00     0.037 A 
BRANCH  22  24
HETATM   24  O   UNL     1      -4.210  -2.637 -34.558  1.00  0.00    -0.356 OA
HETATM   25  C   UNL     1      -4.245  -4.011 -34.192  1.00  0.00     0.210 C 
ENDBRANCH  22  24
ENDBRANCH  12  14
ENDBRANCH   9  12
ENDBRANCH   1   8
BRANCH   4  26
HETATM   26  C   UNL     1      -2.319   7.872 -31.493  1.00  0.00     0.257 C 
HETATM   27  N   UNL     1      -1.545   7.246 -30.548  1.00  0.00    -0.352 N 
HETATM   28  H   UNL     1      -2.027   6.783 -29.777  1.00  0.00     0.163 HD
HETATM   29  O   UNL     1      -1.853   8.563 -32.394  1.00  0.00    -0.267 OA
BRANCH  27  30
HETATM   30  C   UNL     1      -0.106   7.434 -30.431  1.00  0.00     0.084 C 
HETATM   31  C   UNL     1       0.337   7.391 -28.962  1.00  0.00     0.025 C 
HETATM   32  C   UNL     1       0.246   5.987 -28.364  1.00  0.00     0.002 C 
HETATM   33  C   UNL     1       1.014   4.967 -29.200  1.00  0.00     0.000 C 
HETATM   34  C   UNL     1       0.569   4.978 -30.658  1.00  0.00     0.002 C 
HETATM   35  C   UNL     1       0.642   6.382 -31.263  1.00  0.00     0.025 C 
ENDBRANCH  27  30
ENDBRANCH   4  26
BRANCH   6  36
HETATM   36  C   UNL     1      -6.770   9.853 -31.013  1.00  0.00     0.089 A 
HETATM   37  C   UNL     1      -6.326  11.119 -31.700  1.00  0.00     0.028 A 
HETATM   38  C   UNL     1      -7.495  10.350 -32.237  1.00  0.00     0.028 A 
ENDBRANCH   6  36
TORSDOF 7
ENDMDL
