MODEL 1
REMARK VINA RESULT:      -9.8      0.000      0.000
REMARK  7 active torsions:
REMARK  status: ('A' for Active; 'I' for Inactive)
REMARK    1  A    between atoms: C_2  and  C_3 
REMARK    2  A    between atoms: C_6  and  C_7 
REMARK       I    between atoms: C_7  and  N_8 
REMARK    3  A    between atoms: C_14  and  C_15 
REMARK       I    between atoms: C_15  and  N_16 
REMARK    4  A    between atoms: N_16  and  C_17 
REMARK    5  A    between atoms: C_17  and  C_18 
REMARK       I    between atoms: N_25  and  C_26 
REMARK    6  A    between atoms: C_26  and  C_27 
REMARK    7  A    between atoms: C_30  and  O_31 
ROOT
HETATM    1  C   UNL     1      -4.126   7.225 -30.979  1.00  0.00     0.253 C 
HETATM    2  N   UNL     1      -5.205   6.327 -30.905  1.00  0.00    -0.348 N 
HETATM    3  C   UNL     1      -5.137   5.077 -30.156  1.00  0.00     0.131 C 
HETATM    4  C   UNL     1      -6.497   4.544 -29.756  1.00  0.00     0.081 C 
HETATM    5  C   UNL     1      -7.528   4.497 -30.892  1.00  0.00     0.142 C 
HETATM    6  O   UNL     1      -8.801   4.461 -30.179  1.00  0.00    -0.358 OA
HETATM    7  C   UNL     1      -9.533   3.303 -30.573  1.00  0.00     0.206 C 
HETATM    8  C   UNL     1      -8.521   2.342 -31.157  1.00  0.00     0.206 C 
HETATM    9  N   UNL     1      -7.514   3.256 -31.686  1.00  0.00    -0.300 N 
HETATM   10  C   UNL     1      -6.420   2.892 -32.455  1.00  0.00     0.257 C 
HETATM   11  O   UNL     1      -5.507   3.653 -32.755  1.00  0.00    -0.267 OA
HETATM   12  C   UNL     1      -7.542   5.809 -31.684  1.00  0.00     0.081 C 
HETATM   13  C   UNL     1      -6.175   6.407 -31.994  1.00  0.00     0.131 C 
HETATM   14  O   UNL     1      -4.161   8.276 -31.618  1.00  0.00    -0.267 OA
ENDROOT
BRANCH   8  15
HETATM   15  C   UNL     1      -9.321   1.381 -32.038  1.00  0.00     0.243 C 
HETATM   16  N   UNL     1     -10.087   1.927 -33.032  1.00  0.00    -0.354 N 
HETATM   17  H   UNL     1     -10.045   2.915 -33.264  1.00  0.00     0.162 HD
HETATM   18  O   UNL     1      -9.367   0.181 -31.762  1.00  0.00    -0.271 OA
BRANCH  16  19
HETATM   19  C   UNL     1     -10.893   1.087 -33.895  1.00  0.00     0.181 C 
BRANCH  19  20
HETATM   20  C   UNL     1     -12.377   1.262 -33.667  1.00  0.00     0.051 A 
HETATM   21  N   UNL     1     -12.810   2.436 -33.132  1.00  0.00    -0.264 NA
HETATM   22  C   UNL     1     -14.140   2.562 -32.927  1.00  0.00     0.117 A 
HETATM   23  C   UNL     1     -15.065   1.572 -33.217  1.00  0.00     0.019 A 
HETATM   24  C   UNL     1     -14.604   0.374 -33.748  1.00  0.00     0.003 A 
HETATM   25  C   UNL     1     -13.241   0.212 -33.973  1.00  0.00     0.029 A 
ENDBRANCH  19  20
ENDBRANCH  16  19
ENDBRANCH   8  15
BRANCH  10  26
HETATM   26  C   UNL     1      -6.323   1.541 -33.041  1.00  0.00     0.032 A 
HETATM   27  C   UNL     1      -6.795   1.367 -34.344  1.00  0.00     0.020 A 
HETATM   28  C   UNL     1      -6.681   0.125 -34.965  1.00  0.00     0.038 A 
HETATM   29  C   UNL     1      -6.072  -0.943 -34.304  1.00  0.00     0.068 A 
HETATM   30  C   UNL     1      -5.579  -0.758 -33.008  1.00  0.00     0.038 A 
HETATM   31  C   UNL     1      -5.692   0.488 -32.378  1.00  0.00     0.020 A 
BRANCH  29  32
HETATM   32  O   UNL     1      -6.017  -2.098 -35.031  1.00  0.00    -0.356 OA
HETATM   33  C   UNL     1      -4.990  -3.022 -34.694  1.00  0.00     0.210 C 
ENDBRANCH  29  32
ENDBRANCH  10  26
BRANCH   1  34
HETATM   34  C   UNL     1      -2.866   6.911 -30.265  1.00  0.00     0.032 A 
HETATM   35  C   UNL     1      -1.855   6.178 -30.893  1.00  0.00     0.017 A 
HETATM   36  C   UNL     1      -0.668   5.904 -30.212  1.00  0.00     0.008 A 
HETATM   37  C   UNL     1      -0.464   6.393 -28.912  1.00  0.00    -0.059 A 
HETATM   38  C   UNL     1      -1.469   7.163 -28.309  1.00  0.00     0.008 A 
HETATM   39  C   UNL     1      -2.665   7.426 -28.983  1.00  0.00     0.017 A 
BRANCH  37  40
HETATM   40  C   UNL     1       0.826   6.106 -28.183  1.00  0.00     0.034 C 
HETATM   41  C   UNL     1       1.133   7.144 -27.112  1.00  0.00     0.010 C 
ENDBRANCH  37  40
ENDBRANCH   1  34
TORSDOF 7
ENDMDL
MODEL 2
REMARK VINA RESULT:      -9.4      1.724      2.076
REMARK  7 active torsions:
REMARK  status: ('A' for Active; 'I' for Inactive)
REMARK    1  A    between atoms: C_2  and  C_3 
REMARK    2  A    between atoms: C_6  and  C_7 
REMARK       I    between atoms: C_7  and  N_8 
REMARK    3  A    between atoms: C_14  and  C_15 
REMARK       I    between atoms: C_15  and  N_16 
REMARK    4  A    between atoms: N_16  and  C_17 
REMARK    5  A    between atoms: C_17  and  C_18 
REMARK       I    between atoms: N_25  and  C_26 
REMARK    6  A    between atoms: C_26  and  C_27 
REMARK    7  A    between atoms: C_30  and  O_31 
ROOT
HETATM    1  C   UNL     1      -2.545   7.832 -31.424  1.00  0.00     0.253 C 
HETATM    2  N   UNL     1      -3.665   6.988 -31.331  1.00  0.00    -0.348 N 
HETATM    3  C   UNL     1      -3.862   6.060 -30.223  1.00  0.00     0.131 C 
HETATM    4  C   UNL     1      -5.310   5.663 -30.024  1.00  0.00     0.081 C 
HETATM    5  C   UNL     1      -6.035   5.219 -31.302  1.00  0.00     0.142 C 
HETATM    6  O   UNL     1      -7.443   5.396 -30.959  1.00  0.00    -0.358 OA
HETATM    7  C   UNL     1      -8.130   4.158 -31.121  1.00  0.00     0.206 C 
HETATM    8  C   UNL     1      -7.071   3.079 -31.086  1.00  0.00     0.206 C 
HETATM    9  N   UNL     1      -5.909   3.785 -31.615  1.00  0.00    -0.300 N 
HETATM   10  C   UNL     1      -4.687   3.208 -31.923  1.00  0.00     0.257 C 
HETATM   11  O   UNL     1      -3.681   3.845 -32.217  1.00  0.00    -0.267 OA
HETATM   12  C   UNL     1      -5.772   6.192 -32.456  1.00  0.00     0.081 C 
HETATM   13  C   UNL     1      -4.335   6.680 -32.593  1.00  0.00     0.131 C 
HETATM   14  O   UNL     1      -2.356   8.609 -32.358  1.00  0.00    -0.267 OA
ENDROOT
BRANCH   8  15
HETATM   15  C   UNL     1      -7.693   1.863 -31.774  1.00  0.00     0.243 C 
HETATM   16  N   UNL     1      -8.346   2.074 -32.958  1.00  0.00    -0.354 N 
HETATM   17  H   UNL     1      -8.325   2.972 -33.432  1.00  0.00     0.162 HD
HETATM   18  O   UNL     1      -7.714   0.771 -31.203  1.00  0.00    -0.271 OA
BRANCH  16  19
HETATM   19  C   UNL     1      -8.983   0.979 -33.661  1.00  0.00     0.181 C 
BRANCH  19  20
HETATM   20  C   UNL     1     -10.439   1.246 -33.969  1.00  0.00     0.051 A 
HETATM   21  N   UNL     1     -10.749   2.358 -34.689  1.00  0.00    -0.264 NA
HETATM   22  C   UNL     1     -12.059   2.580 -34.939  1.00  0.00     0.117 A 
HETATM   23  C   UNL     1     -13.082   1.754 -34.500  1.00  0.00     0.019 A 
HETATM   24  C   UNL     1     -12.748   0.632 -33.753  1.00  0.00     0.003 A 
HETATM   25  C   UNL     1     -11.409   0.373 -33.478  1.00  0.00     0.029 A 
ENDBRANCH  19  20
ENDBRANCH  16  19
ENDBRANCH   8  15
BRANCH  10  26
HETATM   26  C   UNL     1      -4.538   1.742 -31.990  1.00  0.00     0.032 A 
HETATM   27  C   UNL     1      -4.892   1.111 -33.186  1.00  0.00     0.020 A 
HETATM   28  C   UNL     1      -4.723  -0.265 -33.322  1.00  0.00     0.038 A 
HETATM   29  C   UNL     1      -4.175  -1.017 -32.281  1.00  0.00     0.068 A 
HETATM   30  C   UNL     1      -3.800  -0.378 -31.095  1.00  0.00     0.038 A 
HETATM   31  C   UNL     1      -3.968   1.004 -30.951  1.00  0.00     0.020 A 
BRANCH  29  32
HETATM   32  O   UNL     1      -4.055  -2.351 -32.552  1.00  0.00    -0.356 OA
HETATM   33  C   UNL     1      -3.037  -3.060 -31.857  1.00  0.00     0.210 C 
ENDBRANCH  29  32
ENDBRANCH  10  26
BRANCH   1  34
HETATM   34  C   UNL     1      -1.519   7.800 -30.355  1.00  0.00     0.032 A 
HETATM   35  C   UNL     1      -0.375   7.007 -30.489  1.00  0.00     0.017 A 
HETATM   36  C   UNL     1       0.589   7.000 -29.480  1.00  0.00     0.008 A 
HETATM   37  C   UNL     1       0.440   7.815 -28.347  1.00  0.00    -0.059 A 
HETATM   38  C   UNL     1      -0.692   8.637 -28.244  1.00  0.00     0.008 A 
HETATM   39  C   UNL     1      -1.667   8.634 -29.245  1.00  0.00     0.017 A 
BRANCH  37  40
HETATM   40  C   UNL     1       1.490   7.815 -27.263  1.00  0.00     0.034 C 
HETATM   41  C   UNL     1       1.059   8.602 -26.034  1.00  0.00     0.010 C 
ENDBRANCH  37  40
ENDBRANCH   1  34
TORSDOF 7
ENDMDL
MODEL 3
REMARK VINA RESULT:      -9.1      3.710      6.485
REMARK  7 active torsions:
REMARK  status: ('A' for Active; 'I' for Inactive)
REMARK    1  A    between atoms: C_2  and  C_3 
REMARK    2  A    between atoms: C_6  and  C_7 
REMARK       I    between atoms: C_7  and  N_8 
REMARK    3  A    between atoms: C_14  and  C_15 
REMARK       I    between atoms: C_15  and  N_16 
REMARK    4  A    between atoms: N_16  and  C_17 
REMARK    5  A    between atoms: C_17  and  C_18 
REMARK       I    between atoms: N_25  and  C_26 
REMARK    6  A    between atoms: C_26  and  C_27 
REMARK    7  A    between atoms: C_30  and  O_31 
ROOT
HETATM    1  C   UNL     1      -3.983   1.660 -32.577  1.00  0.00     0.253 C 
HETATM    2  N   UNL     1      -5.173   2.191 -32.050  1.00  0.00    -0.348 N 
HETATM    3  C   UNL     1      -6.234   1.353 -31.503  1.00  0.00     0.131 C 
HETATM    4  C   UNL     1      -7.138   2.087 -30.535  1.00  0.00     0.081 C 
HETATM    5  C   UNL     1      -7.656   3.441 -31.040  1.00  0.00     0.142 C 
HETATM    6  O   UNL     1      -8.030   4.130 -29.809  1.00  0.00    -0.358 OA
HETATM    7  C   UNL     1      -9.402   4.508 -29.874  1.00  0.00     0.206 C 
HETATM    8  C   UNL     1     -10.033   3.626 -30.928  1.00  0.00     0.206 C 
HETATM    9  N   UNL     1      -8.905   3.370 -31.818  1.00  0.00    -0.300 N 
HETATM   10  C   UNL     1      -8.972   2.715 -33.037  1.00  0.00     0.257 C 
HETATM   11  O   UNL     1      -7.991   2.376 -33.690  1.00  0.00    -0.267 OA
HETATM   12  C   UNL     1      -6.525   4.277 -31.647  1.00  0.00     0.081 C 
HETATM   13  C   UNL     1      -5.547   3.517 -32.536  1.00  0.00     0.131 C 
HETATM   14  O   UNL     1      -3.085   2.351 -33.056  1.00  0.00    -0.267 OA
ENDROOT
BRANCH   8  15
HETATM   15  C   UNL     1     -11.301   4.356 -31.377  1.00  0.00     0.243 C 
HETATM   16  N   UNL     1     -11.194   5.691 -31.653  1.00  0.00    -0.354 N 
HETATM   17  H   UNL     1     -10.297   6.166 -31.680  1.00  0.00     0.162 HD
HETATM   18  O   UNL     1     -12.390   3.779 -31.350  1.00  0.00    -0.271 OA
BRANCH  16  19
HETATM   19  C   UNL     1     -12.353   6.460 -32.061  1.00  0.00     0.181 C 
BRANCH  19  20
HETATM   20  C   UNL     1     -12.466   6.600 -33.562  1.00  0.00     0.051 A 
HETATM   21  N   UNL     1     -11.375   7.030 -34.251  1.00  0.00    -0.264 NA
HETATM   22  C   UNL     1     -11.507   7.158 -35.591  1.00  0.00     0.117 A 
HETATM   23  C   UNL     1     -12.677   6.889 -36.282  1.00  0.00     0.019 A 
HETATM   24  C   UNL     1     -13.787   6.466 -35.562  1.00  0.00     0.003 A 
HETATM   25  C   UNL     1     -13.684   6.322 -34.181  1.00  0.00     0.029 A 
ENDBRANCH  19  20
ENDBRANCH  16  19
ENDBRANCH   8  15
BRANCH  10  26
HETATM   26  C   UNL     1     -10.272   2.443 -33.679  1.00  0.00     0.032 A 
HETATM   27  C   UNL     1     -10.939   1.269 -33.317  1.00  0.00     0.020 A 
HETATM   28  C   UNL     1     -12.194   0.989 -33.853  1.00  0.00     0.038 A 
HETATM   29  C   UNL     1     -12.805   1.886 -34.730  1.00  0.00     0.068 A 
HETATM   30  C   UNL     1     -12.146   3.072 -35.070  1.00  0.00     0.038 A 
HETATM   31  C   UNL     1     -10.884   3.359 -34.536  1.00  0.00     0.020 A 
BRANCH  29  32
HETATM   32  O   UNL     1     -14.037   1.493 -35.170  1.00  0.00    -0.356 OA
HETATM   33  C   UNL     1     -14.846   0.765 -34.255  1.00  0.00     0.210 C 
ENDBRANCH  29  32
ENDBRANCH  10  26
BRANCH   1  34
HETATM   34  C   UNL     1      -3.776   0.193 -32.573  1.00  0.00     0.032 A 
HETATM   35  C   UNL     1      -2.945  -0.406 -31.620  1.00  0.00     0.017 A 
HETATM   36  C   UNL     1      -2.772  -1.791 -31.620  1.00  0.00     0.008 A 
HETATM   37  C   UNL     1      -3.456  -2.594 -32.545  1.00  0.00    -0.059 A 
HETATM   38  C   UNL     1      -4.319  -1.985 -33.469  1.00  0.00     0.008 A 
HETATM   39  C   UNL     1      -4.482  -0.597 -33.482  1.00  0.00     0.017 A 
BRANCH  37  40
HETATM   40  C   UNL     1      -3.277  -4.092 -32.535  1.00  0.00     0.034 C 
HETATM   41  C   UNL     1      -3.742  -4.743 -33.830  1.00  0.00     0.010 C 
ENDBRANCH  37  40
ENDBRANCH   1  34
TORSDOF 7
ENDMDL
MODEL 4
REMARK VINA RESULT:      -8.7      2.645     10.060
REMARK  7 active torsions:
REMARK  status: ('A' for Active; 'I' for Inactive)
REMARK    1  A    between atoms: C_2  and  C_3 
REMARK    2  A    between atoms: C_6  and  C_7 
REMARK       I    between atoms: C_7  and  N_8 
REMARK    3  A    between atoms: C_14  and  C_15 
REMARK       I    between atoms: C_15  and  N_16 
REMARK    4  A    between atoms: N_16  and  C_17 
REMARK    5  A    between atoms: C_17  and  C_18 
REMARK       I    between atoms: N_25  and  C_26 
REMARK    6  A    between atoms: C_26  and  C_27 
REMARK    7  A    between atoms: C_30  and  O_31 
ROOT
HETATM    1  C   UNL     1     -12.227   1.913 -34.870  1.00  0.00     0.253 C 
HETATM    2  N   UNL     1     -11.027   1.544 -34.240  1.00  0.00    -0.348 N 
HETATM    3  C   UNL     1     -10.932   1.309 -32.803  1.00  0.00     0.131 C 
HETATM    4  C   UNL     1      -9.760   0.431 -32.416  1.00  0.00     0.081 C 
HETATM    5  C   UNL     1      -8.418   0.840 -33.038  1.00  0.00     0.142 C 
HETATM    6  O   UNL     1      -7.627  -0.383 -32.947  1.00  0.00    -0.358 OA
HETATM    7  C   UNL     1      -6.432  -0.123 -32.214  1.00  0.00     0.206 C 
HETATM    8  C   UNL     1      -6.693   1.133 -31.413  1.00  0.00     0.206 C 
HETATM    9  N   UNL     1      -7.656   1.831 -32.258  1.00  0.00    -0.300 N 
HETATM   10  C   UNL     1      -8.127   3.118 -32.049  1.00  0.00     0.257 C 
HETATM   11  O   UNL     1      -9.048   3.623 -32.682  1.00  0.00    -0.267 OA
HETATM   12  C   UNL     1      -8.562   1.121 -34.537  1.00  0.00     0.081 C 
HETATM   13  C   UNL     1      -9.800   1.912 -34.944  1.00  0.00     0.131 C 
HETATM   14  O   UNL     1     -12.322   2.130 -36.077  1.00  0.00    -0.267 OA
ENDROOT
BRANCH   8  15
HETATM   15  C   UNL     1      -5.315   1.702 -31.072  1.00  0.00     0.243 C 
HETATM   16  N   UNL     1      -4.473   1.982 -32.113  1.00  0.00    -0.354 N 
HETATM   17  H   UNL     1      -4.778   1.932 -33.081  1.00  0.00     0.162 HD
HETATM   18  O   UNL     1      -4.946   1.768 -29.897  1.00  0.00    -0.271 OA
BRANCH  16  19
HETATM   19  C   UNL     1      -3.141   2.501 -31.873  1.00  0.00     0.181 C 
BRANCH  19  20
HETATM   20  C   UNL     1      -2.857   3.768 -32.648  1.00  0.00     0.051 A 
HETATM   21  N   UNL     1      -1.723   4.460 -32.354  1.00  0.00    -0.264 NA
HETATM   22  C   UNL     1      -1.499   5.595 -33.052  1.00  0.00     0.117 A 
HETATM   23  C   UNL     1      -2.354   6.086 -34.026  1.00  0.00     0.019 A 
HETATM   24  C   UNL     1      -3.515   5.376 -34.303  1.00  0.00     0.003 A 
HETATM   25  C   UNL     1      -3.775   4.202 -33.603  1.00  0.00     0.029 A 
ENDBRANCH  19  20
ENDBRANCH  16  19
ENDBRANCH   8  15
BRANCH  10  26
HETATM   26  C   UNL     1      -7.478   4.011 -31.072  1.00  0.00     0.032 A 
HETATM   27  C   UNL     1      -6.564   4.948 -31.560  1.00  0.00     0.020 A 
HETATM   28  C   UNL     1      -5.961   5.852 -30.687  1.00  0.00     0.038 A 
HETATM   29  C   UNL     1      -6.285   5.847 -29.329  1.00  0.00     0.068 A 
HETATM   30  C   UNL     1      -7.218   4.923 -28.848  1.00  0.00     0.038 A 
HETATM   31  C   UNL     1      -7.827   4.012 -29.720  1.00  0.00     0.020 A 
BRANCH  29  32
HETATM   32  O   UNL     1      -5.629   6.791 -28.590  1.00  0.00    -0.356 OA
HETATM   33  C   UNL     1      -5.192   6.404 -27.294  1.00  0.00     0.210 C 
ENDBRANCH  29  32
ENDBRANCH  10  26
BRANCH   1  34
HETATM   34  C   UNL     1     -13.459   2.063 -34.060  1.00  0.00     0.032 A 
HETATM   35  C   UNL     1     -13.625   3.163 -33.213  1.00  0.00     0.017 A 
HETATM   36  C   UNL     1     -14.798   3.297 -32.467  1.00  0.00     0.008 A 
HETATM   37  C   UNL     1     -15.831   2.356 -32.591  1.00  0.00    -0.059 A 
HETATM   38  C   UNL     1     -15.670   1.279 -33.476  1.00  0.00     0.008 A 
HETATM   39  C   UNL     1     -14.490   1.134 -34.212  1.00  0.00     0.017 A 
BRANCH  37  40
HETATM   40  C   UNL     1     -17.104   2.510 -31.794  1.00  0.00     0.034 C 
HETATM   41  C   UNL     1     -18.228   3.137 -32.606  1.00  0.00     0.010 C 
ENDBRANCH  37  40
ENDBRANCH   1  34
TORSDOF 7
ENDMDL
MODEL 5
REMARK VINA RESULT:      -8.5      3.013      9.620
REMARK  7 active torsions:
REMARK  status: ('A' for Active; 'I' for Inactive)
REMARK    1  A    between atoms: C_2  and  C_3 
REMARK    2  A    between atoms: C_6  and  C_7 
REMARK       I    between atoms: C_7  and  N_8 
REMARK    3  A    between atoms: C_14  and  C_15 
REMARK       I    between atoms: C_15  and  N_16 
REMARK    4  A    between atoms: N_16  and  C_17 
REMARK    5  A    between atoms: C_17  and  C_18 
REMARK       I    between atoms: N_25  and  C_26 
REMARK    6  A    between atoms: C_26  and  C_27 
REMARK    7  A    between atoms: C_30  and  O_31 
ROOT
HETATM    1  C   UNL     1      -7.511   0.808 -31.595  1.00  0.00     0.253 C 
HETATM    2  N   UNL     1      -7.287   2.186 -31.750  1.00  0.00    -0.348 N 
HETATM    3  C   UNL     1      -6.471   2.736 -32.827  1.00  0.00     0.131 C 
HETATM    4  C   UNL     1      -6.785   4.184 -33.138  1.00  0.00     0.081 C 
HETATM    5  C   UNL     1      -6.842   5.106 -31.912  1.00  0.00     0.142 C 
HETATM    6  O   UNL     1      -7.630   6.238 -32.388  1.00  0.00    -0.358 OA
HETATM    7  C   UNL     1      -6.877   7.439 -32.233  1.00  0.00     0.206 C 
HETATM    8  C   UNL     1      -5.429   7.018 -32.122  1.00  0.00     0.206 C 
HETATM    9  N   UNL     1      -5.548   5.694 -31.523  1.00  0.00    -0.300 N 
HETATM   10  C   UNL     1      -4.493   4.912 -31.079  1.00  0.00     0.257 C 
HETATM   11  O   UNL     1      -4.606   3.743 -30.724  1.00  0.00    -0.267 OA
HETATM   12  C   UNL     1      -7.670   4.480 -30.784  1.00  0.00     0.081 C 
HETATM   13  C   UNL     1      -7.436   2.994 -30.541  1.00  0.00     0.131 C 
HETATM   14  O   UNL     1      -8.183   0.327 -30.684  1.00  0.00    -0.267 OA
ENDROOT
BRANCH   8  15
HETATM   15  C   UNL     1      -4.710   8.182 -31.437  1.00  0.00     0.243 C 
HETATM   16  N   UNL     1      -5.363   8.813 -30.414  1.00  0.00    -0.354 N 
HETATM   17  H   UNL     1      -6.237   8.461 -30.034  1.00  0.00     0.162 HD
HETATM   18  O   UNL     1      -3.646   8.607 -31.893  1.00  0.00    -0.271 OA
BRANCH  16  19
HETATM   19  C   UNL     1      -4.761   9.939 -29.729  1.00  0.00     0.181 C 
BRANCH  19  20
HETATM   20  C   UNL     1      -3.925   9.524 -28.539  1.00  0.00     0.051 A 
HETATM   21  N   UNL     1      -4.465   8.647 -27.650  1.00  0.00    -0.264 NA
HETATM   22  C   UNL     1      -3.701   8.303 -26.589  1.00  0.00     0.117 A 
HETATM   23  C   UNL     1      -2.426   8.795 -26.361  1.00  0.00     0.019 A 
HETATM   24  C   UNL     1      -1.896   9.700 -27.271  1.00  0.00     0.003 A 
HETATM   25  C   UNL     1      -2.655  10.075 -28.375  1.00  0.00     0.029 A 
ENDBRANCH  19  20
ENDBRANCH  16  19
ENDBRANCH   8  15
BRANCH  10  26
HETATM   26  C   UNL     1      -3.141   5.481 -30.930  1.00  0.00     0.032 A 
HETATM   27  C   UNL     1      -2.854   6.165 -29.746  1.00  0.00     0.020 A 
HETATM   28  C   UNL     1      -1.576   6.678 -29.531  1.00  0.00     0.038 A 
HETATM   29  C   UNL     1      -0.570   6.489 -30.480  1.00  0.00     0.068 A 
HETATM   30  C   UNL     1      -0.854   5.782 -31.653  1.00  0.00     0.038 A 
HETATM   31  C   UNL     1      -2.136   5.265 -31.876  1.00  0.00     0.020 A 
BRANCH  29  32
HETATM   32  O   UNL     1       0.636   7.033 -30.138  1.00  0.00    -0.356 OA
HETATM   33  C   UNL     1       0.722   7.659 -28.864  1.00  0.00     0.210 C 
ENDBRANCH  29  32
ENDBRANCH  10  26
BRANCH   1  34
HETATM   34  C   UNL     1      -6.912  -0.141 -32.564  1.00  0.00     0.032 A 
HETATM   35  C   UNL     1      -5.627  -0.652 -32.359  1.00  0.00     0.017 A 
HETATM   36  C   UNL     1      -5.083  -1.555 -33.273  1.00  0.00     0.008 A 
HETATM   37  C   UNL     1      -5.832  -1.988 -34.378  1.00  0.00    -0.059 A 
HETATM   38  C   UNL     1      -7.136  -1.500 -34.550  1.00  0.00     0.008 A 
HETATM   39  C   UNL     1      -7.677  -0.583 -33.645  1.00  0.00     0.017 A 
BRANCH  37  40
HETATM   40  C   UNL     1      -5.247  -2.975 -35.358  1.00  0.00     0.034 C 
HETATM   41  C   UNL     1      -6.011  -4.291 -35.386  1.00  0.00     0.010 C 
ENDBRANCH  37  40
ENDBRANCH   1  34
TORSDOF 7
ENDMDL
MODEL 6
REMARK VINA RESULT:      -8.3      3.623      8.028
REMARK  7 active torsions:
REMARK  status: ('A' for Active; 'I' for Inactive)
REMARK    1  A    between atoms: C_2  and  C_3 
REMARK    2  A    between atoms: C_6  and  C_7 
REMARK       I    between atoms: C_7  and  N_8 
REMARK    3  A    between atoms: C_14  and  C_15 
REMARK       I    between atoms: C_15  and  N_16 
REMARK    4  A    between atoms: N_16  and  C_17 
REMARK    5  A    between atoms: C_17  and  C_18 
REMARK       I    between atoms: N_25  and  C_26 
REMARK    6  A    between atoms: C_26  and  C_27 
REMARK    7  A    between atoms: C_30  and  O_31 
ROOT
HETATM    1  C   UNL     1     -11.980   5.881 -34.315  1.00  0.00     0.253 C 
HETATM    2  N   UNL     1     -11.305   4.729 -33.877  1.00  0.00    -0.348 N 
HETATM    3  C   UNL     1     -10.880   4.543 -32.493  1.00  0.00     0.131 C 
HETATM    4  C   UNL     1     -10.678   3.089 -32.119  1.00  0.00     0.081 C 
HETATM    5  C   UNL     1      -9.828   2.283 -33.111  1.00  0.00     0.142 C 
HETATM    6  O   UNL     1     -10.208   0.903 -32.823  1.00  0.00    -0.358 OA
HETATM    7  C   UNL     1      -9.046   0.152 -32.482  1.00  0.00     0.206 C 
HETATM    8  C   UNL     1      -7.998   1.160 -32.067  1.00  0.00     0.206 C 
HETATM    9  N   UNL     1      -8.378   2.327 -32.856  1.00  0.00    -0.300 N 
HETATM   10  C   UNL     1      -7.653   3.505 -32.954  1.00  0.00     0.257 C 
HETATM   11  O   UNL     1      -8.068   4.523 -33.496  1.00  0.00    -0.267 OA
HETATM   12  C   UNL     1     -10.272   2.535 -34.556  1.00  0.00     0.081 C 
HETATM   13  C   UNL     1     -10.583   3.985 -34.907  1.00  0.00     0.131 C 
HETATM   14  O   UNL     1     -12.331   6.060 -35.479  1.00  0.00    -0.267 OA
ENDROOT
BRANCH   8  15
HETATM   15  C   UNL     1      -6.653   0.449 -32.222  1.00  0.00     0.243 C 
HETATM   16  N   UNL     1      -6.325  -0.014 -33.467  1.00  0.00    -0.354 N 
HETATM   17  H   UNL     1      -6.885   0.201 -34.287  1.00  0.00     0.162 HD
HETATM   18  O   UNL     1      -5.970   0.193 -31.229  1.00  0.00    -0.271 OA
BRANCH  16  19
HETATM   19  C   UNL     1      -5.079  -0.719 -33.694  1.00  0.00     0.181 C 
BRANCH  19  20
HETATM   20  C   UNL     1      -5.285  -2.166 -34.079  1.00  0.00     0.051 A 
HETATM   21  N   UNL     1      -4.241  -3.025 -33.929  1.00  0.00    -0.264 NA
HETATM   22  C   UNL     1      -4.448  -4.311 -34.293  1.00  0.00     0.117 A 
HETATM   23  C   UNL     1      -5.643  -4.787 -34.809  1.00  0.00     0.019 A 
HETATM   24  C   UNL     1      -6.694  -3.893 -34.969  1.00  0.00     0.003 A 
HETATM   25  C   UNL     1      -6.515  -2.562 -34.603  1.00  0.00     0.029 A 
ENDBRANCH  19  20
ENDBRANCH  16  19
ENDBRANCH   8  15
BRANCH  10  26
HETATM   26  C   UNL     1      -6.265   3.581 -32.462  1.00  0.00     0.032 A 
HETATM   27  C   UNL     1      -5.238   3.463 -33.402  1.00  0.00     0.020 A 
HETATM   28  C   UNL     1      -3.910   3.580 -32.999  1.00  0.00     0.038 A 
HETATM   29  C   UNL     1      -3.596   3.842 -31.664  1.00  0.00     0.068 A 
HETATM   30  C   UNL     1      -4.627   3.984 -30.730  1.00  0.00     0.038 A 
HETATM   31  C   UNL     1      -5.965   3.867 -31.128  1.00  0.00     0.020 A 
BRANCH  29  32
HETATM   32  O   UNL     1      -2.257   3.943 -31.409  1.00  0.00    -0.356 OA
HETATM   33  C   UNL     1      -1.509   4.824 -32.237  1.00  0.00     0.210 C 
ENDBRANCH  29  32
ENDBRANCH  10  26
BRANCH   1  34
HETATM   34  C   UNL     1     -12.293   6.955 -33.343  1.00  0.00     0.032 A 
HETATM   35  C   UNL     1     -11.429   8.042 -33.180  1.00  0.00     0.017 A 
HETATM   36  C   UNL     1     -11.746   9.053 -32.272  1.00  0.00     0.008 A 
HETATM   37  C   UNL     1     -12.946   9.008 -31.547  1.00  0.00    -0.059 A 
HETATM   38  C   UNL     1     -13.824   7.933 -31.749  1.00  0.00     0.008 A 
HETATM   39  C   UNL     1     -13.502   6.911 -32.647  1.00  0.00     0.017 A 
BRANCH  37  40
HETATM   40  C   UNL     1     -13.293  10.109 -30.574  1.00  0.00     0.034 C 
HETATM   41  C   UNL     1     -14.205   9.631 -29.454  1.00  0.00     0.010 C 
ENDBRANCH  37  40
ENDBRANCH   1  34
TORSDOF 7
ENDMDL
MODEL 7
REMARK VINA RESULT:      -8.1      3.658      6.974
REMARK  7 active torsions:
REMARK  status: ('A' for Active; 'I' for Inactive)
REMARK    1  A    between atoms: C_2  and  C_3 
REMARK    2  A    between atoms: C_6  and  C_7 
REMARK       I    between atoms: C_7  and  N_8 
REMARK    3  A    between atoms: C_14  and  C_15 
REMARK       I    between atoms: C_15  and  N_16 
REMARK    4  A    between atoms: N_16  and  C_17 
REMARK    5  A    between atoms: C_17  and  C_18 
REMARK       I    between atoms: N_25  and  C_26 
REMARK    6  A    between atoms: C_26  and  C_27 
REMARK    7  A    between atoms: C_30  and  O_31 
ROOT
HETATM    1  C   UNL     1      -3.651   0.333 -32.632  1.00  0.00     0.253 C 
HETATM    2  N   UNL     1      -4.682   1.057 -32.009  1.00  0.00    -0.348 N 
HETATM    3  C   UNL     1      -6.008   0.496 -31.775  1.00  0.00     0.131 C 
HETATM    4  C   UNL     1      -6.764   1.189 -30.661  1.00  0.00     0.081 C 
HETATM    5  C   UNL     1      -6.778   2.721 -30.751  1.00  0.00     0.142 C 
HETATM    6  O   UNL     1      -7.081   3.128 -29.382  1.00  0.00    -0.358 OA
HETATM    7  C   UNL     1      -8.255   3.936 -29.376  1.00  0.00     0.206 C 
HETATM    8  C   UNL     1      -8.983   3.634 -30.667  1.00  0.00     0.206 C 
HETATM    9  N   UNL     1      -7.880   3.279 -31.554  1.00  0.00    -0.300 N 
HETATM   10  C   UNL     1      -7.985   3.044 -32.916  1.00  0.00     0.257 C 
HETATM   11  O   UNL     1      -7.077   2.596 -33.608  1.00  0.00    -0.267 OA
HETATM   12  C   UNL     1      -5.379   3.274 -31.040  1.00  0.00     0.081 C 
HETATM   13  C   UNL     1      -4.571   2.512 -32.084  1.00  0.00     0.131 C 
HETATM   14  O   UNL     1      -2.533   0.796 -32.850  1.00  0.00    -0.267 OA
ENDROOT
BRANCH   8  15
HETATM   15  C   UNL     1      -9.902   4.832 -30.916  1.00  0.00     0.243 C 
HETATM   16  N   UNL     1     -11.239   4.581 -31.058  1.00  0.00    -0.354 N 
HETATM   17  H   UNL     1     -11.636   3.661 -30.889  1.00  0.00     0.162 HD
HETATM   18  O   UNL     1      -9.422   5.949 -31.115  1.00  0.00    -0.271 OA
BRANCH  16  19
HETATM   19  C   UNL     1     -12.173   5.658 -31.319  1.00  0.00     0.181 C 
BRANCH  19  20
HETATM   20  C   UNL     1     -13.578   5.165 -31.581  1.00  0.00     0.051 A 
HETATM   21  N   UNL     1     -14.591   6.074 -31.567  1.00  0.00    -0.264 NA
HETATM   22  C   UNL     1     -15.839   5.605 -31.792  1.00  0.00     0.117 A 
HETATM   23  C   UNL     1     -16.135   4.271 -32.021  1.00  0.00     0.019 A 
HETATM   24  C   UNL     1     -15.092   3.354 -32.016  1.00  0.00     0.003 A 
HETATM   25  C   UNL     1     -13.794   3.804 -31.789  1.00  0.00     0.029 A 
ENDBRANCH  19  20
ENDBRANCH  16  19
ENDBRANCH   8  15
BRANCH  10  26
HETATM   26  C   UNL     1      -9.213   3.399 -33.652  1.00  0.00     0.032 A 
HETATM   27  C   UNL     1      -9.243   4.637 -34.300  1.00  0.00     0.020 A 
HETATM   28  C   UNL     1     -10.358   5.001 -35.052  1.00  0.00     0.038 A 
HETATM   29  C   UNL     1     -11.436   4.125 -35.189  1.00  0.00     0.068 A 
HETATM   30  C   UNL     1     -11.392   2.877 -34.559  1.00  0.00     0.038 A 
HETATM   31  C   UNL     1     -10.276   2.505 -33.800  1.00  0.00     0.020 A 
BRANCH  29  32
HETATM   32  O   UNL     1     -12.456   4.604 -35.962  1.00  0.00    -0.356 OA
HETATM   33  C   UNL     1     -13.215   5.682 -35.430  1.00  0.00     0.210 C 
ENDBRANCH  29  32
ENDBRANCH  10  26
BRANCH   1  34
HETATM   34  C   UNL     1      -3.899  -1.063 -33.064  1.00  0.00     0.032 A 
HETATM   35  C   UNL     1      -3.338  -2.135 -32.363  1.00  0.00     0.017 A 
HETATM   36  C   UNL     1      -3.593  -3.445 -32.774  1.00  0.00     0.008 A 
HETATM   37  C   UNL     1      -4.443  -3.697 -33.861  1.00  0.00    -0.059 A 
HETATM   38  C   UNL     1      -5.033  -2.614 -34.529  1.00  0.00     0.008 A 
HETATM   39  C   UNL     1      -4.767  -1.301 -34.131  1.00  0.00     0.017 A 
BRANCH  37  40
HETATM   40  C   UNL     1      -4.728  -5.114 -34.295  1.00  0.00     0.034 C 
HETATM   41  C   UNL     1      -5.905  -5.204 -35.255  1.00  0.00     0.010 C 
ENDBRANCH  37  40
ENDBRANCH   1  34
TORSDOF 7
ENDMDL
MODEL 8
REMARK VINA RESULT:      -8.0      2.984      9.556
REMARK  7 active torsions:
REMARK  status: ('A' for Active; 'I' for Inactive)
REMARK    1  A    between atoms: C_2  and  C_3 
REMARK    2  A    between atoms: C_6  and  C_7 
REMARK       I    between atoms: C_7  and  N_8 
REMARK    3  A    between atoms: C_14  and  C_15 
REMARK       I    between atoms: C_15  and  N_16 
REMARK    4  A    between atoms: N_16  and  C_17 
REMARK    5  A    between atoms: C_17  and  C_18 
REMARK       I    between atoms: N_25  and  C_26 
REMARK    6  A    between atoms: C_26  and  C_27 
REMARK    7  A    between atoms: C_30  and  O_31 
ROOT
HETATM    1  C   UNL     1      -8.565   0.656 -32.138  1.00  0.00     0.253 C 
HETATM    2  N   UNL     1      -8.532   2.061 -32.174  1.00  0.00    -0.348 N 
HETATM    3  C   UNL     1      -7.419   2.808 -32.750  1.00  0.00     0.131 C 
HETATM    4  C   UNL     1      -7.796   4.212 -33.173  1.00  0.00     0.081 C 
HETATM    5  C   UNL     1      -8.564   5.017 -32.117  1.00  0.00     0.142 C 
HETATM    6  O   UNL     1      -9.224   6.052 -32.908  1.00  0.00    -0.358 OA
HETATM    7  C   UNL     1      -8.842   7.336 -32.423  1.00  0.00     0.206 C 
HETATM    8  C   UNL     1      -7.558   7.132 -31.649  1.00  0.00     0.206 C 
HETATM    9  N   UNL     1      -7.713   5.762 -31.172  1.00  0.00    -0.300 N 
HETATM   10  C   UNL     1      -6.864   5.116 -30.286  1.00  0.00     0.257 C 
HETATM   11  O   UNL     1      -6.927   3.921 -30.023  1.00  0.00    -0.267 OA
HETATM   12  C   UNL     1      -9.697   4.190 -31.503  1.00  0.00     0.081 C 
HETATM   13  C   UNL     1      -9.354   2.741 -31.175  1.00  0.00     0.131 C 
HETATM   14  O   UNL     1      -9.489   0.011 -31.643  1.00  0.00    -0.267 OA
ENDROOT
BRANCH   8  15
HETATM   15  C   UNL     1      -7.442   8.335 -30.711  1.00  0.00     0.243 C 
HETATM   16  N   UNL     1      -6.354   9.150 -30.864  1.00  0.00    -0.354 N 
HETATM   17  H   UNL     1      -5.705   9.044 -31.639  1.00  0.00     0.162 HD
HETATM   18  O   UNL     1      -8.231   8.467 -29.775  1.00  0.00    -0.271 OA
BRANCH  16  19
HETATM   19  C   UNL     1      -6.157  10.297 -30.000  1.00  0.00     0.181 C 
BRANCH  19  20
HETATM   20  C   UNL     1      -4.719  10.465 -29.565  1.00  0.00     0.051 A 
HETATM   21  N   UNL     1      -4.478  10.967 -28.324  1.00  0.00    -0.264 NA
HETATM   22  C   UNL     1      -3.184  11.119 -27.965  1.00  0.00     0.117 A 
HETATM   23  C   UNL     1      -2.111  10.805 -28.785  1.00  0.00     0.019 A 
HETATM   24  C   UNL     1      -2.375  10.308 -30.054  1.00  0.00     0.003 A 
HETATM   25  C   UNL     1      -3.697  10.138 -30.455  1.00  0.00     0.029 A 
ENDBRANCH  19  20
ENDBRANCH  16  19
ENDBRANCH   8  15
BRANCH  10  26
HETATM   26  C   UNL     1      -5.849   5.870 -29.527  1.00  0.00     0.032 A 
HETATM   27  C   UNL     1      -6.156   6.224 -28.211  1.00  0.00     0.020 A 
HETATM   28  C   UNL     1      -5.214   6.891 -27.431  1.00  0.00     0.038 A 
HETATM   29  C   UNL     1      -3.950   7.184 -27.947  1.00  0.00     0.068 A 
HETATM   30  C   UNL     1      -3.637   6.807 -29.257  1.00  0.00     0.038 A 
HETATM   31  C   UNL     1      -4.580   6.137 -30.046  1.00  0.00     0.020 A 
BRANCH  29  32
HETATM   32  O   UNL     1      -3.121   7.830 -27.073  1.00  0.00    -0.356 OA
HETATM   33  C   UNL     1      -3.625   8.068 -25.765  1.00  0.00     0.210 C 
ENDBRANCH  29  32
ENDBRANCH  10  26
BRANCH   1  34
HETATM   34  C   UNL     1      -7.438  -0.114 -32.715  1.00  0.00     0.032 A 
HETATM   35  C   UNL     1      -6.290  -0.370 -31.959  1.00  0.00     0.017 A 
HETATM   36  C   UNL     1      -5.244  -1.110 -32.512  1.00  0.00     0.008 A 
HETATM   37  C   UNL     1      -5.350  -1.634 -33.810  1.00  0.00    -0.059 A 
HETATM   38  C   UNL     1      -6.524  -1.405 -34.542  1.00  0.00     0.008 A 
HETATM   39  C   UNL     1      -7.567  -0.651 -33.997  1.00  0.00     0.017 A 
BRANCH  37  40
HETATM   40  C   UNL     1      -4.223  -2.444 -34.400  1.00  0.00     0.034 C 
HETATM   41  C   UNL     1      -4.334  -3.926 -34.070  1.00  0.00     0.010 C 
ENDBRANCH  37  40
ENDBRANCH   1  34
TORSDOF 7
ENDMDL
MODEL 9
REMARK VINA RESULT:      -7.7      3.964      8.791
REMARK  7 active torsions:
REMARK  status: ('A' for Active; 'I' for Inactive)
REMARK    1  A    between atoms: C_2  and  C_3 
REMARK    2  A    between atoms: C_6  and  C_7 
REMARK       I    between atoms: C_7  and  N_8 
REMARK    3  A    between atoms: C_14  and  C_15 
REMARK       I    between atoms: C_15  and  N_16 
REMARK    4  A    between atoms: N_16  and  C_17 
REMARK    5  A    between atoms: C_17  and  C_18 
REMARK       I    between atoms: N_25  and  C_26 
REMARK    6  A    between atoms: C_26  and  C_27 
REMARK    7  A    between atoms: C_30  and  O_31 
ROOT
HETATM    1  C   UNL     1     -12.277   5.117 -35.269  1.00  0.00     0.253 C 
HETATM    2  N   UNL     1     -11.405   4.656 -34.268  1.00  0.00    -0.348 N 
HETATM    3  C   UNL     1     -10.838   5.535 -33.251  1.00  0.00     0.131 C 
HETATM    4  C   UNL     1     -10.394   4.800 -32.004  1.00  0.00     0.081 C 
HETATM    5  C   UNL     1      -9.526   3.561 -32.265  1.00  0.00     0.142 C 
HETATM    6  O   UNL     1      -9.673   2.792 -31.032  1.00  0.00    -0.358 OA
HETATM    7  C   UNL     1      -8.388   2.560 -30.461  1.00  0.00     0.206 C 
HETATM    8  C   UNL     1      -7.467   3.600 -31.057  1.00  0.00     0.206 C 
HETATM    9  N   UNL     1      -8.081   3.831 -32.360  1.00  0.00    -0.300 N 
HETATM   10  C   UNL     1      -7.547   4.609 -33.376  1.00  0.00     0.257 C 
HETATM   11  O   UNL     1      -8.153   4.913 -34.398  1.00  0.00    -0.267 OA
HETATM   12  C   UNL     1     -10.127   2.683 -33.367  1.00  0.00     0.081 C 
HETATM   13  C   UNL     1     -10.676   3.428 -34.578  1.00  0.00     0.131 C 
HETATM   14  O   UNL     1     -12.752   4.393 -36.142  1.00  0.00    -0.267 OA
ENDROOT
BRANCH   8  15
HETATM   15  C   UNL     1      -6.050   3.047 -30.888  1.00  0.00     0.243 C 
HETATM   16  N   UNL     1      -5.773   1.839 -31.468  1.00  0.00    -0.354 N 
HETATM   17  H   UNL     1      -6.430   1.374 -32.087  1.00  0.00     0.162 HD
HETATM   18  O   UNL     1      -5.250   3.613 -30.142  1.00  0.00    -0.271 OA
BRANCH  16  19
HETATM   19  C   UNL     1      -4.462   1.235 -31.335  1.00  0.00     0.181 C 
BRANCH  19  20
HETATM   20  C   UNL     1      -4.348  -0.087 -32.060  1.00  0.00     0.051 A 
HETATM   21  N   UNL     1      -3.452  -0.999 -31.595  1.00  0.00    -0.264 NA
HETATM   22  C   UNL     1      -3.362  -2.167 -32.270  1.00  0.00     0.117 A 
HETATM   23  C   UNL     1      -4.113  -2.473 -33.393  1.00  0.00     0.019 A 
HETATM   24  C   UNL     1      -5.013  -1.525 -33.862  1.00  0.00     0.003 A 
HETATM   25  C   UNL     1      -5.132  -0.311 -33.191  1.00  0.00     0.029 A 
ENDBRANCH  19  20
ENDBRANCH  16  19
ENDBRANCH   8  15
BRANCH  10  26
HETATM   26  C   UNL     1      -6.147   5.070 -33.320  1.00  0.00     0.032 A 
HETATM   27  C   UNL     1      -5.205   4.369 -34.077  1.00  0.00     0.020 A 
HETATM   28  C   UNL     1      -3.878   4.793 -34.101  1.00  0.00     0.038 A 
HETATM   29  C   UNL     1      -3.486   5.932 -33.395  1.00  0.00     0.068 A 
HETATM   30  C   UNL     1      -4.437   6.645 -32.659  1.00  0.00     0.038 A 
HETATM   31  C   UNL     1      -5.773   6.224 -32.629  1.00  0.00     0.020 A 
BRANCH  29  32
HETATM   32  O   UNL     1      -2.161   6.241 -33.515  1.00  0.00    -0.356 OA
HETATM   33  C   UNL     1      -1.456   5.644 -34.596  1.00  0.00     0.210 C 
ENDBRANCH  29  32
ENDBRANCH  10  26
BRANCH   1  34
HETATM   34  C   UNL     1     -12.658   6.550 -35.300  1.00  0.00     0.032 A 
HETATM   35  C   UNL     1     -11.941   7.459 -36.084  1.00  0.00     0.017 A 
HETATM   36  C   UNL     1     -12.321   8.802 -36.114  1.00  0.00     0.008 A 
HETATM   37  C   UNL     1     -13.443   9.241 -35.395  1.00  0.00    -0.059 A 
HETATM   38  C   UNL     1     -14.178   8.310 -34.645  1.00  0.00     0.008 A 
HETATM   39  C   UNL     1     -13.791   6.968 -34.601  1.00  0.00     0.017 A 
BRANCH  37  40
HETATM   40  C   UNL     1     -13.860  10.690 -35.439  1.00  0.00     0.034 C 
HETATM   41  C   UNL     1     -12.826  11.573 -36.124  1.00  0.00     0.010 C 
ENDBRANCH  37  40
ENDBRANCH   1  34
TORSDOF 7
ENDMDL
MODEL 10
REMARK VINA RESULT:      -7.6      4.906      8.760
REMARK  7 active torsions:
REMARK  status: ('A' for Active; 'I' for Inactive)
REMARK    1  A    between atoms: C_2  and  C_3 
REMARK    2  A    between atoms: C_6  and  C_7 
REMARK       I    between atoms: C_7  and  N_8 
REMARK    3  A    between atoms: C_14  and  C_15 
REMARK       I    between atoms: C_15  and  N_16 
REMARK    4  A    between atoms: N_16  and  C_17 
REMARK    5  A    between atoms: C_17  and  C_18 
REMARK       I    between atoms: N_25  and  C_26 
REMARK    6  A    between atoms: C_26  and  C_27 
REMARK    7  A    between atoms: C_30  and  O_31 
ROOT
HETATM    1  C   UNL     1      -9.621   9.248 -26.192  1.00  0.00     0.253 C 
HETATM    2  N   UNL     1      -9.296   8.946 -27.525  1.00  0.00    -0.348 N 
HETATM    3  C   UNL     1     -10.252   8.351 -28.453  1.00  0.00     0.131 C 
HETATM    4  C   UNL     1      -9.910   8.600 -29.907  1.00  0.00     0.081 C 
HETATM    5  C   UNL     1      -8.454   8.298 -30.285  1.00  0.00     0.142 C 
HETATM    6  O   UNL     1      -8.264   9.072 -31.508  1.00  0.00    -0.358 OA
HETATM    7  C   UNL     1      -7.857   8.203 -32.562  1.00  0.00     0.206 C 
HETATM    8  C   UNL     1      -8.266   6.809 -32.142  1.00  0.00     0.206 C 
HETATM    9  N   UNL     1      -8.198   6.904 -30.687  1.00  0.00    -0.300 N 
HETATM   10  C   UNL     1      -8.350   5.848 -29.803  1.00  0.00     0.257 C 
HETATM   11  O   UNL     1      -8.444   5.978 -28.587  1.00  0.00    -0.267 OA
HETATM   12  C   UNL     1      -7.479   8.901 -29.268  1.00  0.00     0.081 C 
HETATM   13  C   UNL     1      -7.876   8.748 -27.804  1.00  0.00     0.131 C 
HETATM   14  O   UNL     1      -8.824   9.736 -25.393  1.00  0.00    -0.267 OA
ENDROOT
BRANCH   8  15
HETATM   15  C   UNL     1      -7.390   5.855 -32.957  1.00  0.00     0.243 C 
HETATM   16  N   UNL     1      -6.050   6.121 -33.011  1.00  0.00    -0.354 N 
HETATM   17  H   UNL     1      -5.621   6.847 -32.444  1.00  0.00     0.162 HD
HETATM   18  O   UNL     1      -7.909   4.971 -33.641  1.00  0.00    -0.271 OA
BRANCH  16  19
HETATM   19  C   UNL     1      -5.155   5.280 -33.781  1.00  0.00     0.181 C 
BRANCH  19  20
HETATM   20  C   UNL     1      -3.723   5.764 -33.752  1.00  0.00     0.051 A 
HETATM   21  N   UNL     1      -3.380   6.698 -32.825  1.00  0.00    -0.264 NA
HETATM   22  C   UNL     1      -2.097   7.123 -32.828  1.00  0.00     0.117 A 
HETATM   23  C   UNL     1      -1.134   6.671 -33.717  1.00  0.00     0.019 A 
HETATM   24  C   UNL     1      -1.505   5.728 -34.667  1.00  0.00     0.003 A 
HETATM   25  C   UNL     1      -2.819   5.269 -34.690  1.00  0.00     0.029 A 
ENDBRANCH  19  20
ENDBRANCH  16  19
ENDBRANCH   8  15
BRANCH  10  26
HETATM   26  C   UNL     1      -8.331   4.453 -30.281  1.00  0.00     0.032 A 
HETATM   27  C   UNL     1      -9.533   3.912 -30.744  1.00  0.00     0.020 A 
HETATM   28  C   UNL     1      -9.561   2.616 -31.255  1.00  0.00     0.038 A 
HETATM   29  C   UNL     1      -8.390   1.861 -31.334  1.00  0.00     0.068 A 
HETATM   30  C   UNL     1      -7.184   2.415 -30.892  1.00  0.00     0.038 A 
HETATM   31  C   UNL     1      -7.148   3.716 -30.376  1.00  0.00     0.020 A 
BRANCH  29  32
HETATM   32  O   UNL     1      -8.558   0.613 -31.866  1.00  0.00    -0.356 OA
HETATM   33  C   UNL     1      -9.696   0.415 -32.694  1.00  0.00     0.210 C 
ENDBRANCH  29  32
ENDBRANCH  10  26
BRANCH   1  34
HETATM   34  C   UNL     1     -10.989   8.968 -25.694  1.00  0.00     0.032 A 
HETATM   35  C   UNL     1     -11.248   7.828 -24.928  1.00  0.00     0.017 A 
HETATM   36  C   UNL     1     -12.539   7.587 -24.454  1.00  0.00     0.008 A 
HETATM   37  C   UNL     1     -13.573   8.501 -24.707  1.00  0.00    -0.059 A 
HETATM   38  C   UNL     1     -13.290   9.663 -25.441  1.00  0.00     0.008 A 
HETATM   39  C   UNL     1     -12.002   9.899 -25.930  1.00  0.00     0.017 A 
BRANCH  37  40
HETATM   40  C   UNL     1     -14.964   8.245 -24.182  1.00  0.00     0.034 C 
HETATM   41  C   UNL     1     -14.967   7.820 -22.721  1.00  0.00     0.010 C 
ENDBRANCH  37  40
ENDBRANCH   1  34
TORSDOF 7
ENDMDL
