MODEL 1
REMARK VINA RESULT:      -9.0      0.000      0.000
REMARK  7 active torsions:
REMARK  status: ('A' for Active; 'I' for Inactive)
REMARK    1  A    between atoms: O_2  and  C_3 
REMARK    2  A    between atoms: C_6  and  C_7 
REMARK       I    between atoms: C_7  and  N_8 
REMARK    3  A    between atoms: N_8  and  C_9 
REMARK    4  A    between atoms: C_9  and  C_10 
REMARK    5  A    between atoms: C_10  and  N_11 
REMARK       I    between atoms: N_11  and  C_12 
REMARK    6  A    between atoms: C_12  and  C_13 
REMARK    7  A    between atoms: C_15  and  C_16 
ROOT
HETATM    1  N   UNL     1      -4.013   2.257 -32.284  1.00  0.00    -0.355 N 
HETATM    2  C   UNL     1      -4.724   1.126 -31.946  1.00  0.00     0.251 C 
HETATM    3  O   UNL     1      -4.734   0.655 -30.813  1.00  0.00    -0.268 OA
HETATM    4  H   UNL     1      -3.863   2.486 -33.258  1.00  0.00     0.162 HD
ENDROOT
BRANCH   1   5
HETATM    5  C   UNL     1      -3.196   2.955 -31.306  1.00  0.00     0.142 C 
BRANCH   5   6
HETATM    6  C   UNL     1      -2.473   4.169 -31.899  1.00  0.00     0.142 C 
BRANCH   6   7
HETATM    7  N   UNL     1      -2.008   5.100 -30.888  1.00  0.00    -0.355 N 
HETATM    8  C   UNL     1      -0.661   5.294 -30.662  1.00  0.00     0.251 C 
HETATM    9  O   UNL     1       0.211   4.722 -31.307  1.00  0.00    -0.268 OA
HETATM   10  H   UNL     1      -2.686   5.730 -30.485  1.00  0.00     0.162 HD
BRANCH   8  11
HETATM   11  C   UNL     1      -0.292   6.270 -29.598  1.00  0.00     0.032 A 
HETATM   12  C   UNL     1      -0.763   7.589 -29.594  1.00  0.00     0.020 A 
HETATM   13  C   UNL     1      -0.411   8.465 -28.559  1.00  0.00     0.038 A 
HETATM   14  C   UNL     1       0.406   8.028 -27.515  1.00  0.00     0.068 A 
HETATM   15  C   UNL     1       0.870   6.710 -27.517  1.00  0.00     0.038 A 
HETATM   16  C   UNL     1       0.521   5.833 -28.546  1.00  0.00     0.020 A 
BRANCH  14  17
HETATM   17  O   UNL     1       0.814   8.776 -26.445  1.00  0.00    -0.356 OA
HETATM   18  C   UNL     1       2.121   8.524 -25.944  1.00  0.00     0.210 C 
ENDBRANCH  14  17
ENDBRANCH   8  11
ENDBRANCH   6   7
ENDBRANCH   5   6
ENDBRANCH   1   5
BRANCH   2  19
HETATM   19  C   UNL     1      -5.467   0.451 -33.047  1.00  0.00     0.032 A 
HETATM   20  C   UNL     1      -5.255  -0.922 -33.244  1.00  0.00     0.029 A 
HETATM   21  C   UNL     1      -5.928  -1.612 -34.264  1.00  0.00    -0.023 A 
HETATM   22  C   UNL     1      -6.817  -0.903 -35.082  1.00  0.00     0.012 A 
HETATM   23  C   UNL     1      -7.045   0.460 -34.879  1.00  0.00     0.002 A 
HETATM   24  C   UNL     1      -6.375   1.138 -33.860  1.00  0.00     0.017 A 
BRANCH  21  25
HETATM   25  C   UNL     1      -5.712  -3.034 -34.483  1.00  0.00    -0.002 A 
HETATM   26  C   UNL     1      -6.651  -3.897 -35.013  1.00  0.00     0.153 A 
HETATM   27  O   UNL     1      -6.153  -5.157 -35.109  1.00  0.00    -0.334 OA
HETATM   28  C   UNL     1      -4.879  -5.112 -34.643  1.00  0.00     0.142 A 
HETATM   29  C   UNL     1      -4.557  -3.834 -34.250  1.00  0.00     0.038 A 
ENDBRANCH  21  25
ENDBRANCH   2  19
TORSDOF 7
ENDMDL
MODEL 2
REMARK VINA RESULT:      -8.7      3.716      9.797
REMARK  7 active torsions:
REMARK  status: ('A' for Active; 'I' for Inactive)
REMARK    1  A    between atoms: O_2  and  C_3 
REMARK    2  A    between atoms: C_6  and  C_7 
REMARK       I    between atoms: C_7  and  N_8 
REMARK    3  A    between atoms: N_8  and  C_9 
REMARK    4  A    between atoms: C_9  and  C_10 
REMARK    5  A    between atoms: C_10  and  N_11 
REMARK       I    between atoms: N_11  and  C_12 
REMARK    6  A    between atoms: C_12  and  C_13 
REMARK    7  A    between atoms: C_15  and  C_16 
ROOT
HETATM    1  N   UNL     1      -7.716   2.650 -32.972  1.00  0.00    -0.355 N 
HETATM    2  C   UNL     1      -6.843   3.614 -33.428  1.00  0.00     0.251 C 
HETATM    3  O   UNL     1      -7.154   4.460 -34.260  1.00  0.00    -0.268 OA
HETATM    4  H   UNL     1      -7.365   1.855 -32.455  1.00  0.00     0.162 HD
ENDROOT
BRANCH   1   5
HETATM    5  C   UNL     1      -9.075   2.564 -33.480  1.00  0.00     0.142 C 
BRANCH   5   6
HETATM    6  C   UNL     1      -9.339   1.258 -34.237  1.00  0.00     0.142 C 
BRANCH   6   7
HETATM    7  N   UNL     1      -8.349   0.234 -33.961  1.00  0.00    -0.355 N 
HETATM    8  C   UNL     1      -7.266   0.045 -34.795  1.00  0.00     0.251 C 
HETATM    9  O   UNL     1      -7.062   0.735 -35.788  1.00  0.00    -0.268 OA
HETATM   10  H   UNL     1      -8.375  -0.210 -33.055  1.00  0.00     0.162 HD
BRANCH   8  11
HETATM   11  C   UNL     1      -6.311  -1.036 -34.421  1.00  0.00     0.032 A 
HETATM   12  C   UNL     1      -6.382  -2.323 -34.969  1.00  0.00     0.020 A 
HETATM   13  C   UNL     1      -5.446  -3.301 -34.608  1.00  0.00     0.038 A 
HETATM   14  C   UNL     1      -4.425  -2.998 -33.705  1.00  0.00     0.068 A 
HETATM   15  C   UNL     1      -4.352  -1.713 -33.164  1.00  0.00     0.038 A 
HETATM   16  C   UNL     1      -5.282  -0.734 -33.522  1.00  0.00     0.020 A 
BRANCH  14  17
HETATM   17  O   UNL     1      -3.448  -3.855 -33.279  1.00  0.00    -0.356 OA
HETATM   18  C   UNL     1      -3.025  -3.727 -31.927  1.00  0.00     0.210 C 
ENDBRANCH  14  17
ENDBRANCH   8  11
ENDBRANCH   6   7
ENDBRANCH   5   6
ENDBRANCH   1   5
BRANCH   2  19
HETATM   19  C   UNL     1      -5.453   3.562 -32.893  1.00  0.00     0.032 A 
HETATM   20  C   UNL     1      -4.590   4.627 -33.188  1.00  0.00     0.029 A 
HETATM   21  C   UNL     1      -3.271   4.634 -32.709  1.00  0.00    -0.023 A 
HETATM   22  C   UNL     1      -2.832   3.557 -31.928  1.00  0.00     0.012 A 
HETATM   23  C   UNL     1      -3.694   2.502 -31.617  1.00  0.00     0.002 A 
HETATM   24  C   UNL     1      -5.005   2.505 -32.094  1.00  0.00     0.017 A 
BRANCH  21  25
HETATM   25  C   UNL     1      -2.363   5.729 -33.014  1.00  0.00    -0.002 A 
HETATM   26  C   UNL     1      -2.544   6.637 -34.039  1.00  0.00     0.153 A 
HETATM   27  O   UNL     1      -1.537   7.549 -34.062  1.00  0.00    -0.334 OA
HETATM   28  C   UNL     1      -0.699   7.235 -33.043  1.00  0.00     0.142 A 
HETATM   29  C   UNL     1      -1.160   6.132 -32.365  1.00  0.00     0.038 A 
ENDBRANCH  21  25
ENDBRANCH   2  19
TORSDOF 7
ENDMDL
MODEL 3
REMARK VINA RESULT:      -8.6      2.573      4.158
REMARK  7 active torsions:
REMARK  status: ('A' for Active; 'I' for Inactive)
REMARK    1  A    between atoms: O_2  and  C_3 
REMARK    2  A    between atoms: C_6  and  C_7 
REMARK       I    between atoms: C_7  and  N_8 
REMARK    3  A    between atoms: N_8  and  C_9 
REMARK    4  A    between atoms: C_9  and  C_10 
REMARK    5  A    between atoms: C_10  and  N_11 
REMARK       I    between atoms: N_11  and  C_12 
REMARK    6  A    between atoms: C_12  and  C_13 
REMARK    7  A    between atoms: C_15  and  C_16 
ROOT
HETATM    1  N   UNL     1      -6.954   2.592 -33.763  1.00  0.00    -0.355 N 
HETATM    2  C   UNL     1      -6.822   1.653 -32.762  1.00  0.00     0.251 C 
HETATM    3  O   UNL     1      -7.501   1.664 -31.740  1.00  0.00    -0.268 OA
HETATM    4  H   UNL     1      -6.243   2.670 -34.478  1.00  0.00     0.162 HD
ENDROOT
BRANCH   1   5
HETATM    5  C   UNL     1      -7.905   3.685 -33.650  1.00  0.00     0.142 C 
BRANCH   5   6
HETATM    6  C   UNL     1      -7.242   5.060 -33.793  1.00  0.00     0.142 C 
BRANCH   6   7
HETATM    7  N   UNL     1      -5.925   5.118 -33.186  1.00  0.00    -0.355 N 
HETATM    8  C   UNL     1      -4.784   4.931 -33.938  1.00  0.00     0.251 C 
HETATM    9  O   UNL     1      -4.809   4.734 -35.148  1.00  0.00    -0.268 OA
HETATM   10  H   UNL     1      -5.859   5.476 -32.244  1.00  0.00     0.162 HD
BRANCH   8  11
HETATM   11  C   UNL     1      -3.483   5.007 -33.215  1.00  0.00     0.032 A 
HETATM   12  C   UNL     1      -3.228   4.274 -32.049  1.00  0.00     0.020 A 
HETATM   13  C   UNL     1      -1.980   4.357 -31.417  1.00  0.00     0.038 A 
HETATM   14  C   UNL     1      -0.974   5.164 -31.950  1.00  0.00     0.068 A 
HETATM   15  C   UNL     1      -1.228   5.890 -33.117  1.00  0.00     0.038 A 
HETATM   16  C   UNL     1      -2.470   5.810 -33.751  1.00  0.00     0.020 A 
BRANCH  14  17
HETATM   17  O   UNL     1       0.284   5.326 -31.439  1.00  0.00    -0.356 OA
HETATM   18  C   UNL     1       0.447   5.096 -30.045  1.00  0.00     0.210 C 
ENDBRANCH  14  17
ENDBRANCH   8  11
ENDBRANCH   6   7
ENDBRANCH   5   6
ENDBRANCH   1   5
BRANCH   2  19
HETATM   19  C   UNL     1      -5.765   0.620 -32.952  1.00  0.00     0.032 A 
HETATM   20  C   UNL     1      -6.132  -0.608 -33.523  1.00  0.00     0.029 A 
HETATM   21  C   UNL     1      -5.180  -1.616 -33.727  1.00  0.00    -0.023 A 
HETATM   22  C   UNL     1      -3.852  -1.375 -33.351  1.00  0.00     0.012 A 
HETATM   23  C   UNL     1      -3.477  -0.147 -32.798  1.00  0.00     0.002 A 
HETATM   24  C   UNL     1      -4.430   0.852 -32.602  1.00  0.00     0.017 A 
BRANCH  21  25
HETATM   25  C   UNL     1      -5.549  -2.897 -34.312  1.00  0.00    -0.002 A 
HETATM   26  C   UNL     1      -4.719  -3.999 -34.375  1.00  0.00     0.153 A 
HETATM   27  O   UNL     1      -5.349  -5.047 -34.964  1.00  0.00    -0.334 OA
HETATM   28  C   UNL     1      -6.599  -4.627 -35.282  1.00  0.00     0.142 A 
HETATM   29  C   UNL     1      -6.776  -3.318 -34.901  1.00  0.00     0.038 A 
ENDBRANCH  21  25
ENDBRANCH   2  19
TORSDOF 7
ENDMDL
MODEL 4
REMARK VINA RESULT:      -8.5      2.182      2.745
REMARK  7 active torsions:
REMARK  status: ('A' for Active; 'I' for Inactive)
REMARK    1  A    between atoms: O_2  and  C_3 
REMARK    2  A    between atoms: C_6  and  C_7 
REMARK       I    between atoms: C_7  and  N_8 
REMARK    3  A    between atoms: N_8  and  C_9 
REMARK    4  A    between atoms: C_9  and  C_10 
REMARK    5  A    between atoms: C_10  and  N_11 
REMARK       I    between atoms: N_11  and  C_12 
REMARK    6  A    between atoms: C_12  and  C_13 
REMARK    7  A    between atoms: C_15  and  C_16 
ROOT
HETATM    1  N   UNL     1      -6.030   3.707 -34.183  1.00  0.00    -0.355 N 
HETATM    2  C   UNL     1      -5.823   2.643 -33.331  1.00  0.00     0.251 C 
HETATM    3  O   UNL     1      -5.360   2.769 -32.202  1.00  0.00    -0.268 OA
HETATM    4  H   UNL     1      -6.210   3.540 -35.164  1.00  0.00     0.162 HD
ENDROOT
BRANCH   1   5
HETATM    5  C   UNL     1      -5.680   5.063 -33.794  1.00  0.00     0.142 C 
BRANCH   5   6
HETATM    6  C   UNL     1      -4.260   5.451 -34.223  1.00  0.00     0.142 C 
BRANCH   6   7
HETATM    7  N   UNL     1      -3.402   5.781 -33.101  1.00  0.00    -0.355 N 
HETATM    8  C   UNL     1      -2.264   6.542 -33.272  1.00  0.00     0.251 C 
HETATM    9  O   UNL     1      -1.927   7.000 -34.358  1.00  0.00    -0.268 OA
HETATM   10  H   UNL     1      -3.753   5.595 -32.172  1.00  0.00     0.162 HD
BRANCH   8  11
HETATM   11  C   UNL     1      -1.451   6.819 -32.054  1.00  0.00     0.032 A 
HETATM   12  C   UNL     1      -0.090   6.501 -31.972  1.00  0.00     0.020 A 
HETATM   13  C   UNL     1       0.642   6.804 -30.816  1.00  0.00     0.038 A 
HETATM   14  C   UNL     1       0.022   7.436 -29.737  1.00  0.00     0.068 A 
HETATM   15  C   UNL     1      -1.335   7.758 -29.822  1.00  0.00     0.038 A 
HETATM   16  C   UNL     1      -2.068   7.459 -30.973  1.00  0.00     0.020 A 
BRANCH  14  17
HETATM   17  O   UNL     1       0.621   7.793 -28.561  1.00  0.00    -0.356 OA
HETATM   18  C   UNL     1       0.780   6.772 -27.583  1.00  0.00     0.210 C 
ENDBRANCH  14  17
ENDBRANCH   8  11
ENDBRANCH   6   7
ENDBRANCH   5   6
ENDBRANCH   1   5
BRANCH   2  19
HETATM   19  C   UNL     1      -6.149   1.289 -33.863  1.00  0.00     0.032 A 
HETATM   20  C   UNL     1      -5.309   0.221 -33.516  1.00  0.00     0.029 A 
HETATM   21  C   UNL     1      -5.567  -1.075 -33.984  1.00  0.00    -0.023 A 
HETATM   22  C   UNL     1      -6.683  -1.284 -34.806  1.00  0.00     0.012 A 
HETATM   23  C   UNL     1      -7.533  -0.227 -35.140  1.00  0.00     0.002 A 
HETATM   24  C   UNL     1      -7.271   1.059 -34.666  1.00  0.00     0.017 A 
BRANCH  21  25
HETATM   25  C   UNL     1      -4.700  -2.191 -33.638  1.00  0.00    -0.002 A 
HETATM   26  C   UNL     1      -3.840  -2.210 -32.557  1.00  0.00     0.153 A 
HETATM   27  O   UNL     1      -3.174  -3.391 -32.488  1.00  0.00    -0.334 OA
HETATM   28  C   UNL     1      -3.608  -4.148 -33.526  1.00  0.00     0.142 A 
HETATM   29  C   UNL     1      -4.547  -3.463 -34.261  1.00  0.00     0.038 A 
ENDBRANCH  21  25
ENDBRANCH   2  19
TORSDOF 7
ENDMDL
MODEL 5
REMARK VINA RESULT:      -8.4      2.302     10.040
REMARK  7 active torsions:
REMARK  status: ('A' for Active; 'I' for Inactive)
REMARK    1  A    between atoms: O_2  and  C_3 
REMARK    2  A    between atoms: C_6  and  C_7 
REMARK       I    between atoms: C_7  and  N_8 
REMARK    3  A    between atoms: N_8  and  C_9 
REMARK    4  A    between atoms: C_9  and  C_10 
REMARK    5  A    between atoms: C_10  and  N_11 
REMARK       I    between atoms: N_11  and  C_12 
REMARK    6  A    between atoms: C_12  and  C_13 
REMARK    7  A    between atoms: C_15  and  C_16 
ROOT
HETATM    1  N   UNL     1      -5.733   4.518 -32.120  1.00  0.00    -0.355 N 
HETATM    2  C   UNL     1      -5.308   4.820 -33.396  1.00  0.00     0.251 C 
HETATM    3  O   UNL     1      -6.059   4.834 -34.366  1.00  0.00    -0.268 OA
HETATM    4  H   UNL     1      -5.055   4.313 -31.398  1.00  0.00     0.162 HD
ENDROOT
BRANCH   1   5
HETATM    5  C   UNL     1      -7.117   4.166 -31.849  1.00  0.00     0.142 C 
BRANCH   5   6
HETATM    6  C   UNL     1      -7.251   2.841 -31.092  1.00  0.00     0.142 C 
BRANCH   6   7
HETATM    7  N   UNL     1      -7.032   1.682 -31.937  1.00  0.00    -0.355 N 
HETATM    8  C   UNL     1      -5.800   1.065 -31.998  1.00  0.00     0.251 C 
HETATM    9  O   UNL     1      -4.838   1.434 -31.333  1.00  0.00    -0.268 OA
HETATM   10  H   UNL     1      -7.844   1.233 -32.336  1.00  0.00     0.162 HD
BRANCH   8  11
HETATM   11  C   UNL     1      -5.682  -0.115 -32.900  1.00  0.00     0.032 A 
HETATM   12  C   UNL     1      -4.478  -0.808 -33.075  1.00  0.00     0.020 A 
HETATM   13  C   UNL     1      -4.421  -1.929 -33.914  1.00  0.00     0.038 A 
HETATM   14  C   UNL     1      -5.566  -2.372 -34.576  1.00  0.00     0.068 A 
HETATM   15  C   UNL     1      -6.768  -1.683 -34.396  1.00  0.00     0.038 A 
HETATM   16  C   UNL     1      -6.831  -0.566 -33.560  1.00  0.00     0.020 A 
BRANCH  14  17
HETATM   17  O   UNL     1      -5.647  -3.452 -35.412  1.00  0.00    -0.356 OA
HETATM   18  C   UNL     1      -6.549  -4.487 -35.042  1.00  0.00     0.210 C 
ENDBRANCH  14  17
ENDBRANCH   8  11
ENDBRANCH   6   7
ENDBRANCH   5   6
ENDBRANCH   1   5
BRANCH   2  19
HETATM   19  C   UNL     1      -3.854   5.093 -33.567  1.00  0.00     0.032 A 
HETATM   20  C   UNL     1      -3.095   5.384 -32.424  1.00  0.00     0.029 A 
HETATM   21  C   UNL     1      -1.721   5.647 -32.524  1.00  0.00    -0.023 A 
HETATM   22  C   UNL     1      -1.119   5.613 -33.789  1.00  0.00     0.012 A 
HETATM   23  C   UNL     1      -1.866   5.307 -34.928  1.00  0.00     0.002 A 
HETATM   24  C   UNL     1      -3.232   5.042 -34.820  1.00  0.00     0.017 A 
BRANCH  21  25
HETATM   25  C   UNL     1      -0.923   5.957 -31.347  1.00  0.00    -0.002 A 
HETATM   26  C   UNL     1      -0.352   5.013 -30.516  1.00  0.00     0.153 A 
HETATM   27  O   UNL     1       0.343   5.608 -29.512  1.00  0.00    -0.334 OA
HETATM   28  C   UNL     1       0.227   6.947 -29.693  1.00  0.00     0.142 A 
HETATM   29  C   UNL     1      -0.535   7.216 -30.806  1.00  0.00     0.038 A 
ENDBRANCH  21  25
ENDBRANCH   2  19
TORSDOF 7
ENDMDL
MODEL 6
REMARK VINA RESULT:      -8.4      1.782     11.257
REMARK  7 active torsions:
REMARK  status: ('A' for Active; 'I' for Inactive)
REMARK    1  A    between atoms: O_2  and  C_3 
REMARK    2  A    between atoms: C_6  and  C_7 
REMARK       I    between atoms: C_7  and  N_8 
REMARK    3  A    between atoms: N_8  and  C_9 
REMARK    4  A    between atoms: C_9  and  C_10 
REMARK    5  A    between atoms: C_10  and  N_11 
REMARK       I    between atoms: N_11  and  C_12 
REMARK    6  A    between atoms: C_12  and  C_13 
REMARK    7  A    between atoms: C_15  and  C_16 
ROOT
HETATM    1  N   UNL     1      -3.622   4.409 -30.899  1.00  0.00    -0.355 N 
HETATM    2  C   UNL     1      -3.420   5.772 -30.866  1.00  0.00     0.251 C 
HETATM    3  O   UNL     1      -4.338   6.585 -30.871  1.00  0.00    -0.268 OA
HETATM    4  H   UNL     1      -2.850   3.789 -31.104  1.00  0.00     0.162 HD
ENDROOT
BRANCH   1   5
HETATM    5  C   UNL     1      -4.961   3.847 -30.969  1.00  0.00     0.142 C 
BRANCH   5   6
HETATM    6  C   UNL     1      -5.458   3.688 -32.410  1.00  0.00     0.142 C 
BRANCH   6   7
HETATM    7  N   UNL     1      -5.249   2.352 -32.936  1.00  0.00    -0.355 N 
HETATM    8  C   UNL     1      -6.240   1.395 -32.869  1.00  0.00     0.251 C 
HETATM    9  O   UNL     1      -7.349   1.617 -32.394  1.00  0.00    -0.268 OA
HETATM   10  H   UNL     1      -4.433   2.198 -33.510  1.00  0.00     0.162 HD
BRANCH   8  11
HETATM   11  C   UNL     1      -5.920   0.055 -33.436  1.00  0.00     0.032 A 
HETATM   12  C   UNL     1      -4.665  -0.547 -33.276  1.00  0.00     0.020 A 
HETATM   13  C   UNL     1      -4.417  -1.821 -33.804  1.00  0.00     0.038 A 
HETATM   14  C   UNL     1      -5.422  -2.508 -34.485  1.00  0.00     0.068 A 
HETATM   15  C   UNL     1      -6.675  -1.910 -34.639  1.00  0.00     0.038 A 
HETATM   16  C   UNL     1      -6.928  -0.640 -34.114  1.00  0.00     0.020 A 
BRANCH  14  17
HETATM   17  O   UNL     1      -5.312  -3.754 -35.038  1.00  0.00    -0.356 OA
HETATM   18  C   UNL     1      -6.519  -4.481 -35.233  1.00  0.00     0.210 C 
ENDBRANCH  14  17
ENDBRANCH   8  11
ENDBRANCH   6   7
ENDBRANCH   5   6
ENDBRANCH   1   5
BRANCH   2  19
HETATM   19  C   UNL     1      -2.004   6.236 -30.869  1.00  0.00     0.032 A 
HETATM   20  C   UNL     1      -1.417   6.580 -29.642  1.00  0.00     0.029 A 
HETATM   21  C   UNL     1      -0.086   7.021 -29.583  1.00  0.00    -0.023 A 
HETATM   22  C   UNL     1       0.647   7.110 -30.774  1.00  0.00     0.012 A 
HETATM   23  C   UNL     1       0.072   6.752 -31.996  1.00  0.00     0.002 A 
HETATM   24  C   UNL     1      -1.250   6.310 -32.045  1.00  0.00     0.017 A 
BRANCH  21  25
HETATM   25  C   UNL     1       0.532   7.388 -28.319  1.00  0.00    -0.002 A 
HETATM   26  C   UNL     1       0.374   6.692 -27.136  1.00  0.00     0.153 A 
HETATM   27  O   UNL     1       1.085   7.270 -26.134  1.00  0.00    -0.334 OA
HETATM   28  C   UNL     1       1.715   8.346 -26.669  1.00  0.00     0.142 A 
HETATM   29  C   UNL     1       1.414   8.462 -28.005  1.00  0.00     0.038 A 
ENDBRANCH  21  25
ENDBRANCH   2  19
TORSDOF 7
ENDMDL
MODEL 7
REMARK VINA RESULT:      -8.4      1.291      2.265
REMARK  7 active torsions:
REMARK  status: ('A' for Active; 'I' for Inactive)
REMARK    1  A    between atoms: O_2  and  C_3 
REMARK    2  A    between atoms: C_6  and  C_7 
REMARK       I    between atoms: C_7  and  N_8 
REMARK    3  A    between atoms: N_8  and  C_9 
REMARK    4  A    between atoms: C_9  and  C_10 
REMARK    5  A    between atoms: C_10  and  N_11 
REMARK       I    between atoms: N_11  and  C_12 
REMARK    6  A    between atoms: C_12  and  C_13 
REMARK    7  A    between atoms: C_15  and  C_16 
ROOT
HETATM    1  N   UNL     1      -3.750   2.012 -31.537  1.00  0.00    -0.355 N 
HETATM    2  C   UNL     1      -4.444   1.192 -32.401  1.00  0.00     0.251 C 
HETATM    3  O   UNL     1      -5.372   1.587 -33.100  1.00  0.00    -0.268 OA
HETATM    4  H   UNL     1      -3.144   1.608 -30.836  1.00  0.00     0.162 HD
ENDROOT
BRANCH   1   5
HETATM    5  C   UNL     1      -4.102   3.413 -31.383  1.00  0.00     0.142 C 
BRANCH   5   6
HETATM    6  C   UNL     1      -3.029   4.355 -31.941  1.00  0.00     0.142 C 
BRANCH   6   7
HETATM    7  N   UNL     1      -2.435   5.201 -30.923  1.00  0.00    -0.355 N 
HETATM    8  C   UNL     1      -1.067   5.354 -30.831  1.00  0.00     0.251 C 
HETATM    9  O   UNL     1      -0.283   4.816 -31.605  1.00  0.00    -0.268 OA
HETATM   10  H   UNL     1      -3.049   5.812 -30.405  1.00  0.00     0.162 HD
BRANCH   8  11
HETATM   11  C   UNL     1      -0.561   6.243 -29.747  1.00  0.00     0.032 A 
HETATM   12  C   UNL     1       0.408   5.826 -28.826  1.00  0.00     0.020 A 
HETATM   13  C   UNL     1       0.874   6.705 -27.839  1.00  0.00     0.038 A 
HETATM   14  C   UNL     1       0.382   8.010 -27.770  1.00  0.00     0.068 A 
HETATM   15  C   UNL     1      -0.581   8.426 -28.693  1.00  0.00     0.038 A 
HETATM   16  C   UNL     1      -1.047   7.554 -29.679  1.00  0.00     0.020 A 
BRANCH  14  17
HETATM   17  O   UNL     1       0.757   8.964 -26.866  1.00  0.00    -0.356 OA
HETATM   18  C   UNL     1      -0.193   9.314 -25.867  1.00  0.00     0.210 C 
ENDBRANCH  14  17
ENDBRANCH   8  11
ENDBRANCH   6   7
ENDBRANCH   5   6
ENDBRANCH   1   5
BRANCH   2  19
HETATM   19  C   UNL     1      -4.045  -0.244 -32.423  1.00  0.00     0.032 A 
HETATM   20  C   UNL     1      -4.766  -1.119 -33.250  1.00  0.00     0.029 A 
HETATM   21  C   UNL     1      -4.435  -2.480 -33.313  1.00  0.00    -0.023 A 
HETATM   22  C   UNL     1      -3.368  -2.951 -32.536  1.00  0.00     0.012 A 
HETATM   23  C   UNL     1      -2.636  -2.080 -31.724  1.00  0.00     0.002 A 
HETATM   24  C   UNL     1      -2.970  -0.727 -31.670  1.00  0.00     0.017 A 
BRANCH  21  25
HETATM   25  C   UNL     1      -5.178  -3.400 -34.161  1.00  0.00    -0.002 A 
HETATM   26  C   UNL     1      -4.814  -4.710 -34.406  1.00  0.00     0.153 A 
HETATM   27  O   UNL     1      -5.712  -5.317 -35.224  1.00  0.00    -0.334 OA
HETATM   28  C   UNL     1      -6.669  -4.399 -35.509  1.00  0.00     0.142 A 
HETATM   29  C   UNL     1      -6.393  -3.208 -34.880  1.00  0.00     0.038 A 
ENDBRANCH  21  25
ENDBRANCH   2  19
TORSDOF 7
ENDMDL
MODEL 8
REMARK VINA RESULT:      -8.3      2.195      3.073
REMARK  7 active torsions:
REMARK  status: ('A' for Active; 'I' for Inactive)
REMARK    1  A    between atoms: O_2  and  C_3 
REMARK    2  A    between atoms: C_6  and  C_7 
REMARK       I    between atoms: C_7  and  N_8 
REMARK    3  A    between atoms: N_8  and  C_9 
REMARK    4  A    between atoms: C_9  and  C_10 
REMARK    5  A    between atoms: C_10  and  N_11 
REMARK       I    between atoms: N_11  and  C_12 
REMARK    6  A    between atoms: C_12  and  C_13 
REMARK    7  A    between atoms: C_15  and  C_16 
ROOT
HETATM    1  N   UNL     1      -4.927   3.922 -33.828  1.00  0.00    -0.355 N 
HETATM    2  C   UNL     1      -5.140   3.801 -32.471  1.00  0.00     0.251 C 
HETATM    3  O   UNL     1      -5.058   4.746 -31.694  1.00  0.00    -0.268 OA
HETATM    4  H   UNL     1      -4.797   3.094 -34.394  1.00  0.00     0.162 HD
ENDROOT
BRANCH   1   5
HETATM    5  C   UNL     1      -4.562   5.196 -34.423  1.00  0.00     0.142 C 
BRANCH   5   6
HETATM    6  C   UNL     1      -3.044   5.387 -34.522  1.00  0.00     0.142 C 
BRANCH   6   7
HETATM    7  N   UNL     1      -2.432   5.721 -33.250  1.00  0.00    -0.355 N 
HETATM    8  C   UNL     1      -1.763   6.914 -33.070  1.00  0.00     0.251 C 
HETATM    9  O   UNL     1      -1.669   7.763 -33.951  1.00  0.00    -0.268 OA
HETATM   10  H   UNL     1      -2.663   5.145 -32.453  1.00  0.00     0.162 HD
BRANCH   8  11
HETATM   11  C   UNL     1      -1.168   7.157 -31.726  1.00  0.00     0.032 A 
HETATM   12  C   UNL     1       0.054   6.597 -31.335  1.00  0.00     0.020 A 
HETATM   13  C   UNL     1       0.589   6.874 -30.069  1.00  0.00     0.038 A 
HETATM   14  C   UNL     1      -0.089   7.719 -29.189  1.00  0.00     0.068 A 
HETATM   15  C   UNL     1      -1.306   8.281 -29.583  1.00  0.00     0.038 A 
HETATM   16  C   UNL     1      -1.842   8.009 -30.844  1.00  0.00     0.020 A 
BRANCH  14  17
HETATM   17  O   UNL     1       0.326   8.075 -27.935  1.00  0.00    -0.356 OA
HETATM   18  C   UNL     1       1.601   8.695 -27.831  1.00  0.00     0.210 C 
ENDBRANCH  14  17
ENDBRANCH   8  11
ENDBRANCH   6   7
ENDBRANCH   5   6
ENDBRANCH   1   5
BRANCH   2  19
HETATM   19  C   UNL     1      -5.437   2.432 -31.962  1.00  0.00     0.032 A 
HETATM   20  C   UNL     1      -5.392   1.363 -32.870  1.00  0.00     0.029 A 
HETATM   21  C   UNL     1      -5.660   0.053 -32.448  1.00  0.00    -0.023 A 
HETATM   22  C   UNL     1      -5.973  -0.170 -31.101  1.00  0.00     0.012 A 
HETATM   23  C   UNL     1      -6.001   0.888 -30.189  1.00  0.00     0.002 A 
HETATM   24  C   UNL     1      -5.729   2.188 -30.616  1.00  0.00     0.017 A 
BRANCH  21  25
HETATM   25  C   UNL     1      -5.624  -1.063 -33.381  1.00  0.00    -0.002 A 
HETATM   26  C   UNL     1      -4.508  -1.835 -33.638  1.00  0.00     0.153 A 
HETATM   27  O   UNL     1      -4.789  -2.808 -34.543  1.00  0.00    -0.334 OA
HETATM   28  C   UNL     1      -6.098  -2.672 -34.873  1.00  0.00     0.142 A 
HETATM   29  C   UNL     1      -6.658  -1.621 -34.186  1.00  0.00     0.038 A 
ENDBRANCH  21  25
ENDBRANCH   2  19
TORSDOF 7
ENDMDL
MODEL 9
REMARK VINA RESULT:      -8.3      1.740     10.953
REMARK  7 active torsions:
REMARK  status: ('A' for Active; 'I' for Inactive)
REMARK    1  A    between atoms: O_2  and  C_3 
REMARK    2  A    between atoms: C_6  and  C_7 
REMARK       I    between atoms: C_7  and  N_8 
REMARK    3  A    between atoms: N_8  and  C_9 
REMARK    4  A    between atoms: C_9  and  C_10 
REMARK    5  A    between atoms: C_10  and  N_11 
REMARK       I    between atoms: N_11  and  C_12 
REMARK    6  A    between atoms: C_12  and  C_13 
REMARK    7  A    between atoms: C_15  and  C_16 
ROOT
HETATM    1  N   UNL     1      -4.283   4.174 -30.812  1.00  0.00    -0.355 N 
HETATM    2  C   UNL     1      -3.122   3.866 -31.488  1.00  0.00     0.251 C 
HETATM    3  O   UNL     1      -2.847   2.731 -31.864  1.00  0.00    -0.268 OA
HETATM    4  H   UNL     1      -4.372   5.064 -30.340  1.00  0.00     0.162 HD
ENDROOT
BRANCH   1   5
HETATM    5  C   UNL     1      -5.256   3.147 -30.479  1.00  0.00     0.142 C 
BRANCH   5   6
HETATM    6  C   UNL     1      -6.147   2.770 -31.668  1.00  0.00     0.142 C 
BRANCH   6   7
HETATM    7  N   UNL     1      -5.911   1.420 -32.144  1.00  0.00    -0.355 N 
HETATM    8  C   UNL     1      -6.175   1.068 -33.452  1.00  0.00     0.251 C 
HETATM    9  O   UNL     1      -6.592   1.867 -34.284  1.00  0.00    -0.268 OA
HETATM   10  H   UNL     1      -5.383   0.799 -31.549  1.00  0.00     0.162 HD
BRANCH   8  11
HETATM   11  C   UNL     1      -5.901  -0.345 -33.836  1.00  0.00     0.032 A 
HETATM   12  C   UNL     1      -4.689  -0.981 -33.541  1.00  0.00     0.020 A 
HETATM   13  C   UNL     1      -4.485  -2.321 -33.899  1.00  0.00     0.038 A 
HETATM   14  C   UNL     1      -5.493  -3.038 -34.544  1.00  0.00     0.068 A 
HETATM   15  C   UNL     1      -6.704  -2.404 -34.832  1.00  0.00     0.038 A 
HETATM   16  C   UNL     1      -6.913  -1.069 -34.477  1.00  0.00     0.020 A 
BRANCH  14  17
HETATM   17  O   UNL     1      -5.426  -4.346 -34.937  1.00  0.00    -0.356 OA
HETATM   18  C   UNL     1      -4.541  -5.191 -34.212  1.00  0.00     0.210 C 
ENDBRANCH  14  17
ENDBRANCH   8  11
ENDBRANCH   6   7
ENDBRANCH   5   6
ENDBRANCH   1   5
BRANCH   2  19
HETATM   19  C   UNL     1      -2.163   4.985 -31.710  1.00  0.00     0.032 A 
HETATM   20  C   UNL     1      -1.766   5.747 -30.602  1.00  0.00     0.029 A 
HETATM   21  C   UNL     1      -0.864   6.812 -30.750  1.00  0.00    -0.023 A 
HETATM   22  C   UNL     1      -0.365   7.098 -32.028  1.00  0.00     0.012 A 
HETATM   23  C   UNL     1      -0.744   6.330 -33.132  1.00  0.00     0.002 A 
HETATM   24  C   UNL     1      -1.638   5.271 -32.975  1.00  0.00     0.017 A 
BRANCH  21  25
HETATM   25  C   UNL     1      -0.449   7.615 -29.610  1.00  0.00    -0.002 A 
HETATM   26  C   UNL     1      -1.210   8.615 -29.037  1.00  0.00     0.153 A 
HETATM   27  O   UNL     1      -0.561   9.174 -27.983  1.00  0.00    -0.334 OA
HETATM   28  C   UNL     1       0.627   8.529 -27.866  1.00  0.00     0.142 A 
HETATM   29  C   UNL     1       0.745   7.561 -28.835  1.00  0.00     0.038 A 
ENDBRANCH  21  25
ENDBRANCH   2  19
TORSDOF 7
ENDMDL
MODEL 10
REMARK VINA RESULT:      -8.1     17.285     18.413
REMARK  7 active torsions:
REMARK  status: ('A' for Active; 'I' for Inactive)
REMARK    1  A    between atoms: O_2  and  C_3 
REMARK    2  A    between atoms: C_6  and  C_7 
REMARK       I    between atoms: C_7  and  N_8 
REMARK    3  A    between atoms: N_8  and  C_9 
REMARK    4  A    between atoms: C_9  and  C_10 
REMARK    5  A    between atoms: C_10  and  N_11 
REMARK       I    between atoms: N_11  and  C_12 
REMARK    6  A    between atoms: C_12  and  C_13 
REMARK    7  A    between atoms: C_15  and  C_16 
ROOT
HETATM    1  N   UNL     1      -7.004 -13.055 -35.939  1.00  0.00    -0.355 N 
HETATM    2  C   UNL     1      -7.270 -13.986 -36.920  1.00  0.00     0.251 C 
HETATM    3  O   UNL     1      -7.513 -15.163 -36.678  1.00  0.00    -0.268 OA
HETATM    4  H   UNL     1      -6.607 -12.159 -36.187  1.00  0.00     0.162 HD
ENDROOT
BRANCH   1   5
HETATM    5  C   UNL     1      -6.971 -13.429 -34.535  1.00  0.00     0.142 C 
BRANCH   5   6
HETATM    6  C   UNL     1      -5.591 -13.218 -33.901  1.00  0.00     0.142 C 
BRANCH   6   7
HETATM    7  N   UNL     1      -4.522 -13.165 -34.881  1.00  0.00    -0.355 N 
HETATM    8  C   UNL     1      -3.911 -14.316 -35.334  1.00  0.00     0.251 C 
HETATM    9  O   UNL     1      -4.245 -15.436 -34.964  1.00  0.00    -0.268 OA
HETATM   10  H   UNL     1      -4.363 -12.287 -35.353  1.00  0.00     0.162 HD
BRANCH   8  11
HETATM   11  C   UNL     1      -2.822 -14.149 -36.337  1.00  0.00     0.032 A 
HETATM   12  C   UNL     1      -2.799 -13.086 -37.249  1.00  0.00     0.020 A 
HETATM   13  C   UNL     1      -1.740 -12.953 -38.157  1.00  0.00     0.038 A 
HETATM   14  C   UNL     1      -0.692 -13.875 -38.156  1.00  0.00     0.068 A 
HETATM   15  C   UNL     1      -0.714 -14.932 -37.242  1.00  0.00     0.038 A 
HETATM   16  C   UNL     1      -1.766 -15.067 -36.333  1.00  0.00     0.020 A 
BRANCH  14  17
HETATM   17  O   UNL     1       0.399 -13.855 -38.980  1.00  0.00    -0.356 OA
HETATM   18  C   UNL     1       1.479 -14.715 -38.640  1.00  0.00     0.210 C 
ENDBRANCH  14  17
ENDBRANCH   8  11
ENDBRANCH   6   7
ENDBRANCH   5   6
ENDBRANCH   1   5
BRANCH   2  19
HETATM   19  C   UNL     1      -7.205 -13.506 -38.329  1.00  0.00     0.032 A 
HETATM   20  C   UNL     1      -6.116 -13.909 -39.116  1.00  0.00     0.029 A 
HETATM   21  C   UNL     1      -6.003 -13.490 -40.450  1.00  0.00    -0.023 A 
HETATM   22  C   UNL     1      -7.000 -12.663 -40.984  1.00  0.00     0.012 A 
HETATM   23  C   UNL     1      -8.096 -12.274 -40.210  1.00  0.00     0.002 A 
HETATM   24  C   UNL     1      -8.203 -12.698 -38.885  1.00  0.00     0.017 A 
BRANCH  21  25
HETATM   25  C   UNL     1      -4.874 -13.895 -41.276  1.00  0.00    -0.002 A 
HETATM   26  C   UNL     1      -4.915 -14.027 -42.650  1.00  0.00     0.153 A 
HETATM   27  O   UNL     1      -3.705 -14.404 -43.136  1.00  0.00    -0.334 OA
HETATM   28  C   UNL     1      -2.870 -14.514 -42.073  1.00  0.00     0.142 A 
HETATM   29  C   UNL     1      -3.534 -14.208 -40.908  1.00  0.00     0.038 A 
ENDBRANCH  21  25
ENDBRANCH   2  19
TORSDOF 7
ENDMDL
