MODEL 1
REMARK VINA RESULT:      -9.4      0.000      0.000
REMARK  7 active torsions:
REMARK  status: ('A' for Active; 'I' for Inactive)
REMARK    1  A    between atoms: C_2  and  C_3 
REMARK    2  A    between atoms: N_4  and  C_5 
REMARK    3  A    between atoms: C_13  and  C_14 
REMARK       I    between atoms: C_14  and  N_15 
REMARK    4  A    between atoms: N_15  and  N_16 
REMARK       I    between atoms: N_16  and  C_17 
REMARK    5  A    between atoms: C_17  and  C_18 
REMARK    6  A    between atoms: C_22  and  C_23 
REMARK    7  A    between atoms: C_26  and  O_27 
ROOT
HETATM    1  N   UNL     1      -2.658   4.125 -31.026  1.00  0.00    -0.262 N 
HETATM    2  C   UNL     1      -1.600   4.917 -31.415  1.00  0.00     0.288 C 
HETATM    3  O   UNL     1      -0.979   4.710 -32.455  1.00  0.00    -0.264 OA
HETATM    4  H   UNL     1      -3.249   4.331 -30.224  1.00  0.00     0.190 HD
ENDROOT
BRANCH   1   5
HETATM    5  N   UNL     1      -3.084   3.075 -31.850  1.00  0.00    -0.263 N 
HETATM    6  C   UNL     1      -4.264   2.444 -31.521  1.00  0.00     0.273 C 
HETATM    7  O   UNL     1      -4.900   2.787 -30.522  1.00  0.00    -0.266 OA
HETATM    8  H   UNL     1      -2.628   2.989 -32.752  1.00  0.00     0.190 HD
BRANCH   6   9
HETATM    9  C   UNL     1      -4.739   1.388 -32.402  1.00  0.00     0.077 A 
HETATM   10  C   UNL     1      -4.540   0.002 -32.418  1.00  0.00     0.053 A 
HETATM   11  N   UNL     1      -5.355  -0.499 -33.455  1.00  0.00    -0.237 N 
HETATM   12  N   UNL     1      -6.000   0.521 -34.086  1.00  0.00    -0.178 NA
HETATM   13  C   UNL     1      -5.642   1.624 -33.450  1.00  0.00     0.158 A 
BRANCH  10  14
HETATM   14  C   UNL     1      -3.750  -0.837 -31.462  1.00  0.00     0.056 C 
HETATM   15  C   UNL     1      -2.269  -0.878 -31.821  1.00  0.00     0.011 C 
ENDBRANCH  10  14
BRANCH  11  16
HETATM   16  C   UNL     1      -5.639  -1.832 -33.917  1.00  0.00     0.058 A 
HETATM   17  C   UNL     1      -6.921  -2.314 -34.192  1.00  0.00     0.031 A 
HETATM   18  C   UNL     1      -7.111  -3.622 -34.660  1.00  0.00     0.002 A 
HETATM   19  C   UNL     1      -6.026  -4.470 -34.856  1.00  0.00     0.000 A 
HETATM   20  C   UNL     1      -4.744  -4.017 -34.574  1.00  0.00     0.002 A 
HETATM   21  C   UNL     1      -4.552  -2.714 -34.104  1.00  0.00     0.031 A 
ENDBRANCH  11  16
ENDBRANCH   6   9
ENDBRANCH   1   5
BRANCH   2  22
HETATM   22  C   UNL     1      -1.293   5.997 -30.517  1.00  0.00     0.121 A 
HETATM   23  N   UNL     1      -2.011   7.160 -30.499  1.00  0.00    -0.272 N 
HETATM   24  H   UNL     1      -2.805   7.398 -31.085  1.00  0.00     0.189 HD
HETATM   25  N   UNL     1      -1.595   8.048 -29.583  1.00  0.00    -0.174 NA
HETATM   26  C   UNL     1      -0.543   7.461 -28.991  1.00  0.00     0.089 A 
HETATM   27  C   UNL     1      -0.325   6.171 -29.549  1.00  0.00     0.071 A 
BRANCH  26  28
HETATM   28  C   UNL     1       0.214   8.112 -27.917  1.00  0.00    -0.005 A 
HETATM   29  C   UNL     1      -0.108   9.410 -27.504  1.00  0.00     0.016 A 
HETATM   30  C   UNL     1       0.592  10.017 -26.456  1.00  0.00     0.037 A 
HETATM   31  C   UNL     1       1.627   9.345 -25.804  1.00  0.00     0.068 A 
HETATM   32  C   UNL     1       1.967   8.059 -26.220  1.00  0.00     0.037 A 
HETATM   33  C   UNL     1       1.264   7.447 -27.268  1.00  0.00     0.016 A 
BRANCH  31  34
HETATM   34  O   UNL     1       2.223  10.045 -24.793  1.00  0.00    -0.356 OA
HETATM   35  C   UNL     1       3.436   9.517 -24.273  1.00  0.00     0.210 C 
ENDBRANCH  31  34
ENDBRANCH  26  28
ENDBRANCH   2  22
TORSDOF 7
ENDMDL
MODEL 2
REMARK VINA RESULT:      -8.7      1.270      2.020
REMARK  7 active torsions:
REMARK  status: ('A' for Active; 'I' for Inactive)
REMARK    1  A    between atoms: C_2  and  C_3 
REMARK    2  A    between atoms: N_4  and  C_5 
REMARK    3  A    between atoms: C_13  and  C_14 
REMARK       I    between atoms: C_14  and  N_15 
REMARK    4  A    between atoms: N_15  and  N_16 
REMARK       I    between atoms: N_16  and  C_17 
REMARK    5  A    between atoms: C_17  and  C_18 
REMARK    6  A    between atoms: C_22  and  C_23 
REMARK    7  A    between atoms: C_26  and  O_27 
ROOT
HETATM    1  N   UNL     1      -2.323   5.357 -30.398  1.00  0.00    -0.262 N 
HETATM    2  C   UNL     1      -0.967   5.539 -30.235  1.00  0.00     0.288 C 
HETATM    3  O   UNL     1      -0.142   4.804 -30.773  1.00  0.00    -0.264 OA
HETATM    4  H   UNL     1      -3.023   6.006 -30.046  1.00  0.00     0.190 HD
ENDROOT
BRANCH   1   5
HETATM    5  N   UNL     1      -2.795   4.338 -31.236  1.00  0.00    -0.263 N 
HETATM    6  C   UNL     1      -4.134   4.020 -31.162  1.00  0.00     0.273 C 
HETATM    7  O   UNL     1      -4.873   4.604 -30.365  1.00  0.00    -0.266 OA
HETATM    8  H   UNL     1      -2.187   4.054 -31.995  1.00  0.00     0.190 HD
BRANCH   6   9
HETATM    9  C   UNL     1      -4.642   3.000 -32.065  1.00  0.00     0.077 A 
HETATM   10  C   UNL     1      -4.675   1.601 -31.998  1.00  0.00     0.053 A 
HETATM   11  N   UNL     1      -5.399   1.172 -33.130  1.00  0.00    -0.237 N 
HETATM   12  N   UNL     1      -5.765   2.239 -33.892  1.00  0.00    -0.178 NA
HETATM   13  C   UNL     1      -5.328   3.309 -33.250  1.00  0.00     0.158 A 
BRANCH  10  14
HETATM   14  C   UNL     1      -4.186   0.709 -30.900  1.00  0.00     0.056 C 
HETATM   15  C   UNL     1      -2.873   0.022 -31.258  1.00  0.00     0.011 C 
ENDBRANCH  10  14
BRANCH  11  16
HETATM   16  C   UNL     1      -5.829  -0.126 -33.581  1.00  0.00     0.058 A 
HETATM   17  C   UNL     1      -4.963  -1.164 -33.934  1.00  0.00     0.031 A 
HETATM   18  C   UNL     1      -5.464  -2.407 -34.344  1.00  0.00     0.002 A 
HETATM   19  C   UNL     1      -6.834  -2.634 -34.412  1.00  0.00     0.000 A 
HETATM   20  C   UNL     1      -7.713  -1.611 -34.081  1.00  0.00     0.002 A 
HETATM   21  C   UNL     1      -7.217  -0.369 -33.675  1.00  0.00     0.031 A 
ENDBRANCH  11  16
ENDBRANCH   6   9
ENDBRANCH   1   5
BRANCH   2  22
HETATM   22  C   UNL     1      -0.603   6.651 -29.400  1.00  0.00     0.121 A 
HETATM   23  N   UNL     1      -1.177   7.885 -29.533  1.00  0.00    -0.272 N 
HETATM   24  H   UNL     1      -1.890   8.159 -30.202  1.00  0.00     0.189 HD
HETATM   25  N   UNL     1      -0.730   8.796 -28.655  1.00  0.00    -0.174 NA
HETATM   26  C   UNL     1       0.196   8.147 -27.931  1.00  0.00     0.089 A 
HETATM   27  C   UNL     1       0.301   6.797 -28.368  1.00  0.00     0.071 A 
BRANCH  26  28
HETATM   28  C   UNL     1       0.940   8.799 -26.849  1.00  0.00    -0.005 A 
HETATM   29  C   UNL     1       1.905   8.094 -26.122  1.00  0.00     0.016 A 
HETATM   30  C   UNL     1       2.638   8.727 -25.112  1.00  0.00     0.037 A 
HETATM   31  C   UNL     1       2.420  10.071 -24.806  1.00  0.00     0.068 A 
HETATM   32  C   UNL     1       1.448  10.777 -25.513  1.00  0.00     0.037 A 
HETATM   33  C   UNL     1       0.714  10.146 -26.528  1.00  0.00     0.016 A 
BRANCH  31  34
HETATM   34  O   UNL     1       3.208  10.570 -23.807  1.00  0.00    -0.356 OA
HETATM   35  C   UNL     1       3.379   9.755 -22.655  1.00  0.00     0.210 C 
ENDBRANCH  31  34
ENDBRANCH  26  28
ENDBRANCH   2  22
TORSDOF 7
ENDMDL
MODEL 3
REMARK VINA RESULT:      -8.5      2.283     12.197
REMARK  7 active torsions:
REMARK  status: ('A' for Active; 'I' for Inactive)
REMARK    1  A    between atoms: C_2  and  C_3 
REMARK    2  A    between atoms: N_4  and  C_5 
REMARK    3  A    between atoms: C_13  and  C_14 
REMARK       I    between atoms: C_14  and  N_15 
REMARK    4  A    between atoms: N_15  and  N_16 
REMARK       I    between atoms: N_16  and  C_17 
REMARK    5  A    between atoms: C_17  and  C_18 
REMARK    6  A    between atoms: C_22  and  C_23 
REMARK    7  A    between atoms: C_26  and  O_27 
ROOT
HETATM    1  N   UNL     1      -3.223   5.184 -30.672  1.00  0.00    -0.262 N 
HETATM    2  C   UNL     1      -2.713   4.209 -31.501  1.00  0.00     0.288 C 
HETATM    3  O   UNL     1      -1.510   4.115 -31.733  1.00  0.00    -0.264 OA
HETATM    4  H   UNL     1      -4.199   5.225 -30.387  1.00  0.00     0.190 HD
ENDROOT
BRANCH   1   5
HETATM    5  N   UNL     1      -2.355   6.076 -30.027  1.00  0.00    -0.263 N 
HETATM    6  C   UNL     1      -2.889   6.894 -29.055  1.00  0.00     0.273 C 
HETATM    7  O   UNL     1      -4.092   6.848 -28.789  1.00  0.00    -0.266 OA
HETATM    8  H   UNL     1      -1.362   5.914 -30.149  1.00  0.00     0.190 HD
BRANCH   6   9
HETATM    9  C   UNL     1      -1.985   7.785 -28.345  1.00  0.00     0.077 A 
HETATM   10  C   UNL     1      -1.125   7.596 -27.255  1.00  0.00     0.053 A 
HETATM   11  N   UNL     1      -0.422   8.809 -27.096  1.00  0.00    -0.237 N 
HETATM   12  N   UNL     1      -0.848   9.727 -28.008  1.00  0.00    -0.178 NA
HETATM   13  C   UNL     1      -1.755   9.110 -28.746  1.00  0.00     0.158 A 
BRANCH  10  14
HETATM   14  C   UNL     1      -0.863   6.342 -26.481  1.00  0.00     0.056 C 
HETATM   15  C   UNL     1      -2.009   6.000 -25.536  1.00  0.00     0.011 C 
ENDBRANCH  10  14
BRANCH  11  16
HETATM   16  C   UNL     1       0.635   9.217 -26.209  1.00  0.00     0.058 A 
HETATM   17  C   UNL     1       1.799   8.479 -25.979  1.00  0.00     0.031 A 
HETATM   18  C   UNL     1       2.793   8.957 -25.114  1.00  0.00     0.002 A 
HETATM   19  C   UNL     1       2.640  10.176 -24.461  1.00  0.00     0.000 A 
HETATM   20  C   UNL     1       1.484  10.919 -24.663  1.00  0.00     0.002 A 
HETATM   21  C   UNL     1       0.489  10.442 -25.523  1.00  0.00     0.031 A 
ENDBRANCH  11  16
ENDBRANCH   6   9
ENDBRANCH   1   5
BRANCH   2  22
HETATM   22  C   UNL     1      -3.694   3.318 -32.059  1.00  0.00     0.121 A 
HETATM   23  N   UNL     1      -4.936   3.743 -32.440  1.00  0.00    -0.272 N 
HETATM   24  H   UNL     1      -5.305   4.686 -32.378  1.00  0.00     0.189 HD
HETATM   25  N   UNL     1      -5.711   2.778 -32.959  1.00  0.00    -0.174 NA
HETATM   26  C   UNL     1      -4.962   1.666 -32.892  1.00  0.00     0.089 A 
HETATM   27  C   UNL     1      -3.688   1.966 -32.336  1.00  0.00     0.071 A 
BRANCH  26  28
HETATM   28  C   UNL     1      -5.451   0.366 -33.363  1.00  0.00    -0.005 A 
HETATM   29  C   UNL     1      -6.760   0.226 -33.840  1.00  0.00     0.016 A 
HETATM   30  C   UNL     1      -7.214  -1.006 -34.320  1.00  0.00     0.037 A 
HETATM   31  C   UNL     1      -6.375  -2.122 -34.330  1.00  0.00     0.068 A 
HETATM   32  C   UNL     1      -5.076  -1.998 -33.840  1.00  0.00     0.037 A 
HETATM   33  C   UNL     1      -4.618  -0.762 -33.361  1.00  0.00     0.016 A 
BRANCH  31  34
HETATM   34  O   UNL     1      -6.938  -3.262 -34.833  1.00  0.00    -0.356 OA
HETATM   35  C   UNL     1      -6.098  -4.405 -34.931  1.00  0.00     0.210 C 
ENDBRANCH  31  34
ENDBRANCH  26  28
ENDBRANCH   2  22
TORSDOF 7
ENDMDL
MODEL 4
REMARK VINA RESULT:      -8.4      3.692     12.186
REMARK  7 active torsions:
REMARK  status: ('A' for Active; 'I' for Inactive)
REMARK    1  A    between atoms: C_2  and  C_3 
REMARK    2  A    between atoms: N_4  and  C_5 
REMARK    3  A    between atoms: C_13  and  C_14 
REMARK       I    between atoms: C_14  and  N_15 
REMARK    4  A    between atoms: N_15  and  N_16 
REMARK       I    between atoms: N_16  and  C_17 
REMARK    5  A    between atoms: C_17  and  C_18 
REMARK    6  A    between atoms: C_22  and  C_23 
REMARK    7  A    between atoms: C_26  and  O_27 
ROOT
HETATM    1  N   UNL     1      -4.321   3.357 -32.071  1.00  0.00    -0.262 N 
HETATM    2  C   UNL     1      -5.465   2.901 -31.456  1.00  0.00     0.288 C 
HETATM    3  O   UNL     1      -5.559   2.818 -30.233  1.00  0.00    -0.264 OA
HETATM    4  H   UNL     1      -4.250   3.528 -33.071  1.00  0.00     0.190 HD
ENDROOT
BRANCH   1   5
HETATM    5  N   UNL     1      -3.236   3.789 -31.296  1.00  0.00    -0.263 N 
HETATM    6  C   UNL     1      -2.682   5.014 -31.600  1.00  0.00     0.273 C 
HETATM    7  O   UNL     1      -3.120   5.684 -32.539  1.00  0.00    -0.266 OA
HETATM    8  H   UNL     1      -3.069   3.292 -30.428  1.00  0.00     0.190 HD
BRANCH   6   9
HETATM    9  C   UNL     1      -1.590   5.492 -30.767  1.00  0.00     0.077 A 
HETATM   10  C   UNL     1      -1.470   6.573 -29.884  1.00  0.00     0.053 A 
HETATM   11  N   UNL     1      -0.199   6.450 -29.284  1.00  0.00    -0.237 N 
HETATM   12  N   UNL     1       0.463   5.374 -29.792  1.00  0.00    -0.178 NA
HETATM   13  C   UNL     1      -0.369   4.810 -30.651  1.00  0.00     0.158 A 
BRANCH  10  14
HETATM   14  C   UNL     1      -2.503   7.591 -29.512  1.00  0.00     0.056 C 
HETATM   15  C   UNL     1      -3.394   7.116 -28.370  1.00  0.00     0.011 C 
ENDBRANCH  10  14
BRANCH  11  16
HETATM   16  C   UNL     1       0.473   7.200 -28.256  1.00  0.00     0.058 A 
HETATM   17  C   UNL     1       1.250   8.337 -28.490  1.00  0.00     0.031 A 
HETATM   18  C   UNL     1       1.854   9.024 -27.429  1.00  0.00     0.002 A 
HETATM   19  C   UNL     1       1.698   8.586 -26.118  1.00  0.00     0.000 A 
HETATM   20  C   UNL     1       0.943   7.449 -25.863  1.00  0.00     0.002 A 
HETATM   21  C   UNL     1       0.341   6.759 -26.920  1.00  0.00     0.031 A 
ENDBRANCH  11  16
ENDBRANCH   6   9
ENDBRANCH   1   5
BRANCH   2  22
HETATM   22  C   UNL     1      -6.530   2.541 -32.352  1.00  0.00     0.121 A 
HETATM   23  N   UNL     1      -6.301   1.921 -33.548  1.00  0.00    -0.272 N 
HETATM   24  H   UNL     1      -5.402   1.655 -33.937  1.00  0.00     0.189 HD
HETATM   25  N   UNL     1      -7.414   1.642 -34.245  1.00  0.00    -0.174 NA
HETATM   26  C   UNL     1      -8.416   2.121 -33.491  1.00  0.00     0.089 A 
HETATM   27  C   UNL     1      -7.900   2.690 -32.294  1.00  0.00     0.071 A 
BRANCH  26  28
HETATM   28  C   UNL     1      -9.820   2.019 -33.903  1.00  0.00    -0.005 A 
HETATM   29  C   UNL     1     -10.605   0.934 -33.497  1.00  0.00     0.016 A 
HETATM   30  C   UNL     1     -11.953   0.855 -33.862  1.00  0.00     0.037 A 
HETATM   31  C   UNL     1     -12.542   1.854 -34.640  1.00  0.00     0.068 A 
HETATM   32  C   UNL     1     -11.764   2.930 -35.064  1.00  0.00     0.037 A 
HETATM   33  C   UNL     1     -10.413   3.012 -34.697  1.00  0.00     0.016 A 
BRANCH  31  34
HETATM   34  O   UNL     1     -13.866   1.662 -34.918  1.00  0.00    -0.356 OA
HETATM   35  C   UNL     1     -14.524   0.611 -34.222  1.00  0.00     0.210 C 
ENDBRANCH  31  34
ENDBRANCH  26  28
ENDBRANCH   2  22
TORSDOF 7
ENDMDL
MODEL 5
REMARK VINA RESULT:      -8.2      8.848     13.301
REMARK  7 active torsions:
REMARK  status: ('A' for Active; 'I' for Inactive)
REMARK    1  A    between atoms: C_2  and  C_3 
REMARK    2  A    between atoms: N_4  and  C_5 
REMARK    3  A    between atoms: C_13  and  C_14 
REMARK       I    between atoms: C_14  and  N_15 
REMARK    4  A    between atoms: N_15  and  N_16 
REMARK       I    between atoms: N_16  and  C_17 
REMARK    5  A    between atoms: C_17  and  C_18 
REMARK    6  A    between atoms: C_22  and  C_23 
REMARK    7  A    between atoms: C_26  and  O_27 
ROOT
HETATM    1  N   UNL     1     -11.601   1.509 -33.223  1.00  0.00    -0.262 N 
HETATM    2  C   UNL     1     -10.306   1.899 -32.961  1.00  0.00     0.288 C 
HETATM    3  O   UNL     1     -10.049   2.868 -32.250  1.00  0.00    -0.264 OA
HETATM    4  H   UNL     1     -11.841   0.657 -33.726  1.00  0.00     0.190 HD
ENDROOT
BRANCH   1   5
HETATM    5  N   UNL     1     -12.671   2.197 -32.634  1.00  0.00    -0.263 N 
HETATM    6  C   UNL     1     -13.886   2.161 -33.282  1.00  0.00     0.273 C 
HETATM    7  O   UNL     1     -14.008   1.562 -34.353  1.00  0.00    -0.266 OA
HETATM    8  H   UNL     1     -12.551   2.485 -31.670  1.00  0.00     0.190 HD
BRANCH   6   9
HETATM    9  C   UNL     1     -15.013   2.828 -32.649  1.00  0.00     0.077 A 
HETATM   10  C   UNL     1     -15.239   4.156 -32.263  1.00  0.00     0.053 A 
HETATM   11  N   UNL     1     -16.571   4.209 -31.803  1.00  0.00    -0.237 N 
HETATM   12  N   UNL     1     -17.141   2.974 -31.855  1.00  0.00    -0.178 NA
HETATM   13  C   UNL     1     -16.222   2.173 -32.368  1.00  0.00     0.158 A 
BRANCH  10  14
HETATM   14  C   UNL     1     -14.334   5.338 -32.422  1.00  0.00     0.056 C 
HETATM   15  C   UNL     1     -13.438   5.544 -31.206  1.00  0.00     0.011 C 
ENDBRANCH  10  14
BRANCH  11  16
HETATM   16  C   UNL     1     -17.403   5.290 -31.344  1.00  0.00     0.058 A 
HETATM   17  C   UNL     1     -18.490   5.805 -32.056  1.00  0.00     0.031 A 
HETATM   18  C   UNL     1     -19.264   6.847 -31.529  1.00  0.00     0.002 A 
HETATM   19  C   UNL     1     -18.965   7.395 -30.286  1.00  0.00     0.000 A 
HETATM   20  C   UNL     1     -17.880   6.910 -29.568  1.00  0.00     0.002 A 
HETATM   21  C   UNL     1     -17.104   5.873 -30.093  1.00  0.00     0.031 A 
ENDBRANCH  11  16
ENDBRANCH   6   9
ENDBRANCH   1   5
BRANCH   2  22
HETATM   22  C   UNL     1      -9.294   1.083 -33.575  1.00  0.00     0.121 A 
HETATM   23  N   UNL     1      -9.005   1.155 -34.909  1.00  0.00    -0.272 N 
HETATM   24  H   UNL     1      -9.446   1.756 -35.598  1.00  0.00     0.189 HD
HETATM   25  N   UNL     1      -8.019   0.335 -35.303  1.00  0.00    -0.174 NA
HETATM   26  C   UNL     1      -7.660  -0.325 -34.191  1.00  0.00     0.089 A 
HETATM   27  C   UNL     1      -8.436   0.119 -33.085  1.00  0.00     0.071 A 
BRANCH  26  28
HETATM   28  C   UNL     1      -6.597  -1.335 -34.191  1.00  0.00    -0.005 A 
HETATM   29  C   UNL     1      -6.843  -2.629 -34.665  1.00  0.00     0.016 A 
HETATM   30  C   UNL     1      -5.819  -3.582 -34.696  1.00  0.00     0.037 A 
HETATM   31  C   UNL     1      -4.534  -3.265 -34.252  1.00  0.00     0.068 A 
HETATM   32  C   UNL     1      -4.284  -1.985 -33.762  1.00  0.00     0.037 A 
HETATM   33  C   UNL     1      -5.308  -1.027 -33.732  1.00  0.00     0.016 A 
BRANCH  31  34
HETATM   34  O   UNL     1      -3.625  -4.281 -34.345  1.00  0.00    -0.356 OA
HETATM   35  C   UNL     1      -3.447  -5.092 -33.191  1.00  0.00     0.210 C 
ENDBRANCH  31  34
ENDBRANCH  26  28
ENDBRANCH   2  22
TORSDOF 7
ENDMDL
MODEL 6
REMARK VINA RESULT:      -8.1      2.987      4.033
REMARK  7 active torsions:
REMARK  status: ('A' for Active; 'I' for Inactive)
REMARK    1  A    between atoms: C_2  and  C_3 
REMARK    2  A    between atoms: N_4  and  C_5 
REMARK    3  A    between atoms: C_13  and  C_14 
REMARK       I    between atoms: C_14  and  N_15 
REMARK    4  A    between atoms: N_15  and  N_16 
REMARK       I    between atoms: N_16  and  C_17 
REMARK    5  A    between atoms: C_17  and  C_18 
REMARK    6  A    between atoms: C_22  and  C_23 
REMARK    7  A    between atoms: C_26  and  O_27 
ROOT
HETATM    1  N   UNL     1      -3.317   4.083 -31.470  1.00  0.00    -0.262 N 
HETATM    2  C   UNL     1      -2.256   4.703 -32.092  1.00  0.00     0.288 C 
HETATM    3  O   UNL     1      -2.181   4.796 -33.315  1.00  0.00    -0.264 OA
HETATM    4  H   UNL     1      -3.452   4.077 -30.462  1.00  0.00     0.190 HD
ENDROOT
BRANCH   1   5
HETATM    5  N   UNL     1      -4.376   3.576 -32.235  1.00  0.00    -0.263 N 
HETATM    6  C   UNL     1      -5.362   2.875 -31.575  1.00  0.00     0.273 C 
HETATM    7  O   UNL     1      -5.289   2.687 -30.359  1.00  0.00    -0.266 OA
HETATM    8  H   UNL     1      -4.474   3.942 -33.176  1.00  0.00     0.190 HD
BRANCH   6   9
HETATM    9  C   UNL     1      -6.491   2.393 -32.355  1.00  0.00     0.077 A 
HETATM   10  C   UNL     1      -7.861   2.289 -32.081  1.00  0.00     0.053 A 
HETATM   11  N   UNL     1      -8.467   1.849 -33.277  1.00  0.00    -0.237 N 
HETATM   12  N   UNL     1      -7.525   1.644 -34.238  1.00  0.00    -0.178 NA
HETATM   13  C   UNL     1      -6.370   1.981 -33.691  1.00  0.00     0.158 A 
BRANCH  10  14
HETATM   14  C   UNL     1      -8.596   2.690 -30.840  1.00  0.00     0.056 C 
HETATM   15  C   UNL     1      -8.793   4.199 -30.750  1.00  0.00     0.011 C 
ENDBRANCH  10  14
BRANCH  11  16
HETATM   16  C   UNL     1      -9.838   1.623 -33.651  1.00  0.00     0.058 A 
HETATM   17  C   UNL     1     -10.599   0.528 -33.233  1.00  0.00     0.031 A 
HETATM   18  C   UNL     1     -11.938   0.393 -33.627  1.00  0.00     0.002 A 
HETATM   19  C   UNL     1     -12.536   1.344 -34.447  1.00  0.00     0.000 A 
HETATM   20  C   UNL     1     -11.794   2.431 -34.888  1.00  0.00     0.002 A 
HETATM   21  C   UNL     1     -10.457   2.567 -34.499  1.00  0.00     0.031 A 
ENDBRANCH  11  16
ENDBRANCH   6   9
ENDBRANCH   1   5
BRANCH   2  22
HETATM   22  C   UNL     1      -1.259   5.232 -31.201  1.00  0.00     0.121 A 
HETATM   23  N   UNL     1       0.078   5.023 -31.392  1.00  0.00    -0.272 N 
HETATM   24  H   UNL     1       0.513   4.494 -32.141  1.00  0.00     0.189 HD
HETATM   25  N   UNL     1       0.862   5.608 -30.474  1.00  0.00    -0.174 NA
HETATM   26  C   UNL     1       0.009   6.205 -29.627  1.00  0.00     0.089 A 
HETATM   27  C   UNL     1      -1.332   5.994 -30.053  1.00  0.00     0.071 A 
BRANCH  26  28
HETATM   28  C   UNL     1       0.469   6.965 -28.460  1.00  0.00    -0.005 A 
HETATM   29  C   UNL     1       1.192   8.153 -28.623  1.00  0.00     0.016 A 
HETATM   30  C   UNL     1       1.602   8.894 -27.509  1.00  0.00     0.037 A 
HETATM   31  C   UNL     1       1.302   8.465 -26.215  1.00  0.00     0.068 A 
HETATM   32  C   UNL     1       0.597   7.274 -26.043  1.00  0.00     0.037 A 
HETATM   33  C   UNL     1       0.183   6.531 -27.158  1.00  0.00     0.016 A 
BRANCH  31  34
HETATM   34  O   UNL     1       1.750   9.284 -25.218  1.00  0.00    -0.356 OA
HETATM   35  C   UNL     1       2.905   8.858 -24.506  1.00  0.00     0.210 C 
ENDBRANCH  31  34
ENDBRANCH  26  28
ENDBRANCH   2  22
TORSDOF 7
ENDMDL
MODEL 7
REMARK VINA RESULT:      -7.7      4.851      5.993
REMARK  7 active torsions:
REMARK  status: ('A' for Active; 'I' for Inactive)
REMARK    1  A    between atoms: C_2  and  C_3 
REMARK    2  A    between atoms: N_4  and  C_5 
REMARK    3  A    between atoms: C_13  and  C_14 
REMARK       I    between atoms: C_14  and  N_15 
REMARK    4  A    between atoms: N_15  and  N_16 
REMARK       I    between atoms: N_16  and  C_17 
REMARK    5  A    between atoms: C_17  and  C_18 
REMARK    6  A    between atoms: C_22  and  C_23 
REMARK    7  A    between atoms: C_26  and  O_27 
ROOT
HETATM    1  N   UNL     1      -6.372   6.133 -33.021  1.00  0.00    -0.262 N 
HETATM    2  C   UNL     1      -6.118   6.632 -31.763  1.00  0.00     0.288 C 
HETATM    3  O   UNL     1      -7.011   6.794 -30.934  1.00  0.00    -0.264 OA
HETATM    4  H   UNL     1      -5.642   5.898 -33.690  1.00  0.00     0.190 HD
ENDROOT
BRANCH   1   5
HETATM    5  N   UNL     1      -7.674   5.748 -33.370  1.00  0.00    -0.263 N 
HETATM    6  C   UNL     1      -7.884   4.423 -33.685  1.00  0.00     0.273 C 
HETATM    7  O   UNL     1      -6.947   3.621 -33.678  1.00  0.00    -0.266 OA
HETATM    8  H   UNL     1      -8.416   6.404 -33.156  1.00  0.00     0.190 HD
BRANCH   6   9
HETATM    9  C   UNL     1      -9.242   4.006 -33.997  1.00  0.00     0.077 A 
HETATM   10  C   UNL     1     -10.076   3.010 -33.472  1.00  0.00     0.053 A 
HETATM   11  N   UNL     1     -11.324   3.167 -34.110  1.00  0.00    -0.237 N 
HETATM   12  N   UNL     1     -11.268   4.179 -35.019  1.00  0.00    -0.178 NA
HETATM   13  C   UNL     1     -10.045   4.675 -34.934  1.00  0.00     0.158 A 
BRANCH  10  14
HETATM   14  C   UNL     1      -9.792   2.048 -32.360  1.00  0.00     0.056 C 
HETATM   15  C   UNL     1      -9.653   0.615 -32.860  1.00  0.00     0.011 C 
ENDBRANCH  10  14
BRANCH  11  16
HETATM   16  C   UNL     1     -12.592   2.504 -33.954  1.00  0.00     0.058 A 
HETATM   17  C   UNL     1     -13.017   1.422 -34.729  1.00  0.00     0.031 A 
HETATM   18  C   UNL     1     -14.260   0.819 -34.498  1.00  0.00     0.002 A 
HETATM   19  C   UNL     1     -15.101   1.286 -33.494  1.00  0.00     0.000 A 
HETATM   20  C   UNL     1     -14.706   2.371 -32.721  1.00  0.00     0.002 A 
HETATM   21  C   UNL     1     -13.467   2.977 -32.952  1.00  0.00     0.031 A 
ENDBRANCH  11  16
ENDBRANCH   6   9
ENDBRANCH   1   5
BRANCH   2  22
HETATM   22  C   UNL     1      -4.738   6.938 -31.501  1.00  0.00     0.121 A 
HETATM   23  N   UNL     1      -3.817   7.074 -32.502  1.00  0.00    -0.272 N 
HETATM   24  H   UNL     1      -3.978   6.978 -33.499  1.00  0.00     0.189 HD
HETATM   25  N   UNL     1      -2.582   7.379 -32.074  1.00  0.00    -0.174 NA
HETATM   26  C   UNL     1      -2.685   7.420 -30.736  1.00  0.00     0.089 A 
HETATM   27  C   UNL     1      -4.025   7.151 -30.339  1.00  0.00     0.071 A 
BRANCH  26  28
HETATM   28  C   UNL     1      -1.539   7.723 -29.873  1.00  0.00    -0.005 A 
HETATM   29  C   UNL     1      -0.307   7.089 -30.074  1.00  0.00     0.016 A 
HETATM   30  C   UNL     1       0.794   7.404 -29.272  1.00  0.00     0.037 A 
HETATM   31  C   UNL     1       0.689   8.352 -28.253  1.00  0.00     0.068 A 
HETATM   32  C   UNL     1      -0.538   8.975 -28.033  1.00  0.00     0.037 A 
HETATM   33  C   UNL     1      -1.644   8.663 -28.838  1.00  0.00     0.016 A 
BRANCH  31  34
HETATM   34  O   UNL     1       1.840   8.573 -27.550  1.00  0.00    -0.356 OA
HETATM   35  C   UNL     1       1.891   8.065 -26.223  1.00  0.00     0.210 C 
ENDBRANCH  31  34
ENDBRANCH  26  28
ENDBRANCH   2  22
TORSDOF 7
ENDMDL
MODEL 8
REMARK VINA RESULT:      -7.5      3.060     12.289
REMARK  7 active torsions:
REMARK  status: ('A' for Active; 'I' for Inactive)
REMARK    1  A    between atoms: C_2  and  C_3 
REMARK    2  A    between atoms: N_4  and  C_5 
REMARK    3  A    between atoms: C_13  and  C_14 
REMARK       I    between atoms: C_14  and  N_15 
REMARK    4  A    between atoms: N_15  and  N_16 
REMARK       I    between atoms: N_16  and  C_17 
REMARK    5  A    between atoms: C_17  and  C_18 
REMARK    6  A    between atoms: C_22  and  C_23 
REMARK    7  A    between atoms: C_26  and  O_27 
ROOT
HETATM    1  N   UNL     1      -2.455   5.773 -30.351  1.00  0.00    -0.262 N 
HETATM    2  C   UNL     1      -2.174   4.866 -31.348  1.00  0.00     0.288 C 
HETATM    3  O   UNL     1      -1.025   4.516 -31.607  1.00  0.00    -0.264 OA
HETATM    4  H   UNL     1      -3.399   6.006 -30.052  1.00  0.00     0.190 HD
ENDROOT
BRANCH   1   5
HETATM    5  N   UNL     1      -1.416   6.291 -29.565  1.00  0.00    -0.263 N 
HETATM    6  C   UNL     1      -1.615   7.519 -28.973  1.00  0.00     0.273 C 
HETATM    7  O   UNL     1      -2.665   8.139 -29.155  1.00  0.00    -0.266 OA
HETATM    8  H   UNL     1      -0.682   5.645 -29.297  1.00  0.00     0.190 HD
BRANCH   6   9
HETATM    9  C   UNL     1      -0.563   8.038 -28.113  1.00  0.00     0.077 A 
HETATM   10  C   UNL     1      -0.569   8.574 -26.819  1.00  0.00     0.053 A 
HETATM   11  N   UNL     1       0.782   8.796 -26.480  1.00  0.00    -0.237 N 
HETATM   12  N   UNL     1       1.593   8.460 -27.521  1.00  0.00    -0.178 NA
HETATM   13  C   UNL     1       0.794   8.001 -28.469  1.00  0.00     0.158 A 
BRANCH  10  14
HETATM   14  C   UNL     1      -1.731   8.755 -25.892  1.00  0.00     0.056 C 
HETATM   15  C   UNL     1      -2.295   7.423 -25.409  1.00  0.00     0.011 C 
ENDBRANCH  10  14
BRANCH  11  16
HETATM   16  C   UNL     1       1.424   9.259 -25.279  1.00  0.00     0.058 A 
HETATM   17  C   UNL     1       0.942  10.296 -24.476  1.00  0.00     0.031 A 
HETATM   18  C   UNL     1       1.618  10.673 -23.307  1.00  0.00     0.002 A 
HETATM   19  C   UNL     1       2.787  10.025 -22.923  1.00  0.00     0.000 A 
HETATM   20  C   UNL     1       3.294   9.003 -23.715  1.00  0.00     0.002 A 
HETATM   21  C   UNL     1       2.624   8.627 -24.883  1.00  0.00     0.031 A 
ENDBRANCH  11  16
ENDBRANCH   6   9
ENDBRANCH   1   5
BRANCH   2  22
HETATM   22  C   UNL     1      -3.325   4.362 -32.047  1.00  0.00     0.121 A 
HETATM   23  N   UNL     1      -3.620   4.728 -33.331  1.00  0.00    -0.272 N 
HETATM   24  H   UNL     1      -3.096   5.368 -33.920  1.00  0.00     0.189 HD
HETATM   25  N   UNL     1      -4.720   4.144 -33.830  1.00  0.00    -0.174 NA
HETATM   26  C   UNL     1      -5.187   3.383 -32.828  1.00  0.00     0.089 A 
HETATM   27  C   UNL     1      -4.336   3.492 -31.693  1.00  0.00     0.071 A 
BRANCH  26  28
HETATM   28  C   UNL     1      -6.399   2.569 -32.964  1.00  0.00    -0.005 A 
HETATM   29  C   UNL     1      -6.361   1.189 -32.732  1.00  0.00     0.016 A 
HETATM   30  C   UNL     1      -7.525   0.419 -32.830  1.00  0.00     0.037 A 
HETATM   31  C   UNL     1      -8.745   1.008 -33.163  1.00  0.00     0.068 A 
HETATM   32  C   UNL     1      -8.790   2.379 -33.413  1.00  0.00     0.037 A 
HETATM   33  C   UNL     1      -7.625   3.153 -33.313  1.00  0.00     0.016 A 
BRANCH  31  34
HETATM   34  O   UNL     1      -9.806   0.148 -33.215  1.00  0.00    -0.356 OA
HETATM   35  C   UNL     1     -11.072   0.706 -33.543  1.00  0.00     0.210 C 
ENDBRANCH  31  34
ENDBRANCH  26  28
ENDBRANCH   2  22
TORSDOF 7
ENDMDL
MODEL 9
REMARK VINA RESULT:      -7.5      3.438      4.053
REMARK  7 active torsions:
REMARK  status: ('A' for Active; 'I' for Inactive)
REMARK    1  A    between atoms: C_2  and  C_3 
REMARK    2  A    between atoms: N_4  and  C_5 
REMARK    3  A    between atoms: C_13  and  C_14 
REMARK       I    between atoms: C_14  and  N_15 
REMARK    4  A    between atoms: N_15  and  N_16 
REMARK       I    between atoms: N_16  and  C_17 
REMARK    5  A    between atoms: C_17  and  C_18 
REMARK    6  A    between atoms: C_22  and  C_23 
REMARK    7  A    between atoms: C_26  and  O_27 
ROOT
HETATM    1  N   UNL     1      -3.284   5.827 -29.926  1.00  0.00    -0.262 N 
HETATM    2  C   UNL     1      -2.368   6.791 -30.285  1.00  0.00     0.288 C 
HETATM    3  O   UNL     1      -2.448   7.402 -31.348  1.00  0.00    -0.264 OA
HETATM    4  H   UNL     1      -3.299   5.377 -29.014  1.00  0.00     0.190 HD
ENDROOT
BRANCH   1   5
HETATM    5  N   UNL     1      -4.373   5.552 -30.765  1.00  0.00    -0.263 N 
HETATM    6  C   UNL     1      -4.315   4.409 -31.532  1.00  0.00     0.273 C 
HETATM    7  O   UNL     1      -3.324   3.677 -31.490  1.00  0.00    -0.266 OA
HETATM    8  H   UNL     1      -5.224   6.077 -30.594  1.00  0.00     0.190 HD
BRANCH   6   9
HETATM    9  C   UNL     1      -5.464   4.090 -32.365  1.00  0.00     0.077 A 
HETATM   10  C   UNL     1      -6.612   3.318 -32.146  1.00  0.00     0.053 A 
HETATM   11  N   UNL     1      -7.418   3.480 -33.293  1.00  0.00    -0.237 N 
HETATM   12  N   UNL     1      -6.792   4.275 -34.203  1.00  0.00    -0.178 NA
HETATM   13  C   UNL     1      -5.652   4.640 -33.642  1.00  0.00     0.158 A 
BRANCH  10  14
HETATM   14  C   UNL     1      -7.014   2.575 -30.909  1.00  0.00     0.056 C 
HETATM   15  C   UNL     1      -7.893   3.418 -29.992  1.00  0.00     0.011 C 
ENDBRANCH  10  14
BRANCH  11  16
HETATM   16  C   UNL     1      -8.732   3.006 -33.638  1.00  0.00     0.058 A 
HETATM   17  C   UNL     1      -9.860   3.822 -33.750  1.00  0.00     0.031 A 
HETATM   18  C   UNL     1     -11.102   3.284 -34.113  1.00  0.00     0.002 A 
HETATM   19  C   UNL     1     -11.240   1.922 -34.364  1.00  0.00     0.000 A 
HETATM   20  C   UNL     1     -10.136   1.090 -34.242  1.00  0.00     0.002 A 
HETATM   21  C   UNL     1      -8.896   1.624 -33.878  1.00  0.00     0.031 A 
ENDBRANCH  11  16
ENDBRANCH   6   9
ENDBRANCH   1   5
BRANCH   2  22
HETATM   22  C   UNL     1      -1.329   7.025 -29.319  1.00  0.00     0.121 A 
HETATM   23  N   UNL     1      -0.412   6.068 -28.985  1.00  0.00    -0.272 N 
HETATM   24  H   UNL     1      -0.354   5.123 -29.350  1.00  0.00     0.189 HD
HETATM   25  N   UNL     1       0.496   6.469 -28.082  1.00  0.00    -0.174 NA
HETATM   26  C   UNL     1       0.150   7.733 -27.787  1.00  0.00     0.089 A 
HETATM   27  C   UNL     1      -0.990   8.117 -28.547  1.00  0.00     0.071 A 
BRANCH  26  28
HETATM   28  C   UNL     1       0.899   8.543 -26.822  1.00  0.00    -0.005 A 
HETATM   29  C   UNL     1       0.625   9.908 -26.673  1.00  0.00     0.016 A 
HETATM   30  C   UNL     1       1.317  10.673 -25.728  1.00  0.00     0.037 A 
HETATM   31  C   UNL     1       2.295  10.094 -24.918  1.00  0.00     0.068 A 
HETATM   32  C   UNL     1       2.587   8.739 -25.071  1.00  0.00     0.037 A 
HETATM   33  C   UNL     1       1.893   7.970 -26.016  1.00  0.00     0.016 A 
BRANCH  31  34
HETATM   34  O   UNL     1       2.888  10.947 -24.031  1.00  0.00    -0.356 OA
HETATM   35  C   UNL     1       3.659  10.360 -22.990  1.00  0.00     0.210 C 
ENDBRANCH  31  34
ENDBRANCH  26  28
ENDBRANCH   2  22
TORSDOF 7
ENDMDL
MODEL 10
REMARK VINA RESULT:      -7.5      3.725      4.784
REMARK  7 active torsions:
REMARK  status: ('A' for Active; 'I' for Inactive)
REMARK    1  A    between atoms: C_2  and  C_3 
REMARK    2  A    between atoms: N_4  and  C_5 
REMARK    3  A    between atoms: C_13  and  C_14 
REMARK       I    between atoms: C_14  and  N_15 
REMARK    4  A    between atoms: N_15  and  N_16 
REMARK       I    between atoms: N_16  and  C_17 
REMARK    5  A    between atoms: C_17  and  C_18 
REMARK    6  A    between atoms: C_22  and  C_23 
REMARK    7  A    between atoms: C_26  and  O_27 
ROOT
HETATM    1  N   UNL     1      -4.184   4.490 -30.831  1.00  0.00    -0.262 N 
HETATM    2  C   UNL     1      -3.397   5.288 -31.632  1.00  0.00     0.288 C 
HETATM    3  O   UNL     1      -3.633   5.446 -32.828  1.00  0.00    -0.264 OA
HETATM    4  H   UNL     1      -4.070   4.420 -29.823  1.00  0.00     0.190 HD
ENDROOT
BRANCH   1   5
HETATM    5  N   UNL     1      -5.318   3.866 -31.367  1.00  0.00    -0.263 N 
HETATM    6  C   UNL     1      -6.449   3.813 -30.581  1.00  0.00     0.273 C 
HETATM    7  O   UNL     1      -6.440   4.281 -29.440  1.00  0.00    -0.266 OA
HETATM    8  H   UNL     1      -5.315   3.695 -32.367  1.00  0.00     0.190 HD
BRANCH   6   9
HETATM    9  C   UNL     1      -7.646   3.214 -31.150  1.00  0.00     0.077 A 
HETATM   10  C   UNL     1      -8.739   3.748 -31.843  1.00  0.00     0.053 A 
HETATM   11  N   UNL     1      -9.528   2.648 -32.239  1.00  0.00    -0.237 N 
HETATM   12  N   UNL     1      -8.984   1.486 -31.783  1.00  0.00    -0.178 NA
HETATM   13  C   UNL     1      -7.871   1.829 -31.157  1.00  0.00     0.158 A 
BRANCH  10  14
HETATM   14  C   UNL     1      -8.988   5.172 -32.236  1.00  0.00     0.056 C 
HETATM   15  C   UNL     1      -8.544   5.460 -33.665  1.00  0.00     0.011 C 
ENDBRANCH  10  14
BRANCH  11  16
HETATM   16  C   UNL     1     -10.726   2.538 -33.030  1.00  0.00     0.058 A 
HETATM   17  C   UNL     1     -11.906   3.241 -32.775  1.00  0.00     0.031 A 
HETATM   18  C   UNL     1     -13.023   3.093 -33.607  1.00  0.00     0.002 A 
HETATM   19  C   UNL     1     -12.984   2.238 -34.704  1.00  0.00     0.000 A 
HETATM   20  C   UNL     1     -11.827   1.517 -34.967  1.00  0.00     0.002 A 
HETATM   21  C   UNL     1     -10.711   1.660 -34.136  1.00  0.00     0.031 A 
ENDBRANCH  11  16
ENDBRANCH   6   9
ENDBRANCH   1   5
BRANCH   2  22
HETATM   22  C   UNL     1      -2.296   5.921 -30.958  1.00  0.00     0.121 A 
HETATM   23  N   UNL     1      -0.993   5.622 -31.245  1.00  0.00    -0.272 N 
HETATM   24  H   UNL     1      -0.656   4.951 -31.928  1.00  0.00     0.189 HD
HETATM   25  N   UNL     1      -0.099   6.323 -30.532  1.00  0.00    -0.174 NA
HETATM   26  C   UNL     1      -0.839   7.098 -29.722  1.00  0.00     0.089 A 
HETATM   27  C   UNL     1      -2.223   6.875 -29.963  1.00  0.00     0.071 A 
BRANCH  26  28
HETATM   28  C   UNL     1      -0.234   8.028 -28.764  1.00  0.00    -0.005 A 
HETATM   29  C   UNL     1      -0.984   9.077 -28.219  1.00  0.00     0.016 A 
HETATM   30  C   UNL     1      -0.417   9.945 -27.280  1.00  0.00     0.037 A 
HETATM   31  C   UNL     1       0.908   9.785 -26.870  1.00  0.00     0.068 A 
HETATM   32  C   UNL     1       1.668   8.755 -27.420  1.00  0.00     0.037 A 
HETATM   33  C   UNL     1       1.100   7.882 -28.360  1.00  0.00     0.016 A 
BRANCH  31  34
HETATM   34  O   UNL     1       1.337  10.692 -25.941  1.00  0.00    -0.356 OA
HETATM   35  C   UNL     1       0.714  10.647 -24.663  1.00  0.00     0.210 C 
ENDBRANCH  31  34
ENDBRANCH  26  28
ENDBRANCH   2  22
TORSDOF 7
ENDMDL
