MODEL 1
REMARK VINA RESULT:      -9.3      0.000      0.000
REMARK  8 active torsions:
REMARK  status: ('A' for Active; 'I' for Inactive)
REMARK    1  A    between atoms: C_4  and  O_5 
REMARK    2  A    between atoms: O_5  and  C_6 
REMARK    3  A    between atoms: C_6  and  C_7 
REMARK       I    between atoms: C_7  and  N_8 
REMARK    4  A    between atoms: N_8  and  C_9 
REMARK    5  A    between atoms: C_9  and  N_10 
REMARK    6  A    between atoms: N_10  and  C_11 
REMARK    7  A    between atoms: C_14  and  N_15 
REMARK    8  A    between atoms: N_18  and  C_19 
ROOT
HETATM    1  C   UNL     1      -5.640   5.901 -29.897  1.00  0.00     0.034 A 
HETATM    2  C   UNL     1      -4.656   5.662 -30.861  1.00  0.00     0.031 A 
HETATM    3  C   UNL     1      -4.380   4.363 -31.313  1.00  0.00     0.026 A 
HETATM    4  C   UNL     1      -5.067   3.251 -30.813  1.00  0.00     0.010 A 
HETATM    5  C   UNL     1      -5.991   3.505 -29.786  1.00  0.00     0.026 A 
HETATM    6  C   UNL     1      -6.283   4.806 -29.340  1.00  0.00     0.031 A 
ENDROOT
BRANCH   4   7
HETATM    7  N   UNL     1      -4.850   1.933 -31.258  1.00  0.00    -0.280 NA
HETATM    8  C   UNL     1      -4.000   1.747 -32.461  1.00  0.00     0.115 C 
HETATM    9  C   UNL     1      -3.707   0.252 -32.731  1.00  0.00     0.138 C 
HETATM   10  N   UNL     1      -4.966  -0.524 -32.829  1.00  0.00    -0.374 N 
HETATM   11  C   UNL     1      -5.794  -0.366 -31.605  1.00  0.00     0.138 C 
HETATM   12  C   UNL     1      -6.100   1.125 -31.333  1.00  0.00     0.115 C 
BRANCH  10  13
HETATM   13  C   UNL     1      -4.932  -1.831 -33.355  1.00  0.00     0.115 A 
HETATM   14  C   UNL     1      -3.903  -2.761 -33.102  1.00  0.00     0.187 A 
HETATM   15  F   UNL     1      -2.889  -2.455 -32.277  1.00  0.00    -0.200 F 
HETATM   16  C   UNL     1      -3.904  -4.036 -33.671  1.00  0.00     0.199 A 
HETATM   17  F   UNL     1      -2.908  -4.889 -33.391  1.00  0.00    -0.199 F 
HETATM   18  C   UNL     1      -4.927  -4.425 -34.517  1.00  0.00     0.199 A 
HETATM   19  F   UNL     1      -4.924  -5.651 -35.059  1.00  0.00    -0.199 F 
HETATM   20  C   UNL     1      -5.949  -3.540 -34.803  1.00  0.00     0.199 A 
HETATM   21  F   UNL     1      -6.939  -3.904 -35.631  1.00  0.00    -0.199 F 
HETATM   22  C   UNL     1      -5.948  -2.266 -34.237  1.00  0.00     0.187 A 
HETATM   23  F   UNL     1      -6.940  -1.428 -34.584  1.00  0.00    -0.200 F 
ENDBRANCH  10  13
ENDBRANCH   4   7
BRANCH   1  24
HETATM   24  N   UNL     1      -5.872   7.251 -29.564  1.00  0.00    -0.333 N 
HETATM   25  H   UNL     1      -6.800   7.585 -29.829  1.00  0.00     0.168 HD
BRANCH  24  26
HETATM   26  C   UNL     1      -5.152   8.180 -28.849  1.00  0.00     0.178 C 
HETATM   27  S   UNL     1      -5.529   8.958 -27.420  1.00  0.00    -0.040 SA
BRANCH  26  28
HETATM   28  N   UNL     1      -3.956   8.557 -29.443  1.00  0.00    -0.302 N 
HETATM   29  C   UNL     1      -3.746   9.314 -30.588  1.00  0.00     0.248 C 
HETATM   30  O   UNL     1      -4.648   9.669 -31.347  1.00  0.00    -0.271 OA
HETATM   31  H   UNL     1      -3.133   8.339 -28.888  1.00  0.00     0.171 HD
BRANCH  29  32
HETATM   32  C   UNL     1      -2.283   9.647 -30.848  1.00  0.00     0.278 C 
BRANCH  32  33
HETATM   33  O   UNL     1      -1.839   9.249 -32.140  1.00  0.00    -0.342 OA
BRANCH  33  34
HETATM   34  C   UNL     1      -1.536   7.922 -32.300  1.00  0.00     0.069 A 
HETATM   35  C   UNL     1      -0.839   7.131 -31.384  1.00  0.00     0.037 A 
HETATM   36  C   UNL     1      -0.613   5.777 -31.656  1.00  0.00     0.003 A 
HETATM   37  C   UNL     1      -1.082   5.210 -32.838  1.00  0.00     0.000 A 
HETATM   38  C   UNL     1      -1.786   5.994 -33.749  1.00  0.00     0.003 A 
HETATM   39  C   UNL     1      -2.020   7.343 -33.475  1.00  0.00     0.037 A 
ENDBRANCH  33  34
ENDBRANCH  32  33
ENDBRANCH  29  32
ENDBRANCH  26  28
ENDBRANCH  24  26
ENDBRANCH   1  24
TORSDOF 8
ENDMDL
MODEL 2
REMARK VINA RESULT:      -9.1      0.769      2.162
REMARK  8 active torsions:
REMARK  status: ('A' for Active; 'I' for Inactive)
REMARK    1  A    between atoms: C_4  and  O_5 
REMARK    2  A    between atoms: O_5  and  C_6 
REMARK    3  A    between atoms: C_6  and  C_7 
REMARK       I    between atoms: C_7  and  N_8 
REMARK    4  A    between atoms: N_8  and  C_9 
REMARK    5  A    between atoms: C_9  and  N_10 
REMARK    6  A    between atoms: N_10  and  C_11 
REMARK    7  A    between atoms: C_14  and  N_15 
REMARK    8  A    between atoms: N_18  and  C_19 
ROOT
HETATM    1  C   UNL     1      -6.082   6.008 -30.170  1.00  0.00     0.034 A 
HETATM    2  C   UNL     1      -5.713   5.795 -31.501  1.00  0.00     0.031 A 
HETATM    3  C   UNL     1      -5.739   4.511 -32.067  1.00  0.00     0.026 A 
HETATM    4  C   UNL     1      -6.124   3.390 -31.324  1.00  0.00     0.010 A 
HETATM    5  C   UNL     1      -6.410   3.614 -29.967  1.00  0.00     0.026 A 
HETATM    6  C   UNL     1      -6.401   4.900 -29.399  1.00  0.00     0.031 A 
ENDROOT
BRANCH   4   7
HETATM    7  N   UNL     1      -6.198   2.088 -31.856  1.00  0.00    -0.280 NA
HETATM    8  C   UNL     1      -5.929   0.955 -30.935  1.00  0.00     0.115 C 
HETATM    9  C   UNL     1      -6.214  -0.411 -31.607  1.00  0.00     0.138 C 
HETATM   10  N   UNL     1      -5.455  -0.545 -32.873  1.00  0.00    -0.374 N 
HETATM   11  C   UNL     1      -5.759   0.571 -33.806  1.00  0.00     0.138 C 
HETATM   12  C   UNL     1      -5.468   1.939 -33.147  1.00  0.00     0.115 C 
BRANCH  10  13
HETATM   13  C   UNL     1      -5.347  -1.812 -33.481  1.00  0.00     0.115 A 
HETATM   14  C   UNL     1      -6.360  -2.404 -34.264  1.00  0.00     0.187 A 
HETATM   15  F   UNL     1      -7.502  -1.748 -34.520  1.00  0.00    -0.200 F 
HETATM   16  C   UNL     1      -6.211  -3.676 -34.822  1.00  0.00     0.199 A 
HETATM   17  F   UNL     1      -7.199  -4.193 -35.568  1.00  0.00    -0.199 F 
HETATM   18  C   UNL     1      -5.054  -4.402 -34.613  1.00  0.00     0.199 A 
HETATM   19  F   UNL     1      -4.916  -5.621 -35.153  1.00  0.00    -0.199 F 
HETATM   20  C   UNL     1      -4.040  -3.864 -33.842  1.00  0.00     0.199 A 
HETATM   21  F   UNL     1      -2.919  -4.567 -33.624  1.00  0.00    -0.199 F 
HETATM   22  C   UNL     1      -4.188  -2.596 -33.281  1.00  0.00     0.187 A 
HETATM   23  F   UNL     1      -3.194  -2.139 -32.501  1.00  0.00    -0.200 F 
ENDBRANCH  10  13
ENDBRANCH   4   7
BRANCH   1  24
HETATM   24  N   UNL     1      -6.076   7.346 -29.727  1.00  0.00    -0.333 N 
HETATM   25  H   UNL     1      -6.953   7.839 -29.900  1.00  0.00     0.168 HD
BRANCH  24  26
HETATM   26  C   UNL     1      -5.175   8.092 -29.002  1.00  0.00     0.178 C 
HETATM   27  S   UNL     1      -5.355   8.846 -27.523  1.00  0.00    -0.040 SA
BRANCH  26  28
HETATM   28  N   UNL     1      -3.952   8.281 -29.631  1.00  0.00    -0.302 N 
HETATM   29  C   UNL     1      -3.626   9.140 -30.671  1.00  0.00     0.248 C 
HETATM   30  O   UNL     1      -4.454   9.800 -31.298  1.00  0.00    -0.271 OA
HETATM   31  H   UNL     1      -3.179   7.802 -29.179  1.00  0.00     0.171 HD
BRANCH  29  32
HETATM   32  C   UNL     1      -2.138   9.175 -30.998  1.00  0.00     0.278 C 
BRANCH  32  33
HETATM   33  O   UNL     1      -1.858   8.894 -32.364  1.00  0.00    -0.342 OA
BRANCH  33  34
HETATM   34  C   UNL     1      -1.799   7.571 -32.715  1.00  0.00     0.069 A 
HETATM   35  C   UNL     1      -2.285   7.022 -33.903  1.00  0.00     0.037 A 
HETATM   36  C   UNL     1      -2.143   5.654 -34.154  1.00  0.00     0.003 A 
HETATM   37  C   UNL     1      -1.515   4.830 -33.223  1.00  0.00     0.000 A 
HETATM   38  C   UNL     1      -1.020   5.376 -32.041  1.00  0.00     0.003 A 
HETATM   39  C   UNL     1      -1.154   6.743 -31.793  1.00  0.00     0.037 A 
ENDBRANCH  33  34
ENDBRANCH  32  33
ENDBRANCH  29  32
ENDBRANCH  26  28
ENDBRANCH  24  26
ENDBRANCH   1  24
TORSDOF 8
ENDMDL
MODEL 3
REMARK VINA RESULT:      -8.5      1.249      2.417
REMARK  8 active torsions:
REMARK  status: ('A' for Active; 'I' for Inactive)
REMARK    1  A    between atoms: C_4  and  O_5 
REMARK    2  A    between atoms: O_5  and  C_6 
REMARK    3  A    between atoms: C_6  and  C_7 
REMARK       I    between atoms: C_7  and  N_8 
REMARK    4  A    between atoms: N_8  and  C_9 
REMARK    5  A    between atoms: C_9  and  N_10 
REMARK    6  A    between atoms: N_10  and  C_11 
REMARK    7  A    between atoms: C_14  and  N_15 
REMARK    8  A    between atoms: N_18  and  C_19 
ROOT
HETATM    1  C   UNL     1      -6.302   5.990 -30.109  1.00  0.00     0.034 A 
HETATM    2  C   UNL     1      -5.989   5.808 -31.459  1.00  0.00     0.031 A 
HETATM    3  C   UNL     1      -5.991   4.531 -32.041  1.00  0.00     0.026 A 
HETATM    4  C   UNL     1      -6.293   3.386 -31.296  1.00  0.00     0.010 A 
HETATM    5  C   UNL     1      -6.521   3.583 -29.924  1.00  0.00     0.026 A 
HETATM    6  C   UNL     1      -6.538   4.860 -29.338  1.00  0.00     0.031 A 
ENDROOT
BRANCH   4   7
HETATM    7  N   UNL     1      -6.340   2.089 -31.842  1.00  0.00    -0.280 NA
HETATM    8  C   UNL     1      -6.106   0.948 -30.921  1.00  0.00     0.115 C 
HETATM    9  C   UNL     1      -6.358  -0.412 -31.615  1.00  0.00     0.138 C 
HETATM   10  N   UNL     1      -5.546  -0.533 -32.850  1.00  0.00    -0.374 N 
HETATM   11  C   UNL     1      -5.815   0.591 -33.785  1.00  0.00     0.138 C 
HETATM   12  C   UNL     1      -5.557   1.954 -33.102  1.00  0.00     0.115 C 
BRANCH  10  13
HETATM   13  C   UNL     1      -5.408  -1.793 -33.464  1.00  0.00     0.115 A 
HETATM   14  C   UNL     1      -6.400  -2.400 -34.262  1.00  0.00     0.187 A 
HETATM   15  F   UNL     1      -7.551  -1.762 -34.527  1.00  0.00    -0.200 F 
HETATM   16  C   UNL     1      -6.223  -3.664 -34.826  1.00  0.00     0.199 A 
HETATM   17  F   UNL     1      -7.192  -4.195 -35.585  1.00  0.00    -0.199 F 
HETATM   18  C   UNL     1      -5.054  -4.371 -34.608  1.00  0.00     0.199 A 
HETATM   19  F   UNL     1      -4.888  -5.584 -35.153  1.00  0.00    -0.199 F 
HETATM   20  C   UNL     1      -4.060  -3.819 -33.822  1.00  0.00     0.199 A 
HETATM   21  F   UNL     1      -2.928  -4.503 -33.595  1.00  0.00    -0.199 F 
HETATM   22  C   UNL     1      -4.236  -2.558 -33.256  1.00  0.00     0.187 A 
HETATM   23  F   UNL     1      -3.260  -2.087 -32.462  1.00  0.00    -0.200 F 
ENDBRANCH  10  13
ENDBRANCH   4   7
BRANCH   1  24
HETATM   24  N   UNL     1      -6.329   7.322 -29.648  1.00  0.00    -0.333 N 
HETATM   25  H   UNL     1      -7.256   7.747 -29.677  1.00  0.00     0.168 HD
BRANCH  24  26
HETATM   26  C   UNL     1      -5.386   8.130 -29.055  1.00  0.00     0.178 C 
HETATM   27  S   UNL     1      -5.525   9.151 -27.741  1.00  0.00    -0.040 SA
BRANCH  26  28
HETATM   28  N   UNL     1      -4.150   8.126 -29.686  1.00  0.00    -0.302 N 
HETATM   29  C   UNL     1      -3.665   8.977 -30.670  1.00  0.00     0.248 C 
HETATM   30  O   UNL     1      -4.352   9.825 -31.239  1.00  0.00    -0.271 OA
HETATM   31  H   UNL     1      -3.482   7.477 -29.280  1.00  0.00     0.171 HD
BRANCH  29  32
HETATM   32  C   UNL     1      -2.199   8.749 -31.015  1.00  0.00     0.278 C 
BRANCH  32  33
HETATM   33  O   UNL     1      -1.371   8.590 -29.869  1.00  0.00    -0.342 OA
BRANCH  33  34
HETATM   34  C   UNL     1      -0.640   7.433 -29.799  1.00  0.00     0.069 A 
HETATM   35  C   UNL     1      -0.172   6.836 -28.627  1.00  0.00     0.037 A 
HETATM   36  C   UNL     1       0.546   5.638 -28.689  1.00  0.00     0.003 A 
HETATM   37  C   UNL     1       0.799   5.032 -29.918  1.00  0.00     0.000 A 
HETATM   38  C   UNL     1       0.325   5.620 -31.088  1.00  0.00     0.003 A 
HETATM   39  C   UNL     1      -0.400   6.812 -31.027  1.00  0.00     0.037 A 
ENDBRANCH  33  34
ENDBRANCH  32  33
ENDBRANCH  29  32
ENDBRANCH  26  28
ENDBRANCH  24  26
ENDBRANCH   1  24
TORSDOF 8
ENDMDL
MODEL 4
REMARK VINA RESULT:      -8.3      2.286      3.474
REMARK  8 active torsions:
REMARK  status: ('A' for Active; 'I' for Inactive)
REMARK    1  A    between atoms: C_4  and  O_5 
REMARK    2  A    between atoms: O_5  and  C_6 
REMARK    3  A    between atoms: C_6  and  C_7 
REMARK       I    between atoms: C_7  and  N_8 
REMARK    4  A    between atoms: N_8  and  C_9 
REMARK    5  A    between atoms: C_9  and  N_10 
REMARK    6  A    between atoms: N_10  and  C_11 
REMARK    7  A    between atoms: C_14  and  N_15 
REMARK    8  A    between atoms: N_18  and  C_19 
ROOT
HETATM    1  C   UNL     1      -6.000   5.695 -29.562  1.00  0.00     0.034 A 
HETATM    2  C   UNL     1      -6.951   4.675 -29.466  1.00  0.00     0.031 A 
HETATM    3  C   UNL     1      -6.719   3.408 -30.023  1.00  0.00     0.026 A 
HETATM    4  C   UNL     1      -5.534   3.114 -30.706  1.00  0.00     0.010 A 
HETATM    5  C   UNL     1      -4.629   4.177 -30.863  1.00  0.00     0.026 A 
HETATM    6  C   UNL     1      -4.849   5.443 -30.294  1.00  0.00     0.031 A 
ENDROOT
BRANCH   4   7
HETATM    7  N   UNL     1      -5.240   1.850 -31.252  1.00  0.00    -0.280 NA
HETATM    8  C   UNL     1      -4.631   1.812 -32.606  1.00  0.00     0.115 C 
HETATM    9  C   UNL     1      -4.206   0.378 -33.004  1.00  0.00     0.138 C 
HETATM   10  N   UNL     1      -5.348  -0.561 -32.896  1.00  0.00    -0.374 N 
HETATM   11  C   UNL     1      -5.929  -0.548 -31.527  1.00  0.00     0.138 C 
HETATM   12  C   UNL     1      -6.365   0.880 -31.124  1.00  0.00     0.115 C 
BRANCH  10  13
HETATM   13  C   UNL     1      -5.250  -1.837 -33.484  1.00  0.00     0.115 A 
HETATM   14  C   UNL     1      -6.227  -2.395 -34.336  1.00  0.00     0.187 A 
HETATM   15  F   UNL     1      -7.318  -1.693 -34.681  1.00  0.00    -0.200 F 
HETATM   16  C   UNL     1      -6.093  -3.677 -34.872  1.00  0.00     0.199 A 
HETATM   17  F   UNL     1      -7.044  -4.159 -35.685  1.00  0.00    -0.199 F 
HETATM   18  C   UNL     1      -4.985  -4.449 -34.573  1.00  0.00     0.199 A 
HETATM   19  F   UNL     1      -4.861  -5.679 -35.092  1.00  0.00    -0.199 F 
HETATM   20  C   UNL     1      -4.010  -3.947 -33.732  1.00  0.00     0.199 A 
HETATM   21  F   UNL     1      -2.938  -4.693 -33.427  1.00  0.00    -0.199 F 
HETATM   22  C   UNL     1      -4.143  -2.668 -33.194  1.00  0.00     0.187 A 
HETATM   23  F   UNL     1      -3.190  -2.244 -32.346  1.00  0.00    -0.200 F 
ENDBRANCH  10  13
ENDBRANCH   4   7
BRANCH   1  24
HETATM   24  N   UNL     1      -6.315   6.905 -28.912  1.00  0.00    -0.333 N 
HETATM   25  H   UNL     1      -6.876   6.784 -28.068  1.00  0.00     0.168 HD
BRANCH  24  26
HETATM   26  C   UNL     1      -5.924   8.210 -29.114  1.00  0.00     0.178 C 
HETATM   27  S   UNL     1      -6.454   9.323 -30.240  1.00  0.00    -0.040 SA
BRANCH  26  28
HETATM   28  N   UNL     1      -4.897   8.634 -28.283  1.00  0.00    -0.302 N 
HETATM   29  C   UNL     1      -4.637   8.287 -26.964  1.00  0.00     0.248 C 
HETATM   30  O   UNL     1      -5.398   7.611 -26.272  1.00  0.00    -0.271 OA
HETATM   31  H   UNL     1      -4.185   9.183 -28.755  1.00  0.00     0.171 HD
BRANCH  29  32
HETATM   32  C   UNL     1      -3.326   8.846 -26.426  1.00  0.00     0.278 C 
BRANCH  32  33
HETATM   33  O   UNL     1      -2.346   7.844 -26.184  1.00  0.00    -0.342 OA
BRANCH  33  34
HETATM   34  C   UNL     1      -1.251   7.848 -27.008  1.00  0.00     0.069 A 
HETATM   35  C   UNL     1      -1.257   7.538 -28.369  1.00  0.00     0.037 A 
HETATM   36  C   UNL     1      -0.071   7.602 -29.109  1.00  0.00     0.003 A 
HETATM   37  C   UNL     1       1.121   7.977 -28.493  1.00  0.00     0.000 A 
HETATM   38  C   UNL     1       1.128   8.297 -27.138  1.00  0.00     0.003 A 
HETATM   39  C   UNL     1      -0.056   8.242 -26.401  1.00  0.00     0.037 A 
ENDBRANCH  33  34
ENDBRANCH  32  33
ENDBRANCH  29  32
ENDBRANCH  26  28
ENDBRANCH  24  26
ENDBRANCH   1  24
TORSDOF 8
ENDMDL
MODEL 5
REMARK VINA RESULT:      -8.3      4.833      6.797
REMARK  8 active torsions:
REMARK  status: ('A' for Active; 'I' for Inactive)
REMARK    1  A    between atoms: C_4  and  O_5 
REMARK    2  A    between atoms: O_5  and  C_6 
REMARK    3  A    between atoms: C_6  and  C_7 
REMARK       I    between atoms: C_7  and  N_8 
REMARK    4  A    between atoms: N_8  and  C_9 
REMARK    5  A    between atoms: C_9  and  N_10 
REMARK    6  A    between atoms: N_10  and  C_11 
REMARK    7  A    between atoms: C_14  and  N_15 
REMARK    8  A    between atoms: N_18  and  C_19 
ROOT
HETATM    1  C   UNL     1      -9.761   5.641 -30.995  1.00  0.00     0.034 A 
HETATM    2  C   UNL     1      -8.714   5.757 -31.914  1.00  0.00     0.031 A 
HETATM    3  C   UNL     1      -7.816   4.701 -32.133  1.00  0.00     0.026 A 
HETATM    4  C   UNL     1      -7.922   3.493 -31.435  1.00  0.00     0.010 A 
HETATM    5  C   UNL     1      -8.928   3.429 -30.457  1.00  0.00     0.026 A 
HETATM    6  C   UNL     1      -9.840   4.476 -30.245  1.00  0.00     0.031 A 
ENDROOT
BRANCH   4   7
HETATM    7  N   UNL     1      -7.067   2.393 -31.643  1.00  0.00    -0.280 NA
HETATM    8  C   UNL     1      -6.220   2.404 -32.863  1.00  0.00     0.115 C 
HETATM    9  C   UNL     1      -5.213   1.229 -32.873  1.00  0.00     0.138 C 
HETATM   10  N   UNL     1      -5.913  -0.068 -32.708  1.00  0.00    -0.374 N 
HETATM   11  C   UNL     1      -6.728  -0.087 -31.465  1.00  0.00     0.138 C 
HETATM   12  C   UNL     1      -7.743   1.079 -31.451  1.00  0.00     0.115 C 
BRANCH  10  13
HETATM   13  C   UNL     1      -5.222  -1.264 -32.980  1.00  0.00     0.115 A 
HETATM   14  C   UNL     1      -4.109  -1.722 -32.244  1.00  0.00     0.187 A 
HETATM   15  F   UNL     1      -3.665  -1.041 -31.176  1.00  0.00    -0.200 F 
HETATM   16  C   UNL     1      -3.443  -2.904 -32.573  1.00  0.00     0.199 A 
HETATM   17  F   UNL     1      -2.395  -3.303 -31.837  1.00  0.00    -0.199 F 
HETATM   18  C   UNL     1      -3.856  -3.665 -33.651  1.00  0.00     0.199 A 
HETATM   19  F   UNL     1      -3.214  -4.800 -33.962  1.00  0.00    -0.199 F 
HETATM   20  C   UNL     1      -4.935  -3.247 -34.408  1.00  0.00     0.199 A 
HETATM   21  F   UNL     1      -5.336  -3.972 -35.462  1.00  0.00    -0.199 F 
HETATM   22  C   UNL     1      -5.600  -2.066 -34.082  1.00  0.00     0.187 A 
HETATM   23  F   UNL     1      -6.612  -1.679 -34.877  1.00  0.00    -0.200 F 
ENDBRANCH  10  13
ENDBRANCH   4   7
BRANCH   1  24
HETATM   24  N   UNL     1     -10.636   6.742 -30.903  1.00  0.00    -0.333 N 
HETATM   25  H   UNL     1     -10.541   7.270 -30.035  1.00  0.00     0.168 HD
BRANCH  24  26
HETATM   26  C   UNL     1     -11.510   7.324 -31.792  1.00  0.00     0.178 C 
HETATM   27  S   UNL     1     -11.813   8.939 -32.093  1.00  0.00    -0.040 SA
BRANCH  26  28
HETATM   28  N   UNL     1     -12.288   6.422 -32.504  1.00  0.00    -0.302 N 
HETATM   29  C   UNL     1     -13.257   5.543 -32.039  1.00  0.00     0.248 C 
HETATM   30  O   UNL     1     -13.483   5.344 -30.845  1.00  0.00    -0.271 OA
HETATM   31  H   UNL     1     -12.205   6.512 -33.512  1.00  0.00     0.171 HD
BRANCH  29  32
HETATM   32  C   UNL     1     -14.007   4.810 -33.144  1.00  0.00     0.278 C 
BRANCH  32  33
HETATM   33  O   UNL     1     -13.150   4.295 -34.156  1.00  0.00    -0.342 OA
BRANCH  33  34
HETATM   34  C   UNL     1     -12.619   3.052 -33.930  1.00  0.00     0.069 A 
HETATM   35  C   UNL     1     -13.335   1.854 -33.902  1.00  0.00     0.037 A 
HETATM   36  C   UNL     1     -12.670   0.643 -33.684  1.00  0.00     0.003 A 
HETATM   37  C   UNL     1     -11.290   0.624 -33.494  1.00  0.00     0.000 A 
HETATM   38  C   UNL     1     -10.571   1.816 -33.531  1.00  0.00     0.003 A 
HETATM   39  C   UNL     1     -11.233   3.024 -33.758  1.00  0.00     0.037 A 
ENDBRANCH  33  34
ENDBRANCH  32  33
ENDBRANCH  29  32
ENDBRANCH  26  28
ENDBRANCH  24  26
ENDBRANCH   1  24
TORSDOF 8
ENDMDL
MODEL 6
REMARK VINA RESULT:      -8.3      1.863      2.275
REMARK  8 active torsions:
REMARK  status: ('A' for Active; 'I' for Inactive)
REMARK    1  A    between atoms: C_4  and  O_5 
REMARK    2  A    between atoms: O_5  and  C_6 
REMARK    3  A    between atoms: C_6  and  C_7 
REMARK       I    between atoms: C_7  and  N_8 
REMARK    4  A    between atoms: N_8  and  C_9 
REMARK    5  A    between atoms: C_9  and  N_10 
REMARK    6  A    between atoms: N_10  and  C_11 
REMARK    7  A    between atoms: C_14  and  N_15 
REMARK    8  A    between atoms: N_18  and  C_19 
ROOT
HETATM    1  C   UNL     1      -5.160   6.904 -29.713  1.00  0.00     0.034 A 
HETATM    2  C   UNL     1      -5.826   5.854 -29.075  1.00  0.00     0.031 A 
HETATM    3  C   UNL     1      -5.628   4.520 -29.467  1.00  0.00     0.026 A 
HETATM    4  C   UNL     1      -4.768   4.186 -30.518  1.00  0.00     0.010 A 
HETATM    5  C   UNL     1      -4.175   5.261 -31.199  1.00  0.00     0.026 A 
HETATM    6  C   UNL     1      -4.356   6.597 -30.801  1.00  0.00     0.031 A 
ENDROOT
BRANCH   4   7
HETATM    7  N   UNL     1      -4.511   2.863 -30.926  1.00  0.00    -0.280 NA
HETATM    8  C   UNL     1      -3.686   2.668 -32.145  1.00  0.00     0.115 C 
HETATM    9  C   UNL     1      -3.342   1.177 -32.374  1.00  0.00     0.138 C 
HETATM   10  N   UNL     1      -4.573   0.351 -32.412  1.00  0.00    -0.374 N 
HETATM   11  C   UNL     1      -5.375   0.519 -31.172  1.00  0.00     0.138 C 
HETATM   12  C   UNL     1      -5.731   2.006 -30.941  1.00  0.00     0.115 C 
BRANCH  10  13
HETATM   13  C   UNL     1      -4.502  -0.970 -32.896  1.00  0.00     0.115 A 
HETATM   14  C   UNL     1      -3.673  -1.972 -32.349  1.00  0.00     0.187 A 
HETATM   15  F   UNL     1      -2.917  -1.722 -31.269  1.00  0.00    -0.200 F 
HETATM   16  C   UNL     1      -3.621  -3.260 -32.885  1.00  0.00     0.199 A 
HETATM   17  F   UNL     1      -2.825  -4.181 -32.323  1.00  0.00    -0.199 F 
HETATM   18  C   UNL     1      -4.387  -3.593 -33.987  1.00  0.00     0.199 A 
HETATM   19  F   UNL     1      -4.335  -4.831 -34.496  1.00  0.00    -0.199 F 
HETATM   20  C   UNL     1      -5.204  -2.638 -34.563  1.00  0.00     0.199 A 
HETATM   21  F   UNL     1      -5.941  -2.947 -35.640  1.00  0.00    -0.199 F 
HETATM   22  C   UNL     1      -5.256  -1.350 -34.031  1.00  0.00     0.187 A 
HETATM   23  F   UNL     1      -6.030  -0.446 -34.656  1.00  0.00    -0.200 F 
ENDBRANCH  10  13
ENDBRANCH   4   7
BRANCH   1  24
HETATM   24  N   UNL     1      -5.389   8.194 -29.195  1.00  0.00    -0.333 N 
HETATM   25  H   UNL     1      -6.116   8.226 -28.480  1.00  0.00     0.168 HD
BRANCH  24  26
HETATM   26  C   UNL     1      -4.752   9.402 -29.368  1.00  0.00     0.178 C 
HETATM   27  S   UNL     1      -5.370  10.879 -29.847  1.00  0.00    -0.040 SA
BRANCH  26  28
HETATM   28  N   UNL     1      -3.381   9.361 -29.160  1.00  0.00    -0.302 N 
HETATM   29  C   UNL     1      -2.679   9.025 -28.010  1.00  0.00     0.248 C 
HETATM   30  O   UNL     1      -3.210   8.827 -26.918  1.00  0.00    -0.271 OA
HETATM   31  H   UNL     1      -2.832   9.486 -30.005  1.00  0.00     0.171 HD
BRANCH  29  32
HETATM   32  C   UNL     1      -1.170   8.952 -28.208  1.00  0.00     0.278 C 
BRANCH  32  33
HETATM   33  O   UNL     1      -0.611   7.708 -27.805  1.00  0.00    -0.342 OA
BRANCH  33  34
HETATM   34  C   UNL     1      -0.153   6.891 -28.805  1.00  0.00     0.069 A 
HETATM   35  C   UNL     1       0.435   5.637 -28.626  1.00  0.00     0.037 A 
HETATM   36  C   UNL     1       0.841   4.888 -29.735  1.00  0.00     0.003 A 
HETATM   37  C   UNL     1       0.662   5.386 -31.023  1.00  0.00     0.000 A 
HETATM   38  C   UNL     1       0.067   6.632 -31.206  1.00  0.00     0.003 A 
HETATM   39  C   UNL     1      -0.347   7.377 -30.100  1.00  0.00     0.037 A 
ENDBRANCH  33  34
ENDBRANCH  32  33
ENDBRANCH  29  32
ENDBRANCH  26  28
ENDBRANCH  24  26
ENDBRANCH   1  24
TORSDOF 8
ENDMDL
MODEL 7
REMARK VINA RESULT:      -8.1      5.939      9.744
REMARK  8 active torsions:
REMARK  status: ('A' for Active; 'I' for Inactive)
REMARK    1  A    between atoms: C_4  and  O_5 
REMARK    2  A    between atoms: O_5  and  C_6 
REMARK    3  A    between atoms: C_6  and  C_7 
REMARK       I    between atoms: C_7  and  N_8 
REMARK    4  A    between atoms: N_8  and  C_9 
REMARK    5  A    between atoms: C_9  and  N_10 
REMARK    6  A    between atoms: N_10  and  C_11 
REMARK    7  A    between atoms: C_14  and  N_15 
REMARK    8  A    between atoms: N_18  and  C_19 
ROOT
HETATM    1  C   UNL     1     -10.003   4.613 -33.028  1.00  0.00     0.034 A 
HETATM    2  C   UNL     1      -8.997   4.436 -33.982  1.00  0.00     0.031 A 
HETATM    3  C   UNL     1      -7.659   4.751 -33.696  1.00  0.00     0.026 A 
HETATM    4  C   UNL     1      -7.277   5.264 -32.452  1.00  0.00     0.010 A 
HETATM    5  C   UNL     1      -8.315   5.512 -31.539  1.00  0.00     0.026 A 
HETATM    6  C   UNL     1      -9.654   5.183 -31.813  1.00  0.00     0.031 A 
ENDROOT
BRANCH   4   7
HETATM    7  N   UNL     1      -5.945   5.563 -32.106  1.00  0.00    -0.280 NA
HETATM    8  C   UNL     1      -5.208   4.567 -31.288  1.00  0.00     0.115 C 
HETATM    9  C   UNL     1      -3.715   4.944 -31.132  1.00  0.00     0.138 C 
HETATM   10  N   UNL     1      -3.570   6.313 -30.583  1.00  0.00    -0.374 N 
HETATM   11  C   UNL     1      -4.276   7.311 -31.429  1.00  0.00     0.138 C 
HETATM   12  C   UNL     1      -5.771   6.948 -31.582  1.00  0.00     0.115 C 
BRANCH  10  13
HETATM   13  C   UNL     1      -2.316   6.732 -30.097  1.00  0.00     0.115 A 
HETATM   14  C   UNL     1      -2.098   7.242 -28.801  1.00  0.00     0.187 A 
HETATM   15  F   UNL     1      -3.102   7.312 -27.913  1.00  0.00    -0.200 F 
HETATM   16  C   UNL     1      -0.837   7.669 -28.378  1.00  0.00     0.199 A 
HETATM   17  F   UNL     1      -0.678   8.137 -27.131  1.00  0.00    -0.199 F 
HETATM   18  C   UNL     1       0.247   7.609 -29.235  1.00  0.00     0.199 A 
HETATM   19  F   UNL     1       1.455   8.018 -28.823  1.00  0.00    -0.199 F 
HETATM   20  C   UNL     1       0.075   7.128 -30.519  1.00  0.00     0.199 A 
HETATM   21  F   UNL     1       1.118   7.077 -31.361  1.00  0.00    -0.199 F 
HETATM   22  C   UNL     1      -1.183   6.703 -30.944  1.00  0.00     0.187 A 
HETATM   23  F   UNL     1      -1.306   6.288 -32.216  1.00  0.00    -0.200 F 
ENDBRANCH  10  13
ENDBRANCH   4   7
BRANCH   1  24
HETATM   24  N   UNL     1     -11.299   4.205 -33.406  1.00  0.00    -0.333 N 
HETATM   25  H   UNL     1     -11.672   4.716 -34.206  1.00  0.00     0.168 HD
BRANCH  24  26
HETATM   26  C   UNL     1     -12.118   3.179 -32.994  1.00  0.00     0.178 C 
HETATM   27  S   UNL     1     -13.767   3.168 -32.728  1.00  0.00    -0.040 SA
BRANCH  26  28
HETATM   28  N   UNL     1     -11.453   1.995 -32.709  1.00  0.00    -0.302 N 
HETATM   29  C   UNL     1     -10.852   1.097 -33.580  1.00  0.00     0.248 C 
HETATM   30  O   UNL     1     -10.941   1.169 -34.806  1.00  0.00    -0.271 OA
HETATM   31  H   UNL     1     -11.295   1.839 -31.718  1.00  0.00     0.171 HD
BRANCH  29  32
HETATM   32  C   UNL     1     -10.088  -0.022 -32.883  1.00  0.00     0.278 C 
BRANCH  32  33
HETATM   33  O   UNL     1      -8.848   0.405 -32.333  1.00  0.00    -0.342 OA
BRANCH  33  34
HETATM   34  C   UNL     1      -7.719  -0.179 -32.846  1.00  0.00     0.069 A 
HETATM   35  C   UNL     1      -7.609  -0.766 -34.108  1.00  0.00     0.037 A 
HETATM   36  C   UNL     1      -6.390  -1.310 -34.525  1.00  0.00     0.003 A 
HETATM   37  C   UNL     1      -5.279  -1.269 -33.687  1.00  0.00     0.000 A 
HETATM   38  C   UNL     1      -5.383  -0.676 -32.431  1.00  0.00     0.003 A 
HETATM   39  C   UNL     1      -6.597  -0.125 -32.017  1.00  0.00     0.037 A 
ENDBRANCH  33  34
ENDBRANCH  32  33
ENDBRANCH  29  32
ENDBRANCH  26  28
ENDBRANCH  24  26
ENDBRANCH   1  24
TORSDOF 8
ENDMDL
MODEL 8
REMARK VINA RESULT:      -8.1      4.872      5.977
REMARK  8 active torsions:
REMARK  status: ('A' for Active; 'I' for Inactive)
REMARK    1  A    between atoms: C_4  and  O_5 
REMARK    2  A    between atoms: O_5  and  C_6 
REMARK    3  A    between atoms: C_6  and  C_7 
REMARK       I    between atoms: C_7  and  N_8 
REMARK    4  A    between atoms: N_8  and  C_9 
REMARK    5  A    between atoms: C_9  and  N_10 
REMARK    6  A    between atoms: N_10  and  C_11 
REMARK    7  A    between atoms: C_14  and  N_15 
REMARK    8  A    between atoms: N_18  and  C_19 
ROOT
HETATM    1  C   UNL     1      -3.565   7.074 -28.998  1.00  0.00     0.034 A 
HETATM    2  C   UNL     1      -4.697   6.525 -28.389  1.00  0.00     0.031 A 
HETATM    3  C   UNL     1      -5.773   6.043 -29.151  1.00  0.00     0.026 A 
HETATM    4  C   UNL     1      -5.764   6.101 -30.549  1.00  0.00     0.010 A 
HETATM    5  C   UNL     1      -4.656   6.733 -31.136  1.00  0.00     0.026 A 
HETATM    6  C   UNL     1      -3.568   7.202 -30.380  1.00  0.00     0.031 A 
ENDROOT
BRANCH   4   7
HETATM    7  N   UNL     1      -6.803   5.602 -31.358  1.00  0.00    -0.280 NA
HETATM    8  C   UNL     1      -8.146   5.462 -30.740  1.00  0.00     0.115 C 
HETATM    9  C   UNL     1      -9.220   5.071 -31.783  1.00  0.00     0.138 C 
HETATM   10  N   UNL     1      -8.826   3.841 -32.511  1.00  0.00    -0.374 N 
HETATM   11  C   UNL     1      -7.498   4.001 -33.161  1.00  0.00     0.138 C 
HETATM   12  C   UNL     1      -6.417   4.383 -32.124  1.00  0.00     0.115 C 
BRANCH  10  13
HETATM   13  C   UNL     1      -9.785   3.161 -33.287  1.00  0.00     0.115 A 
HETATM   14  C   UNL     1     -10.425   3.709 -34.418  1.00  0.00     0.187 A 
HETATM   15  F   UNL     1     -10.105   4.935 -34.859  1.00  0.00    -0.200 F 
HETATM   16  C   UNL     1     -11.390   3.000 -35.136  1.00  0.00     0.199 A 
HETATM   17  F   UNL     1     -11.963   3.561 -36.211  1.00  0.00    -0.199 F 
HETATM   18  C   UNL     1     -11.756   1.724 -34.747  1.00  0.00     0.199 A 
HETATM   19  F   UNL     1     -12.682   1.047 -35.441  1.00  0.00    -0.199 F 
HETATM   20  C   UNL     1     -11.163   1.153 -33.636  1.00  0.00     0.199 A 
HETATM   21  F   UNL     1     -11.521  -0.079 -33.245  1.00  0.00    -0.199 F 
HETATM   22  C   UNL     1     -10.201   1.860 -32.917  1.00  0.00     0.187 A 
HETATM   23  F   UNL     1      -9.690   1.279 -31.818  1.00  0.00    -0.200 F 
ENDBRANCH  10  13
ENDBRANCH   4   7
BRANCH   1  24
HETATM   24  N   UNL     1      -2.522   7.468 -28.136  1.00  0.00    -0.333 N 
HETATM   25  H   UNL     1      -2.702   7.261 -27.153  1.00  0.00     0.168 HD
BRANCH  24  26
HETATM   26  C   UNL     1      -1.258   7.967 -28.357  1.00  0.00     0.178 C 
HETATM   27  S   UNL     1      -0.445   9.204 -27.583  1.00  0.00    -0.040 SA
BRANCH  26  28
HETATM   28  N   UNL     1      -0.589   7.379 -29.421  1.00  0.00    -0.302 N 
HETATM   29  C   UNL     1       0.125   6.189 -29.458  1.00  0.00     0.248 C 
HETATM   30  O   UNL     1       0.383   5.516 -28.460  1.00  0.00    -0.271 OA
HETATM   31  H   UNL     1      -0.751   7.837 -30.314  1.00  0.00     0.171 HD
BRANCH  29  32
HETATM   32  C   UNL     1       0.598   5.796 -30.852  1.00  0.00     0.278 C 
BRANCH  32  33
HETATM   33  O   UNL     1      -0.226   4.813 -31.467  1.00  0.00    -0.342 OA
BRANCH  33  34
HETATM   34  C   UNL     1      -1.093   5.260 -32.429  1.00  0.00     0.069 A 
HETATM   35  C   UNL     1      -1.028   6.498 -33.071  1.00  0.00     0.037 A 
HETATM   36  C   UNL     1      -1.964   6.827 -34.057  1.00  0.00     0.003 A 
HETATM   37  C   UNL     1      -2.965   5.924 -34.406  1.00  0.00     0.000 A 
HETATM   38  C   UNL     1      -3.026   4.684 -33.774  1.00  0.00     0.003 A 
HETATM   39  C   UNL     1      -2.088   4.350 -32.796  1.00  0.00     0.037 A 
ENDBRANCH  33  34
ENDBRANCH  32  33
ENDBRANCH  29  32
ENDBRANCH  26  28
ENDBRANCH  24  26
ENDBRANCH   1  24
TORSDOF 8
ENDMDL
MODEL 9
REMARK VINA RESULT:      -8.0      1.535      2.087
REMARK  8 active torsions:
REMARK  status: ('A' for Active; 'I' for Inactive)
REMARK    1  A    between atoms: C_4  and  O_5 
REMARK    2  A    between atoms: O_5  and  C_6 
REMARK    3  A    between atoms: C_6  and  C_7 
REMARK       I    between atoms: C_7  and  N_8 
REMARK    4  A    between atoms: N_8  and  C_9 
REMARK    5  A    between atoms: C_9  and  N_10 
REMARK    6  A    between atoms: N_10  and  C_11 
REMARK    7  A    between atoms: C_14  and  N_15 
REMARK    8  A    between atoms: N_18  and  C_19 
ROOT
HETATM    1  C   UNL     1      -7.360   6.043 -30.314  1.00  0.00     0.034 A 
HETATM    2  C   UNL     1      -7.392   4.978 -29.409  1.00  0.00     0.031 A 
HETATM    3  C   UNL     1      -6.974   3.691 -29.784  1.00  0.00     0.026 A 
HETATM    4  C   UNL     1      -6.518   3.417 -31.078  1.00  0.00     0.010 A 
HETATM    5  C   UNL     1      -6.574   4.481 -31.993  1.00  0.00     0.026 A 
HETATM    6  C   UNL     1      -6.976   5.775 -31.619  1.00  0.00     0.031 A 
ENDROOT
BRANCH   4   7
HETATM    7  N   UNL     1      -6.057   2.152 -31.491  1.00  0.00    -0.280 NA
HETATM    8  C   UNL     1      -5.287   2.084 -32.759  1.00  0.00     0.115 C 
HETATM    9  C   UNL     1      -4.700   0.672 -32.998  1.00  0.00     0.138 C 
HETATM   10  N   UNL     1      -5.765  -0.358 -32.952  1.00  0.00    -0.374 N 
HETATM   11  C   UNL     1      -6.506  -0.311 -31.665  1.00  0.00     0.138 C 
HETATM   12  C   UNL     1      -7.104   1.094 -31.422  1.00  0.00     0.115 C 
BRANCH  10  13
HETATM   13  C   UNL     1      -5.491  -1.655 -33.429  1.00  0.00     0.115 A 
HETATM   14  C   UNL     1      -4.329  -2.388 -33.112  1.00  0.00     0.187 A 
HETATM   15  F   UNL     1      -3.412  -1.889 -32.269  1.00  0.00    -0.200 F 
HETATM   16  C   UNL     1      -4.094  -3.662 -33.635  1.00  0.00     0.199 A 
HETATM   17  F   UNL     1      -2.978  -4.323 -33.296  1.00  0.00    -0.199 F 
HETATM   18  C   UNL     1      -5.005  -4.245 -34.497  1.00  0.00     0.199 A 
HETATM   19  F   UNL     1      -4.776  -5.468 -34.994  1.00  0.00    -0.199 F 
HETATM   20  C   UNL     1      -6.152  -3.556 -34.844  1.00  0.00     0.199 A 
HETATM   21  F   UNL     1      -7.036  -4.108 -35.689  1.00  0.00    -0.199 F 
HETATM   22  C   UNL     1      -6.387  -2.283 -34.325  1.00  0.00     0.187 A 
HETATM   23  F   UNL     1      -7.494  -1.638 -34.731  1.00  0.00    -0.200 F 
ENDBRANCH  10  13
ENDBRANCH   4   7
BRANCH   1  24
HETATM   24  N   UNL     1      -7.745   7.301 -29.809  1.00  0.00    -0.333 N 
HETATM   25  H   UNL     1      -8.553   7.704 -30.285  1.00  0.00     0.168 HD
BRANCH  24  26
HETATM   26  C   UNL     1      -7.332   8.047 -28.729  1.00  0.00     0.178 C 
HETATM   27  S   UNL     1      -8.218   9.013 -27.693  1.00  0.00    -0.040 SA
BRANCH  26  28
HETATM   28  N   UNL     1      -5.962   8.027 -28.510  1.00  0.00    -0.302 N 
HETATM   29  C   UNL     1      -4.934   8.431 -29.350  1.00  0.00     0.248 C 
HETATM   30  O   UNL     1      -5.101   8.768 -30.522  1.00  0.00    -0.271 OA
HETATM   31  H   UNL     1      -5.700   7.787 -27.558  1.00  0.00     0.171 HD
BRANCH  29  32
HETATM   32  C   UNL     1      -3.556   8.394 -28.702  1.00  0.00     0.278 C 
BRANCH  32  33
HETATM   33  O   UNL     1      -2.932   7.118 -28.785  1.00  0.00    -0.342 OA
BRANCH  33  34
HETATM   34  C   UNL     1      -1.857   7.019 -29.629  1.00  0.00     0.069 A 
HETATM   35  C   UNL     1      -1.922   6.795 -31.006  1.00  0.00     0.037 A 
HETATM   36  C   UNL     1      -0.748   6.737 -31.764  1.00  0.00     0.003 A 
HETATM   37  C   UNL     1       0.492   6.901 -31.152  1.00  0.00     0.000 A 
HETATM   38  C   UNL     1       0.560   7.134 -29.780  1.00  0.00     0.003 A 
HETATM   39  C   UNL     1      -0.611   7.201 -29.024  1.00  0.00     0.037 A 
ENDBRANCH  33  34
ENDBRANCH  32  33
ENDBRANCH  29  32
ENDBRANCH  26  28
ENDBRANCH  24  26
ENDBRANCH   1  24
TORSDOF 8
ENDMDL
MODEL 10
REMARK VINA RESULT:      -8.0      5.556      7.322
REMARK  8 active torsions:
REMARK  status: ('A' for Active; 'I' for Inactive)
REMARK    1  A    between atoms: C_4  and  O_5 
REMARK    2  A    between atoms: O_5  and  C_6 
REMARK    3  A    between atoms: C_6  and  C_7 
REMARK       I    between atoms: C_7  and  N_8 
REMARK    4  A    between atoms: N_8  and  C_9 
REMARK    5  A    between atoms: C_9  and  N_10 
REMARK    6  A    between atoms: N_10  and  C_11 
REMARK    7  A    between atoms: C_14  and  N_15 
REMARK    8  A    between atoms: N_18  and  C_19 
ROOT
HETATM    1  C   UNL     1      -3.664   4.979 -32.211  1.00  0.00     0.034 A 
HETATM    2  C   UNL     1      -4.287   4.135 -31.287  1.00  0.00     0.031 A 
HETATM    3  C   UNL     1      -5.578   3.633 -31.515  1.00  0.00     0.026 A 
HETATM    4  C   UNL     1      -6.300   3.963 -32.667  1.00  0.00     0.010 A 
HETATM    5  C   UNL     1      -5.689   4.878 -33.540  1.00  0.00     0.026 A 
HETATM    6  C   UNL     1      -4.390   5.371 -33.326  1.00  0.00     0.031 A 
ENDROOT
BRANCH   4   7
HETATM    7  N   UNL     1      -7.582   3.459 -32.956  1.00  0.00    -0.280 NA
HETATM    8  C   UNL     1      -8.477   4.299 -33.791  1.00  0.00     0.115 C 
HETATM    9  C   UNL     1      -9.778   3.551 -34.170  1.00  0.00     0.138 C 
HETATM   10  N   UNL     1     -10.473   3.054 -32.959  1.00  0.00    -0.374 N 
HETATM   11  C   UNL     1      -9.585   2.181 -32.147  1.00  0.00     0.138 C 
HETATM   12  C   UNL     1      -8.287   2.924 -31.756  1.00  0.00     0.115 C 
BRANCH  10  13
HETATM   13  C   UNL     1     -11.806   2.608 -33.063  1.00  0.00     0.115 A 
HETATM   14  C   UNL     1     -12.209   1.476 -33.801  1.00  0.00     0.187 A 
HETATM   15  F   UNL     1     -11.303   0.707 -34.427  1.00  0.00    -0.200 F 
HETATM   16  C   UNL     1     -13.548   1.093 -33.893  1.00  0.00     0.199 A 
HETATM   17  F   UNL     1     -13.880   0.003 -34.599  1.00  0.00    -0.199 F 
HETATM   18  C   UNL     1     -14.533   1.829 -33.259  1.00  0.00     0.199 A 
HETATM   19  F   UNL     1     -15.817   1.457 -33.349  1.00  0.00    -0.199 F 
HETATM   20  C   UNL     1     -14.183   2.954 -32.534  1.00  0.00     0.199 A 
HETATM   21  F   UNL     1     -15.132   3.680 -31.926  1.00  0.00    -0.199 F 
HETATM   22  C   UNL     1     -12.847   3.339 -32.444  1.00  0.00     0.187 A 
HETATM   23  F   UNL     1     -12.565   4.466 -31.767  1.00  0.00    -0.200 F 
ENDBRANCH  10  13
ENDBRANCH   4   7
BRANCH   1  24
HETATM   24  N   UNL     1      -2.345   5.371 -31.906  1.00  0.00    -0.333 N 
HETATM   25  H   UNL     1      -1.636   4.709 -32.224  1.00  0.00     0.168 HD
BRANCH  24  26
HETATM   26  C   UNL     1      -1.805   6.520 -31.375  1.00  0.00     0.178 C 
HETATM   27  S   UNL     1      -1.901   8.097 -31.916  1.00  0.00    -0.040 SA
BRANCH  26  28
HETATM   28  N   UNL     1      -1.022   6.316 -30.248  1.00  0.00    -0.302 N 
HETATM   29  C   UNL     1       0.012   5.411 -30.051  1.00  0.00     0.248 C 
HETATM   30  O   UNL     1       0.310   4.528 -30.855  1.00  0.00    -0.271 OA
HETATM   31  H   UNL     1      -1.162   7.009 -29.518  1.00  0.00     0.171 HD
BRANCH  29  32
HETATM   32  C   UNL     1       0.738   5.583 -28.722  1.00  0.00     0.278 C 
BRANCH  32  33
HETATM   33  O   UNL     1      -0.126   5.955 -27.655  1.00  0.00    -0.342 OA
BRANCH  33  34
HETATM   34  C   UNL     1       0.240   7.057 -26.929  1.00  0.00     0.069 A 
HETATM   35  C   UNL     1       1.551   7.469 -26.680  1.00  0.00     0.037 A 
HETATM   36  C   UNL     1       1.793   8.631 -25.940  1.00  0.00     0.003 A 
HETATM   37  C   UNL     1       0.731   9.385 -25.449  1.00  0.00     0.000 A 
HETATM   38  C   UNL     1      -0.578   8.983 -25.704  1.00  0.00     0.003 A 
HETATM   39  C   UNL     1      -0.821   7.829 -26.450  1.00  0.00     0.037 A 
ENDBRANCH  33  34
ENDBRANCH  32  33
ENDBRANCH  29  32
ENDBRANCH  26  28
ENDBRANCH  24  26
ENDBRANCH   1  24
TORSDOF 8
ENDMDL
