MODEL 1
REMARK VINA RESULT:      -8.2      0.000      0.000
REMARK  6 active torsions:
REMARK  status: ('A' for Active; 'I' for Inactive)
REMARK    1  A    between atoms: C_2  and  N_3 
REMARK    2  A    between atoms: C_2  and  C_16 
REMARK    3  A    between atoms: N_3  and  C_6 
REMARK    4  A    between atoms: C_16  and  C_17 
REMARK       I    between atoms: C_17  and  N_18 
REMARK    5  A    between atoms: N_18  and  C_19 
REMARK    6  A    between atoms: C_22  and  O_23 
ROOT
HETATM    1  C   UNL     1      -7.210   3.562 -33.670  1.00  0.00     0.040 C 
HETATM    2  C   UNL     1      -7.633   2.176 -33.195  1.00  0.00     0.191 C 
ENDROOT
BRANCH   2   3
HETATM    3  N   UNL     1      -6.410   1.308 -33.006  1.00  0.00    -0.063 N 
HETATM    4  H   UNL     1      -6.067   1.115 -33.974  1.00  0.00     0.278 HD
HETATM    5  H   UNL     1      -5.661   1.847 -32.556  1.00  0.00     0.278 HD
BRANCH   3   6
HETATM    6  C   UNL     1      -6.560  -0.034 -32.336  1.00  0.00     0.221 C 
HETATM    7  C   UNL     1      -6.111  -1.178 -33.204  1.00  0.00    -0.011 A 
HETATM    8  C   UNL     1      -4.767  -1.575 -33.255  1.00  0.00     0.009 A 
HETATM    9  C   UNL     1      -7.059  -1.861 -33.993  1.00  0.00     0.011 A 
HETATM   10  C   UNL     1      -4.394  -2.628 -34.101  1.00  0.00     0.019 A 
HETATM   11  S   UNL     1      -3.461  -0.830 -32.297  1.00  0.00    -0.129 SA
HETATM   12  C   UNL     1      -5.339  -3.291 -34.884  1.00  0.00     0.001 A 
HETATM   13  C   UNL     1      -6.672  -2.909 -34.828  1.00  0.00     0.001 A 
HETATM   14  C   UNL     1      -4.330   0.239 -31.116  1.00  0.00     0.082 C 
HETATM   15  C   UNL     1      -5.820  -0.022 -30.995  1.00  0.00     0.048 C 
ENDBRANCH   3   6
ENDBRANCH   2   3
BRANCH   2  16
HETATM   16  C   UNL     1      -8.582   1.539 -34.227  1.00  0.00     0.135 C 
BRANCH  16  17
HETATM   17  C   UNL     1      -9.936   1.234 -33.619  1.00  0.00     0.224 C 
HETATM   18  N   UNL     1     -10.984   1.754 -34.343  1.00  0.00    -0.327 N 
HETATM   19  H   UNL     1     -10.771   2.238 -35.208  1.00  0.00     0.169 HD
HETATM   20  O   UNL     1      -9.990   0.520 -32.620  1.00  0.00    -0.273 OA
BRANCH  18  21
HETATM   21  C   UNL     1     -12.359   1.695 -34.025  1.00  0.00     0.034 A 
HETATM   22  C   UNL     1     -13.260   0.800 -34.602  1.00  0.00     0.032 A 
HETATM   23  C   UNL     1     -14.603   0.784 -34.198  1.00  0.00     0.039 A 
HETATM   24  C   UNL     1     -15.051   1.661 -33.212  1.00  0.00     0.068 A 
HETATM   25  C   UNL     1     -14.163   2.579 -32.659  1.00  0.00     0.039 A 
HETATM   26  C   UNL     1     -12.822   2.590 -33.054  1.00  0.00     0.032 A 
BRANCH  24  27
HETATM   27  O   UNL     1     -16.335   1.732 -32.754  1.00  0.00    -0.356 OA
HETATM   28  C   UNL     1     -16.685   2.973 -32.148  1.00  0.00     0.210 C 
ENDBRANCH  24  27
ENDBRANCH  18  21
ENDBRANCH  16  17
ENDBRANCH   2  16
TORSDOF 6
ENDMDL
MODEL 2
REMARK VINA RESULT:      -8.1      3.777      7.267
REMARK  6 active torsions:
REMARK  status: ('A' for Active; 'I' for Inactive)
REMARK    1  A    between atoms: C_2  and  N_3 
REMARK    2  A    between atoms: C_2  and  C_16 
REMARK    3  A    between atoms: N_3  and  C_6 
REMARK    4  A    between atoms: C_16  and  C_17 
REMARK       I    between atoms: C_17  and  N_18 
REMARK    5  A    between atoms: N_18  and  C_19 
REMARK    6  A    between atoms: C_22  and  O_23 
ROOT
HETATM    1  C   UNL     1      -9.133   0.529 -33.804  1.00  0.00     0.040 C 
HETATM    2  C   UNL     1      -7.970   1.434 -34.197  1.00  0.00     0.191 C 
ENDROOT
BRANCH   2   3
HETATM    3  N   UNL     1      -6.681   0.877 -33.638  1.00  0.00    -0.063 N 
HETATM    4  H   UNL     1      -6.096   0.665 -34.478  1.00  0.00     0.278 HD
HETATM    5  H   UNL     1      -6.171   1.610 -33.131  1.00  0.00     0.278 HD
BRANCH   3   6
HETATM    6  C   UNL     1      -6.722  -0.389 -32.821  1.00  0.00     0.221 C 
HETATM    7  C   UNL     1      -6.153  -1.576 -33.548  1.00  0.00    -0.011 A 
HETATM    8  C   UNL     1      -4.777  -1.850 -33.538  1.00  0.00     0.009 A 
HETATM    9  C   UNL     1      -7.017  -2.429 -34.264  1.00  0.00     0.011 A 
HETATM   10  C   UNL     1      -4.291  -2.953 -34.255  1.00  0.00     0.019 A 
HETATM   11  S   UNL     1      -3.565  -0.884 -32.658  1.00  0.00    -0.129 SA
HETATM   12  C   UNL     1      -5.155  -3.785 -34.967  1.00  0.00     0.001 A 
HETATM   13  C   UNL     1      -6.519  -3.524 -34.970  1.00  0.00     0.001 A 
HETATM   14  C   UNL     1      -4.553   0.226 -31.616  1.00  0.00     0.082 C 
HETATM   15  C   UNL     1      -6.015  -0.157 -31.483  1.00  0.00     0.048 C 
ENDBRANCH   3   6
ENDBRANCH   2   3
BRANCH   2  16
HETATM   16  C   UNL     1      -8.212   2.857 -33.658  1.00  0.00     0.135 C 
BRANCH  16  17
HETATM   17  C   UNL     1      -6.920   3.500 -33.194  1.00  0.00     0.224 C 
HETATM   18  N   UNL     1      -6.380   4.358 -34.123  1.00  0.00    -0.327 N 
HETATM   19  H   UNL     1      -6.894   4.515 -34.983  1.00  0.00     0.169 HD
HETATM   20  O   UNL     1      -6.520   3.271 -32.055  1.00  0.00    -0.273 OA
BRANCH  18  21
HETATM   21  C   UNL     1      -5.165   5.072 -34.026  1.00  0.00     0.034 A 
HETATM   22  C   UNL     1      -4.837   5.924 -32.970  1.00  0.00     0.032 A 
HETATM   23  C   UNL     1      -3.591   6.564 -32.935  1.00  0.00     0.039 A 
HETATM   24  C   UNL     1      -2.663   6.354 -33.953  1.00  0.00     0.068 A 
HETATM   25  C   UNL     1      -2.999   5.533 -35.025  1.00  0.00     0.039 A 
HETATM   26  C   UNL     1      -4.238   4.886 -35.058  1.00  0.00     0.032 A 
BRANCH  24  27
HETATM   27  O   UNL     1      -1.427   6.932 -34.017  1.00  0.00    -0.356 OA
HETATM   28  C   UNL     1      -0.845   7.238 -32.753  1.00  0.00     0.210 C 
ENDBRANCH  24  27
ENDBRANCH  18  21
ENDBRANCH  16  17
ENDBRANCH   2  16
TORSDOF 6
ENDMDL
MODEL 3
REMARK VINA RESULT:      -8.0      1.350      1.909
REMARK  6 active torsions:
REMARK  status: ('A' for Active; 'I' for Inactive)
REMARK    1  A    between atoms: C_2  and  N_3 
REMARK    2  A    between atoms: C_2  and  C_16 
REMARK    3  A    between atoms: N_3  and  C_6 
REMARK    4  A    between atoms: C_16  and  C_17 
REMARK       I    between atoms: C_17  and  N_18 
REMARK    5  A    between atoms: N_18  and  C_19 
REMARK    6  A    between atoms: C_22  and  O_23 
ROOT
HETATM    1  C   UNL     1      -4.758   3.695 -32.352  1.00  0.00     0.040 C 
HETATM    2  C   UNL     1      -6.020   2.850 -32.493  1.00  0.00     0.191 C 
ENDROOT
BRANCH   2   3
HETATM    3  N   UNL     1      -5.669   1.508 -33.095  1.00  0.00    -0.063 N 
HETATM    4  H   UNL     1      -6.133   1.506 -34.032  1.00  0.00     0.278 HD
HETATM    5  H   UNL     1      -4.663   1.462 -33.292  1.00  0.00     0.278 HD
BRANCH   3   6
HETATM    6  C   UNL     1      -6.121   0.251 -32.398  1.00  0.00     0.221 C 
HETATM    7  C   UNL     1      -5.858  -0.994 -33.201  1.00  0.00    -0.011 A 
HETATM    8  C   UNL     1      -4.619  -1.649 -33.150  1.00  0.00     0.009 A 
HETATM    9  C   UNL     1      -6.874  -1.511 -34.030  1.00  0.00     0.011 A 
HETATM   10  C   UNL     1      -4.413  -2.790 -33.938  1.00  0.00     0.019 A 
HETATM   11  S   UNL     1      -3.250  -1.135 -32.130  1.00  0.00    -0.129 SA
HETATM   12  C   UNL     1      -5.422  -3.287 -34.762  1.00  0.00     0.001 A 
HETATM   13  C   UNL     1      -6.655  -2.648 -34.806  1.00  0.00     0.001 A 
HETATM   14  C   UNL     1      -3.958   0.132 -31.041  1.00  0.00     0.082 C 
HETATM   15  C   UNL     1      -5.475   0.174 -31.012  1.00  0.00     0.048 C 
ENDBRANCH   3   6
ENDBRANCH   2   3
BRANCH   2  16
HETATM   16  C   UNL     1      -7.040   3.582 -33.386  1.00  0.00     0.135 C 
BRANCH  16  17
HETATM   17  C   UNL     1      -8.455   3.121 -33.101  1.00  0.00     0.224 C 
HETATM   18  N   UNL     1      -9.080   2.583 -34.202  1.00  0.00    -0.327 N 
HETATM   19  H   UNL     1      -8.548   2.505 -35.062  1.00  0.00     0.169 HD
HETATM   20  O   UNL     1      -8.881   3.191 -31.951  1.00  0.00    -0.273 OA
BRANCH  18  21
HETATM   21  C   UNL     1     -10.409   2.111 -34.288  1.00  0.00     0.034 A 
HETATM   22  C   UNL     1     -10.877   0.963 -33.648  1.00  0.00     0.032 A 
HETATM   23  C   UNL     1     -12.224   0.588 -33.756  1.00  0.00     0.039 A 
HETATM   24  C   UNL     1     -13.111   1.361 -34.503  1.00  0.00     0.068 A 
HETATM   25  C   UNL     1     -12.641   2.487 -35.172  1.00  0.00     0.039 A 
HETATM   26  C   UNL     1     -11.301   2.868 -35.058  1.00  0.00     0.032 A 
BRANCH  24  27
HETATM   27  O   UNL     1     -14.436   1.081 -34.678  1.00  0.00    -0.356 OA
HETATM   28  C   UNL     1     -15.254   1.330 -33.539  1.00  0.00     0.210 C 
ENDBRANCH  24  27
ENDBRANCH  18  21
ENDBRANCH  16  17
ENDBRANCH   2  16
TORSDOF 6
ENDMDL
MODEL 4
REMARK VINA RESULT:      -7.4      5.566      9.445
REMARK  6 active torsions:
REMARK  status: ('A' for Active; 'I' for Inactive)
REMARK    1  A    between atoms: C_2  and  N_3 
REMARK    2  A    between atoms: C_2  and  C_16 
REMARK    3  A    between atoms: N_3  and  C_6 
REMARK    4  A    between atoms: C_16  and  C_17 
REMARK       I    between atoms: C_17  and  N_18 
REMARK    5  A    between atoms: N_18  and  C_19 
REMARK    6  A    between atoms: C_22  and  O_23 
ROOT
HETATM    1  C   UNL     1      -6.021   5.750 -33.259  1.00  0.00     0.040 C 
HETATM    2  C   UNL     1      -5.358   4.653 -34.086  1.00  0.00     0.191 C 
ENDROOT
BRANCH   2   3
HETATM    3  N   UNL     1      -5.160   3.422 -33.231  1.00  0.00    -0.063 N 
HETATM    4  H   UNL     1      -4.568   2.786 -33.812  1.00  0.00     0.278 HD
HETATM    5  H   UNL     1      -4.587   3.651 -32.411  1.00  0.00     0.278 HD
BRANCH   3   6
HETATM    6  C   UNL     1      -6.364   2.616 -32.816  1.00  0.00     0.221 C 
HETATM    7  C   UNL     1      -6.450   1.286 -33.514  1.00  0.00    -0.011 A 
HETATM    8  C   UNL     1      -5.774   0.158 -33.026  1.00  0.00     0.009 A 
HETATM    9  C   UNL     1      -7.218   1.170 -34.690  1.00  0.00     0.011 A 
HETATM   10  C   UNL     1      -5.862  -1.052 -33.727  1.00  0.00     0.019 A 
HETATM   11  S   UNL     1      -4.790   0.141 -31.539  1.00  0.00    -0.129 SA
HETATM   12  C   UNL     1      -6.618  -1.153 -34.895  1.00  0.00     0.001 A 
HETATM   13  C   UNL     1      -7.298  -0.042 -35.375  1.00  0.00     0.001 A 
HETATM   14  C   UNL     1      -5.155   1.730 -30.745  1.00  0.00     0.082 C 
HETATM   15  C   UNL     1      -6.371   2.453 -31.293  1.00  0.00     0.048 C 
ENDBRANCH   3   6
ENDBRANCH   2   3
BRANCH   2  16
HETATM   16  C   UNL     1      -4.003   5.152 -34.622  1.00  0.00     0.135 C 
BRANCH  16  17
HETATM   17  C   UNL     1      -2.920   5.052 -33.566  1.00  0.00     0.224 C 
HETATM   18  N   UNL     1      -2.713   6.233 -32.891  1.00  0.00    -0.327 N 
HETATM   19  H   UNL     1      -3.307   7.022 -33.118  1.00  0.00     0.169 HD
HETATM   20  O   UNL     1      -2.394   3.961 -33.358  1.00  0.00    -0.273 OA
BRANCH  18  21
HETATM   21  C   UNL     1      -1.750   6.491 -31.891  1.00  0.00     0.034 A 
HETATM   22  C   UNL     1      -0.405   6.764 -32.148  1.00  0.00     0.032 A 
HETATM   23  C   UNL     1       0.476   7.048 -31.095  1.00  0.00     0.039 A 
HETATM   24  C   UNL     1       0.017   7.064 -29.779  1.00  0.00     0.068 A 
HETATM   25  C   UNL     1      -1.314   6.758 -29.515  1.00  0.00     0.039 A 
HETATM   26  C   UNL     1      -2.197   6.484 -30.564  1.00  0.00     0.032 A 
BRANCH  24  27
HETATM   27  O   UNL     1       0.792   7.321 -28.684  1.00  0.00    -0.356 OA
HETATM   28  C   UNL     1       0.440   6.582 -27.518  1.00  0.00     0.210 C 
ENDBRANCH  24  27
ENDBRANCH  18  21
ENDBRANCH  16  17
ENDBRANCH   2  16
TORSDOF 6
ENDMDL
MODEL 5
REMARK VINA RESULT:      -7.3      6.165      9.873
REMARK  6 active torsions:
REMARK  status: ('A' for Active; 'I' for Inactive)
REMARK    1  A    between atoms: C_2  and  N_3 
REMARK    2  A    between atoms: C_2  and  C_16 
REMARK    3  A    between atoms: N_3  and  C_6 
REMARK    4  A    between atoms: C_16  and  C_17 
REMARK       I    between atoms: C_17  and  N_18 
REMARK    5  A    between atoms: N_18  and  C_19 
REMARK    6  A    between atoms: C_22  and  O_23 
ROOT
HETATM    1  C   UNL     1      -4.929   4.664 -32.483  1.00  0.00     0.040 C 
HETATM    2  C   UNL     1      -3.957   3.819 -33.299  1.00  0.00     0.191 C 
ENDROOT
BRANCH   2   3
HETATM    3  N   UNL     1      -3.822   2.450 -32.671  1.00  0.00    -0.063 N 
HETATM    4  H   UNL     1      -3.442   1.843 -33.433  1.00  0.00     0.278 HD
HETATM    5  H   UNL     1      -3.095   2.463 -31.948  1.00  0.00     0.278 HD
BRANCH   3   6
HETATM    6  C   UNL     1      -5.056   1.755 -32.156  1.00  0.00     0.221 C 
HETATM    7  C   UNL     1      -5.673   0.825 -33.165  1.00  0.00    -0.011 A 
HETATM    8  C   UNL     1      -5.229  -0.498 -33.308  1.00  0.00     0.009 A 
HETATM    9  C   UNL     1      -6.713   1.294 -33.994  1.00  0.00     0.011 A 
HETATM   10  C   UNL     1      -5.816  -1.317 -34.282  1.00  0.00     0.019 A 
HETATM   11  S   UNL     1      -3.948  -1.242 -32.317  1.00  0.00    -0.129 SA
HETATM   12  C   UNL     1      -6.839  -0.840 -35.102  1.00  0.00     0.001 A 
HETATM   13  C   UNL     1      -7.289   0.466 -34.956  1.00  0.00     0.001 A 
HETATM   14  C   UNL     1      -3.655  -0.038 -30.991  1.00  0.00     0.082 C 
HETATM   15  C   UNL     1      -4.726   1.028 -30.849  1.00  0.00     0.048 C 
ENDBRANCH   3   6
ENDBRANCH   2   3
BRANCH   2  16
HETATM   16  C   UNL     1      -2.583   4.514 -33.357  1.00  0.00     0.135 C 
BRANCH  16  17
HETATM   17  C   UNL     1      -2.044   4.789 -31.968  1.00  0.00     0.224 C 
HETATM   18  N   UNL     1      -1.900   6.130 -31.699  1.00  0.00    -0.327 N 
HETATM   19  H   UNL     1      -2.196   6.792 -32.408  1.00  0.00     0.169 HD
HETATM   20  O   UNL     1      -1.859   3.842 -31.206  1.00  0.00    -0.273 OA
BRANCH  18  21
HETATM   21  C   UNL     1      -1.378   6.718 -30.526  1.00  0.00     0.034 A 
HETATM   22  C   UNL     1      -2.151   7.105 -29.431  1.00  0.00     0.032 A 
HETATM   23  C   UNL     1      -1.545   7.647 -28.289  1.00  0.00     0.039 A 
HETATM   24  C   UNL     1      -0.161   7.802 -28.234  1.00  0.00     0.068 A 
HETATM   25  C   UNL     1       0.611   7.451 -29.337  1.00  0.00     0.039 A 
HETATM   26  C   UNL     1       0.009   6.901 -30.473  1.00  0.00     0.032 A 
BRANCH  24  27
HETATM   27  O   UNL     1       0.526   8.324 -27.175  1.00  0.00    -0.356 OA
HETATM   28  C   UNL     1       0.226   9.686 -26.883  1.00  0.00     0.210 C 
ENDBRANCH  24  27
ENDBRANCH  18  21
ENDBRANCH  16  17
ENDBRANCH   2  16
TORSDOF 6
ENDMDL
MODEL 6
REMARK VINA RESULT:      -7.2      3.507      7.511
REMARK  6 active torsions:
REMARK  status: ('A' for Active; 'I' for Inactive)
REMARK    1  A    between atoms: C_2  and  N_3 
REMARK    2  A    between atoms: C_2  and  C_16 
REMARK    3  A    between atoms: N_3  and  C_6 
REMARK    4  A    between atoms: C_16  and  C_17 
REMARK       I    between atoms: C_17  and  N_18 
REMARK    5  A    between atoms: N_18  and  C_19 
REMARK    6  A    between atoms: C_22  and  O_23 
ROOT
HETATM    1  C   UNL     1      -5.597   4.529 -30.397  1.00  0.00     0.040 C 
HETATM    2  C   UNL     1      -5.819   3.190 -31.092  1.00  0.00     0.191 C 
ENDROOT
BRANCH   2   3
HETATM    3  N   UNL     1      -7.251   3.094 -31.567  1.00  0.00    -0.063 N 
HETATM    4  H   UNL     1      -7.682   2.355 -30.966  1.00  0.00     0.278 HD
HETATM    5  H   UNL     1      -7.756   3.957 -31.339  1.00  0.00     0.278 HD
BRANCH   3   6
HETATM    6  C   UNL     1      -7.525   2.690 -32.993  1.00  0.00     0.221 C 
HETATM    7  C   UNL     1      -8.953   2.279 -33.224  1.00  0.00    -0.011 A 
HETATM    8  C   UNL     1      -9.950   3.224 -33.509  1.00  0.00     0.009 A 
HETATM    9  C   UNL     1      -9.303   0.915 -33.144  1.00  0.00     0.011 A 
HETATM   10  C   UNL     1     -11.272   2.794 -33.688  1.00  0.00     0.019 A 
HETATM   11  S   UNL     1      -9.659   4.975 -33.671  1.00  0.00    -0.129 SA
HETATM   12  C   UNL     1     -11.608   1.443 -33.598  1.00  0.00     0.001 A 
HETATM   13  C   UNL     1     -10.622   0.503 -33.328  1.00  0.00     0.001 A 
HETATM   14  C   UNL     1      -7.852   5.125 -33.701  1.00  0.00     0.082 C 
HETATM   15  C   UNL     1      -7.107   3.824 -33.935  1.00  0.00     0.048 C 
ENDBRANCH   3   6
ENDBRANCH   2   3
BRANCH   2  16
HETATM   16  C   UNL     1      -5.504   2.039 -30.118  1.00  0.00     0.135 C 
BRANCH  16  17
HETATM   17  C   UNL     1      -5.738   0.688 -30.764  1.00  0.00     0.224 C 
HETATM   18  N   UNL     1      -4.973   0.486 -31.889  1.00  0.00    -0.327 N 
HETATM   19  H   UNL     1      -4.314   1.210 -32.153  1.00  0.00     0.169 HD
HETATM   20  O   UNL     1      -6.499  -0.107 -30.216  1.00  0.00    -0.273 OA
BRANCH  18  21
HETATM   21  C   UNL     1      -4.989  -0.635 -32.747  1.00  0.00     0.034 A 
HETATM   22  C   UNL     1      -4.013  -1.633 -32.754  1.00  0.00     0.032 A 
HETATM   23  C   UNL     1      -4.128  -2.734 -33.614  1.00  0.00     0.039 A 
HETATM   24  C   UNL     1      -5.222  -2.846 -34.469  1.00  0.00     0.068 A 
HETATM   25  C   UNL     1      -6.180  -1.837 -34.491  1.00  0.00     0.039 A 
HETATM   26  C   UNL     1      -6.072  -0.743 -33.628  1.00  0.00     0.032 A 
BRANCH  24  27
HETATM   27  O   UNL     1      -5.425  -3.871 -35.349  1.00  0.00    -0.356 OA
HETATM   28  C   UNL     1      -6.712  -4.478 -35.271  1.00  0.00     0.210 C 
ENDBRANCH  24  27
ENDBRANCH  18  21
ENDBRANCH  16  17
ENDBRANCH   2  16
TORSDOF 6
ENDMDL
MODEL 7
REMARK VINA RESULT:      -7.1      3.659      6.686
REMARK  6 active torsions:
REMARK  status: ('A' for Active; 'I' for Inactive)
REMARK    1  A    between atoms: C_2  and  N_3 
REMARK    2  A    between atoms: C_2  and  C_16 
REMARK    3  A    between atoms: N_3  and  C_6 
REMARK    4  A    between atoms: C_16  and  C_17 
REMARK       I    between atoms: C_17  and  N_18 
REMARK    5  A    between atoms: N_18  and  C_19 
REMARK    6  A    between atoms: C_22  and  O_23 
ROOT
HETATM    1  C   UNL     1      -9.878   4.177 -30.545  1.00  0.00     0.040 C 
HETATM    2  C   UNL     1      -8.818   3.135 -30.886  1.00  0.00     0.191 C 
ENDROOT
BRANCH   2   3
HETATM    3  N   UNL     1      -7.458   3.793 -30.948  1.00  0.00    -0.063 N 
HETATM    4  H   UNL     1      -7.041   3.459 -31.846  1.00  0.00     0.278 HD
HETATM    5  H   UNL     1      -7.563   4.808 -31.058  1.00  0.00     0.278 HD
BRANCH   3   6
HETATM    6  C   UNL     1      -6.446   3.488 -29.874  1.00  0.00     0.221 C 
HETATM    7  C   UNL     1      -5.415   2.481 -30.306  1.00  0.00    -0.011 A 
HETATM    8  C   UNL     1      -4.263   2.868 -31.006  1.00  0.00     0.009 A 
HETATM    9  C   UNL     1      -5.614   1.117 -30.013  1.00  0.00     0.011 A 
HETATM   10  C   UNL     1      -3.345   1.889 -31.412  1.00  0.00     0.019 A 
HETATM   11  S   UNL     1      -3.858   4.553 -31.424  1.00  0.00    -0.129 SA
HETATM   12  C   UNL     1      -3.557   0.541 -31.124  1.00  0.00     0.001 A 
HETATM   13  C   UNL     1      -4.691   0.155 -30.422  1.00  0.00     0.001 A 
HETATM   14  C   UNL     1      -5.057   5.543 -30.490  1.00  0.00     0.082 C 
HETATM   15  C   UNL     1      -5.795   4.790 -29.399  1.00  0.00     0.048 C 
ENDBRANCH   3   6
ENDBRANCH   2   3
BRANCH   2  16
HETATM   16  C   UNL     1      -9.151   2.475 -32.237  1.00  0.00     0.135 C 
BRANCH  16  17
HETATM   17  C   UNL     1      -8.582   1.073 -32.323  1.00  0.00     0.224 C 
HETATM   18  N   UNL     1      -7.649   0.928 -33.323  1.00  0.00    -0.327 N 
HETATM   19  H   UNL     1      -7.400   1.748 -33.865  1.00  0.00     0.169 HD
HETATM   20  O   UNL     1      -8.927   0.241 -31.486  1.00  0.00    -0.273 OA
BRANCH  18  21
HETATM   21  C   UNL     1      -6.972  -0.253 -33.700  1.00  0.00     0.034 A 
HETATM   22  C   UNL     1      -7.608  -1.442 -34.058  1.00  0.00     0.032 A 
HETATM   23  C   UNL     1      -6.858  -2.557 -34.457  1.00  0.00     0.039 A 
HETATM   24  C   UNL     1      -5.467  -2.488 -34.505  1.00  0.00     0.068 A 
HETATM   25  C   UNL     1      -4.827  -1.316 -34.115  1.00  0.00     0.039 A 
HETATM   26  C   UNL     1      -5.573  -0.200 -33.725  1.00  0.00     0.032 A 
BRANCH  24  27
HETATM   27  O   UNL     1      -4.645  -3.516 -34.871  1.00  0.00    -0.356 OA
HETATM   28  C   UNL     1      -5.086  -4.807 -34.462  1.00  0.00     0.210 C 
ENDBRANCH  24  27
ENDBRANCH  18  21
ENDBRANCH  16  17
ENDBRANCH   2  16
TORSDOF 6
ENDMDL
MODEL 8
REMARK VINA RESULT:      -7.1     15.202     18.231
REMARK  6 active torsions:
REMARK  status: ('A' for Active; 'I' for Inactive)
REMARK    1  A    between atoms: C_2  and  N_3 
REMARK    2  A    between atoms: C_2  and  C_16 
REMARK    3  A    between atoms: N_3  and  C_6 
REMARK    4  A    between atoms: C_16  and  C_17 
REMARK       I    between atoms: C_17  and  N_18 
REMARK    5  A    between atoms: N_18  and  C_19 
REMARK    6  A    between atoms: C_22  and  O_23 
ROOT
HETATM    1  C   UNL     1      -5.632 -11.344 -40.591  1.00  0.00     0.040 C 
HETATM    2  C   UNL     1      -6.345 -12.675 -40.381  1.00  0.00     0.191 C 
ENDROOT
BRANCH   2   3
HETATM    3  N   UNL     1      -6.331 -13.033 -38.912  1.00  0.00    -0.063 N 
HETATM    4  H   UNL     1      -6.004 -14.026 -38.882  1.00  0.00     0.278 HD
HETATM    5  H   UNL     1      -5.607 -12.494 -38.425  1.00  0.00     0.278 HD
BRANCH   3   6
HETATM    6  C   UNL     1      -7.622 -12.992 -38.135  1.00  0.00     0.221 C 
HETATM    7  C   UNL     1      -8.829 -13.285 -38.984  1.00  0.00    -0.011 A 
HETATM    8  C   UNL     1      -9.249 -14.601 -39.228  1.00  0.00     0.009 A 
HETATM    9  C   UNL     1      -9.550 -12.217 -39.556  1.00  0.00     0.011 A 
HETATM   10  C   UNL     1     -10.364 -14.824 -40.049  1.00  0.00     0.019 A 
HETATM   11  S   UNL     1      -8.461 -16.050 -38.554  1.00  0.00    -0.129 SA
HETATM   12  C   UNL     1     -11.064 -13.760 -40.617  1.00  0.00     0.001 A 
HETATM   13  C   UNL     1     -10.658 -12.455 -40.368  1.00  0.00     0.001 A 
HETATM   14  C   UNL     1      -7.301 -15.394 -37.323  1.00  0.00     0.082 C 
HETATM   15  C   UNL     1      -7.531 -13.944 -36.939  1.00  0.00     0.048 C 
ENDBRANCH   3   6
ENDBRANCH   2   3
BRANCH   2  16
HETATM   16  C   UNL     1      -5.647 -13.776 -41.202  1.00  0.00     0.135 C 
BRANCH  16  17
HETATM   17  C   UNL     1      -4.475 -14.370 -40.447  1.00  0.00     0.224 C 
HETATM   18  N   UNL     1      -3.294 -13.700 -40.666  1.00  0.00    -0.327 N 
HETATM   19  H   UNL     1      -3.317 -12.875 -41.255  1.00  0.00     0.169 HD
HETATM   20  O   UNL     1      -4.680 -15.309 -39.680  1.00  0.00    -0.273 OA
BRANCH  18  21
HETATM   21  C   UNL     1      -2.017 -14.026 -40.159  1.00  0.00     0.034 A 
HETATM   22  C   UNL     1      -1.120 -14.890 -40.788  1.00  0.00     0.032 A 
HETATM   23  C   UNL     1       0.146 -15.127 -40.233  1.00  0.00     0.039 A 
HETATM   24  C   UNL     1       0.523 -14.498 -39.048  1.00  0.00     0.068 A 
HETATM   25  C   UNL     1      -0.381 -13.663 -38.399  1.00  0.00     0.039 A 
HETATM   26  C   UNL     1      -1.640 -13.418 -38.956  1.00  0.00     0.032 A 
BRANCH  24  27
HETATM   27  O   UNL     1       1.725 -14.665 -38.422  1.00  0.00    -0.356 OA
HETATM   28  C   UNL     1       1.888 -15.920 -37.768  1.00  0.00     0.210 C 
ENDBRANCH  24  27
ENDBRANCH  18  21
ENDBRANCH  16  17
ENDBRANCH   2  16
TORSDOF 6
ENDMDL
MODEL 9
REMARK VINA RESULT:      -7.1      1.686      2.324
REMARK  6 active torsions:
REMARK  status: ('A' for Active; 'I' for Inactive)
REMARK    1  A    between atoms: C_2  and  N_3 
REMARK    2  A    between atoms: C_2  and  C_16 
REMARK    3  A    between atoms: N_3  and  C_6 
REMARK    4  A    between atoms: C_16  and  C_17 
REMARK       I    between atoms: C_17  and  N_18 
REMARK    5  A    between atoms: N_18  and  C_19 
REMARK    6  A    between atoms: C_22  and  O_23 
ROOT
HETATM    1  C   UNL     1      -9.451   3.227 -34.031  1.00  0.00     0.040 C 
HETATM    2  C   UNL     1      -9.651   1.751 -33.702  1.00  0.00     0.191 C 
ENDROOT
BRANCH   2   3
HETATM    3  N   UNL     1      -8.347   1.008 -33.885  1.00  0.00    -0.063 N 
HETATM    4  H   UNL     1      -8.406   0.596 -34.843  1.00  0.00     0.278 HD
HETATM    5  H   UNL     1      -7.566   1.672 -33.923  1.00  0.00     0.278 HD
BRANCH   3   6
HETATM    6  C   UNL     1      -8.017  -0.131 -32.955  1.00  0.00     0.221 C 
HETATM    7  C   UNL     1      -6.838  -0.944 -33.417  1.00  0.00    -0.011 A 
HETATM    8  C   UNL     1      -5.523  -0.569 -33.105  1.00  0.00     0.009 A 
HETATM    9  C   UNL     1      -7.056  -2.103 -34.190  1.00  0.00     0.011 A 
HETATM   10  C   UNL     1      -4.456  -1.344 -33.582  1.00  0.00     0.019 A 
HETATM   11  S   UNL     1      -5.089   0.849 -32.116  1.00  0.00    -0.129 SA
HETATM   12  C   UNL     1      -4.684  -2.483 -34.354  1.00  0.00     0.001 A 
HETATM   13  C   UNL     1      -5.985  -2.864 -34.656  1.00  0.00     0.001 A 
HETATM   14  C   UNL     1      -6.670   1.407 -31.421  1.00  0.00     0.082 C 
HETATM   15  C   UNL     1      -7.806   0.408 -31.538  1.00  0.00     0.048 C 
ENDBRANCH   3   6
ENDBRANCH   2   3
BRANCH   2  16
HETATM   16  C   UNL     1     -10.735   1.155 -34.621  1.00  0.00     0.135 C 
BRANCH  16  17
HETATM   17  C   UNL     1     -12.042   1.912 -34.498  1.00  0.00     0.224 C 
HETATM   18  N   UNL     1     -12.574   1.869 -33.230  1.00  0.00    -0.327 N 
HETATM   19  H   UNL     1     -12.047   1.391 -32.508  1.00  0.00     0.169 HD
HETATM   20  O   UNL     1     -12.460   2.534 -35.472  1.00  0.00    -0.273 OA
BRANCH  18  21
HETATM   21  C   UNL     1     -13.799   2.423 -32.796  1.00  0.00     0.034 A 
HETATM   22  C   UNL     1     -13.936   3.709 -32.271  1.00  0.00     0.032 A 
HETATM   23  C   UNL     1     -15.198   4.194 -31.899  1.00  0.00     0.039 A 
HETATM   24  C   UNL     1     -16.330   3.398 -32.054  1.00  0.00     0.068 A 
HETATM   25  C   UNL     1     -16.194   2.103 -32.544  1.00  0.00     0.039 A 
HETATM   26  C   UNL     1     -14.938   1.620 -32.924  1.00  0.00     0.032 A 
BRANCH  24  27
HETATM   27  O   UNL     1     -17.600   3.771 -31.718  1.00  0.00    -0.356 OA
HETATM   28  C   UNL     1     -18.599   3.412 -32.669  1.00  0.00     0.210 C 
ENDBRANCH  24  27
ENDBRANCH  18  21
ENDBRANCH  16  17
ENDBRANCH   2  16
TORSDOF 6
ENDMDL
MODEL 10
REMARK VINA RESULT:      -7.1     14.778     15.887
REMARK  6 active torsions:
REMARK  status: ('A' for Active; 'I' for Inactive)
REMARK    1  A    between atoms: C_2  and  N_3 
REMARK    2  A    between atoms: C_2  and  C_16 
REMARK    3  A    between atoms: N_3  and  C_6 
REMARK    4  A    between atoms: C_16  and  C_17 
REMARK       I    between atoms: C_17  and  N_18 
REMARK    5  A    between atoms: N_18  and  C_19 
REMARK    6  A    between atoms: C_22  and  O_23 
ROOT
HETATM    1  C   UNL     1      -0.906 -13.732 -38.495  1.00  0.00     0.040 C 
HETATM    2  C   UNL     1      -2.003 -13.178 -37.593  1.00  0.00     0.191 C 
ENDROOT
BRANCH   2   3
HETATM    3  N   UNL     1      -2.923 -14.299 -37.164  1.00  0.00    -0.063 N 
HETATM    4  H   UNL     1      -3.870 -14.010 -37.502  1.00  0.00     0.278 HD
HETATM    5  H   UNL     1      -2.700 -15.155 -37.683  1.00  0.00     0.278 HD
BRANCH   3   6
HETATM    6  C   UNL     1      -3.074 -14.603 -35.696  1.00  0.00     0.221 C 
HETATM    7  C   UNL     1      -4.484 -14.430 -35.201  1.00  0.00    -0.011 A 
HETATM    8  C   UNL     1      -5.429 -15.460 -35.308  1.00  0.00     0.009 A 
HETATM    9  C   UNL     1      -4.870 -13.202 -34.625  1.00  0.00     0.011 A 
HETATM   10  C   UNL     1      -6.738 -15.241 -34.858  1.00  0.00     0.019 A 
HETATM   11  S   UNL     1      -5.085 -17.074 -35.985  1.00  0.00    -0.129 SA
HETATM   12  C   UNL     1      -7.111 -14.019 -34.298  1.00  0.00     0.001 A 
HETATM   13  C   UNL     1      -6.175 -13.000 -34.179  1.00  0.00     0.001 A 
HETATM   14  C   UNL     1      -3.280 -17.109 -36.156  1.00  0.00     0.082 C 
HETATM   15  C   UNL     1      -2.546 -16.011 -35.408  1.00  0.00     0.048 C 
ENDBRANCH   3   6
ENDBRANCH   2   3
BRANCH   2  16
HETATM   16  C   UNL     1      -2.800 -12.095 -38.345  1.00  0.00     0.135 C 
BRANCH  16  17
HETATM   17  C   UNL     1      -4.075 -12.659 -38.939  1.00  0.00     0.224 C 
HETATM   18  N   UNL     1      -5.210 -12.047 -38.461  1.00  0.00    -0.327 N 
HETATM   19  H   UNL     1      -5.099 -11.275 -37.813  1.00  0.00     0.169 HD
HETATM   20  O   UNL     1      -3.992 -13.522 -39.810  1.00  0.00    -0.273 OA
BRANCH  18  21
HETATM   21  C   UNL     1      -6.551 -12.367 -38.769  1.00  0.00     0.034 A 
HETATM   22  C   UNL     1      -7.169 -12.073 -39.985  1.00  0.00     0.032 A 
HETATM   23  C   UNL     1      -8.495 -12.462 -40.221  1.00  0.00     0.039 A 
HETATM   24  C   UNL     1      -9.209 -13.152 -39.244  1.00  0.00     0.068 A 
HETATM   25  C   UNL     1      -8.609 -13.417 -38.017  1.00  0.00     0.039 A 
HETATM   26  C   UNL     1      -7.284 -13.038 -37.783  1.00  0.00     0.032 A 
BRANCH  24  27
HETATM   27  O   UNL     1     -10.504 -13.570 -39.370  1.00  0.00    -0.356 OA
HETATM   28  C   UNL     1     -10.892 -13.920 -40.695  1.00  0.00     0.210 C 
ENDBRANCH  24  27
ENDBRANCH  18  21
ENDBRANCH  16  17
ENDBRANCH   2  16
TORSDOF 6
ENDMDL
