MODEL 1
REMARK VINA RESULT:      -8.2      0.000      0.000
REMARK  2 active torsions:
REMARK  status: ('A' for Active; 'I' for Inactive)
REMARK    1  A    between atoms: C_5  and  C_6 
REMARK       I    between atoms: C_6  and  N_7 
REMARK    2  A    between atoms: N_7  and  C_8 
ROOT
HETATM    1  C   UNL     1      -2.138   4.619 -31.819  1.00  0.00     0.262 C 
HETATM    2  N   UNL     1      -3.124   3.891 -31.193  1.00  0.00    -0.306 N 
HETATM    3  O   UNL     1      -1.841   4.589 -33.010  1.00  0.00    -0.267 OA
HETATM    4  H   UNL     1      -3.263   4.025 -30.194  1.00  0.00     0.170 HD
ENDROOT
BRANCH   2   5
HETATM    5  C   UNL     1      -3.941   2.958 -31.793  1.00  0.00     0.152 A 
HETATM    6  N   UNL     1      -5.176   3.177 -32.239  1.00  0.00    -0.156 NA
HETATM    7  N   UNL     1      -5.562   2.002 -32.755  1.00  0.00    -0.275 N 
HETATM    8  H   UNL     1      -6.488   1.937 -33.163  1.00  0.00     0.189 HD
HETATM    9  C   UNL     1      -4.616   1.017 -32.666  1.00  0.00     0.071 A 
HETATM   10  C   UNL     1      -4.785  -0.315 -33.171  1.00  0.00     0.034 A 
HETATM   11  C   UNL     1      -3.550   1.616 -32.027  1.00  0.00     0.084 A 
HETATM   12  S   UNL     1      -6.229  -0.816 -33.961  1.00  0.00    -0.076 SA
HETATM   13  C   UNL     1      -3.868  -1.351 -33.116  1.00  0.00     0.023 A 
HETATM   14  C   UNL     1      -5.618  -2.369 -34.220  1.00  0.00     0.075 A 
HETATM   15 CL   UNL     1      -6.576  -3.539 -35.033  1.00  0.00    -0.076 Cl
HETATM   16  C   UNL     1      -4.353  -2.547 -33.728  1.00  0.00     0.033 A 
ENDBRANCH   2   5
BRANCH   1  17
HETATM   17  C   UNL     1      -1.376   5.512 -30.894  1.00  0.00     0.097 A 
HETATM   18  C   UNL     1      -2.005   6.546 -30.309  1.00  0.00     0.109 A 
HETATM   19  N   UNL     1      -1.392   7.429 -29.456  1.00  0.00    -0.368 N 
HETATM   20  C   UNL     1      -0.060   7.326 -29.123  1.00  0.00     0.008 A 
HETATM   21  H   UNL     1      -1.943   8.190 -29.065  1.00  0.00     0.165 HD
HETATM   22  C   UNL     1       0.507   8.351 -28.185  1.00  0.00     0.068 C 
HETATM   23  C   UNL     1       0.696   6.335 -29.631  1.00  0.00     0.080 A 
HETATM   24  C   UNL     1       0.071   5.357 -30.563  1.00  0.00     0.190 A 
HETATM   25  O   UNL     1       0.750   4.452 -31.046  1.00  0.00    -0.287 OA
ENDBRANCH   1  17
TORSDOF 2
ENDMDL
MODEL 2
REMARK VINA RESULT:      -8.0      4.448      9.053
REMARK  2 active torsions:
REMARK  status: ('A' for Active; 'I' for Inactive)
REMARK    1  A    between atoms: C_5  and  C_6 
REMARK       I    between atoms: C_6  and  N_7 
REMARK    2  A    between atoms: N_7  and  C_8 
ROOT
HETATM    1  C   UNL     1      -4.500  -0.215 -32.175  1.00  0.00     0.262 C 
HETATM    2  N   UNL     1      -4.904   1.051 -32.530  1.00  0.00    -0.306 N 
HETATM    3  O   UNL     1      -3.748  -0.520 -31.254  1.00  0.00    -0.267 OA
HETATM    4  H   UNL     1      -5.540   1.153 -33.318  1.00  0.00     0.170 HD
ENDROOT
BRANCH   2   5
HETATM    5  C   UNL     1      -4.501   2.224 -31.931  1.00  0.00     0.152 A 
HETATM    6  N   UNL     1      -5.198   2.922 -31.037  1.00  0.00    -0.156 NA
HETATM    7  N   UNL     1      -4.408   3.957 -30.725  1.00  0.00    -0.275 N 
HETATM    8  H   UNL     1      -4.744   4.630 -30.045  1.00  0.00     0.189 HD
HETATM    9  C   UNL     1      -3.208   3.960 -31.383  1.00  0.00     0.071 A 
HETATM   10  C   UNL     1      -2.186   4.950 -31.197  1.00  0.00     0.034 A 
HETATM   11  C   UNL     1      -3.251   2.842 -32.189  1.00  0.00     0.084 A 
HETATM   12  S   UNL     1      -2.371   6.259 -30.096  1.00  0.00    -0.076 SA
HETATM   13  C   UNL     1      -0.954   5.006 -31.826  1.00  0.00     0.023 A 
HETATM   14  C   UNL     1      -0.837   6.861 -30.463  1.00  0.00     0.075 A 
HETATM   15 CL   UNL     1      -0.265   8.278 -29.678  1.00  0.00    -0.076 Cl
HETATM   16  C   UNL     1      -0.168   6.119 -31.398  1.00  0.00     0.033 A 
ENDBRANCH   2   5
BRANCH   1  17
HETATM   17  C   UNL     1      -5.062  -1.289 -33.050  1.00  0.00     0.097 A 
HETATM   18  C   UNL     1      -4.261  -2.283 -33.471  1.00  0.00     0.109 A 
HETATM   19  N   UNL     1      -4.677  -3.306 -34.285  1.00  0.00    -0.368 N 
HETATM   20  C   UNL     1      -5.971  -3.399 -34.747  1.00  0.00     0.008 A 
HETATM   21  H   UNL     1      -4.000  -4.013 -34.563  1.00  0.00     0.165 HD
HETATM   22  C   UNL     1      -6.312  -4.559 -35.637  1.00  0.00     0.068 C 
HETATM   23  C   UNL     1      -6.886  -2.476 -34.404  1.00  0.00     0.080 A 
HETATM   24  C   UNL     1      -6.476  -1.347 -33.523  1.00  0.00     0.190 A 
HETATM   25  O   UNL     1      -7.298  -0.486 -33.209  1.00  0.00    -0.287 OA
ENDBRANCH   1  17
TORSDOF 2
ENDMDL
MODEL 3
REMARK VINA RESULT:      -7.7      4.723      8.966
REMARK  2 active torsions:
REMARK  status: ('A' for Active; 'I' for Inactive)
REMARK    1  A    between atoms: C_5  and  C_6 
REMARK       I    between atoms: C_6  and  N_7 
REMARK    2  A    between atoms: N_7  and  C_8 
ROOT
HETATM    1  C   UNL     1      -5.859   0.978 -33.210  1.00  0.00     0.262 C 
HETATM    2  N   UNL     1      -4.785   1.300 -32.412  1.00  0.00    -0.306 N 
HETATM    3  O   UNL     1      -6.785   1.715 -33.536  1.00  0.00    -0.267 OA
HETATM    4  H   UNL     1      -4.086   0.583 -32.231  1.00  0.00     0.170 HD
ENDROOT
BRANCH   2   5
HETATM    5  C   UNL     1      -4.573   2.514 -31.796  1.00  0.00     0.152 A 
HETATM    6  N   UNL     1      -4.920   2.826 -30.550  1.00  0.00    -0.156 NA
HETATM    7  N   UNL     1      -4.499   4.087 -30.387  1.00  0.00    -0.275 N 
HETATM    8  H   UNL     1      -4.658   4.535 -29.492  1.00  0.00     0.189 HD
HETATM    9  C   UNL     1      -3.879   4.614 -31.488  1.00  0.00     0.071 A 
HETATM   10  C   UNL     1      -3.321   5.934 -31.548  1.00  0.00     0.034 A 
HETATM   11  C   UNL     1      -3.929   3.606 -32.429  1.00  0.00     0.084 A 
HETATM   12  S   UNL     1      -3.372   7.009 -30.206  1.00  0.00    -0.076 SA
HETATM   13  C   UNL     1      -2.681   6.521 -32.626  1.00  0.00     0.023 A 
HETATM   14  C   UNL     1      -2.550   8.210 -31.063  1.00  0.00     0.075 A 
HETATM   15 CL   UNL     1      -2.197   9.710 -30.305  1.00  0.00    -0.076 Cl
HETATM   16  C   UNL     1      -2.230   7.847 -32.343  1.00  0.00     0.033 A 
ENDBRANCH   2   5
BRANCH   1  17
HETATM   17  C   UNL     1      -5.845  -0.438 -33.688  1.00  0.00     0.097 A 
HETATM   18  C   UNL     1      -6.999  -1.022 -34.053  1.00  0.00     0.109 A 
HETATM   19  N   UNL     1      -7.094  -2.319 -34.492  1.00  0.00    -0.368 N 
HETATM   20  C   UNL     1      -5.994  -3.142 -34.597  1.00  0.00     0.008 A 
HETATM   21  H   UNL     1      -8.011  -2.684 -34.740  1.00  0.00     0.165 HD
HETATM   22  C   UNL     1      -6.217  -4.545 -35.083  1.00  0.00     0.068 C 
HETATM   23  C   UNL     1      -4.770  -2.691 -34.269  1.00  0.00     0.080 A 
HETATM   24  C   UNL     1      -4.624  -1.291 -33.785  1.00  0.00     0.190 A 
HETATM   25  O   UNL     1      -3.513  -0.865 -33.469  1.00  0.00    -0.287 OA
ENDBRANCH   1  17
TORSDOF 2
ENDMDL
MODEL 4
REMARK VINA RESULT:      -7.4      7.170      9.278
REMARK  2 active torsions:
REMARK  status: ('A' for Active; 'I' for Inactive)
REMARK    1  A    between atoms: C_5  and  C_6 
REMARK       I    between atoms: C_6  and  N_7 
REMARK    2  A    between atoms: N_7  and  C_8 
ROOT
HETATM    1  C   UNL     1      -6.518  -0.054 -33.299  1.00  0.00     0.262 C 
HETATM    2  N   UNL     1      -7.851  -0.254 -33.022  1.00  0.00    -0.306 N 
HETATM    3  O   UNL     1      -5.935   1.023 -33.391  1.00  0.00    -0.267 OA
HETATM    4  H   UNL     1      -8.196  -1.209 -32.971  1.00  0.00     0.170 HD
ENDROOT
BRANCH   2   5
HETATM    5  C   UNL     1      -8.791   0.735 -32.831  1.00  0.00     0.152 A 
HETATM    6  N   UNL     1      -9.109   1.293 -31.665  1.00  0.00    -0.156 NA
HETATM    7  N   UNL     1     -10.042   2.205 -31.970  1.00  0.00    -0.275 N 
HETATM    8  H   UNL     1     -10.432   2.763 -31.218  1.00  0.00     0.189 HD
HETATM    9  C   UNL     1     -10.344   2.268 -33.303  1.00  0.00     0.071 A 
HETATM   10  C   UNL     1     -11.291   3.182 -33.875  1.00  0.00     0.034 A 
HETATM   11  C   UNL     1      -9.548   1.305 -33.886  1.00  0.00     0.084 A 
HETATM   12  S   UNL     1     -12.155   4.321 -32.918  1.00  0.00    -0.076 SA
HETATM   13  C   UNL     1     -11.637   3.298 -35.211  1.00  0.00     0.023 A 
HETATM   14  C   UNL     1     -12.953   4.941 -34.271  1.00  0.00     0.075 A 
HETATM   15 CL   UNL     1     -14.075   6.227 -34.085  1.00  0.00    -0.076 Cl
HETATM   16  C   UNL     1     -12.604   4.323 -35.442  1.00  0.00     0.033 A 
ENDBRANCH   2   5
BRANCH   1  17
HETATM   17  C   UNL     1      -5.756  -1.322 -33.514  1.00  0.00     0.097 A 
HETATM   18  C   UNL     1      -4.589  -1.507 -32.873  1.00  0.00     0.109 A 
HETATM   19  N   UNL     1      -3.811  -2.628 -33.013  1.00  0.00    -0.368 N 
HETATM   20  C   UNL     1      -4.167  -3.673 -33.836  1.00  0.00     0.008 A 
HETATM   21  H   UNL     1      -2.936  -2.681 -32.496  1.00  0.00     0.165 HD
HETATM   22  C   UNL     1      -3.235  -4.847 -33.916  1.00  0.00     0.068 C 
HETATM   23  C   UNL     1      -5.313  -3.629 -34.538  1.00  0.00     0.080 A 
HETATM   24  C   UNL     1      -6.186  -2.429 -34.418  1.00  0.00     0.190 A 
HETATM   25  O   UNL     1      -7.232  -2.366 -35.063  1.00  0.00    -0.287 OA
ENDBRANCH   1  17
TORSDOF 2
ENDMDL
MODEL 5
REMARK VINA RESULT:      -7.4      4.022      4.506
REMARK  2 active torsions:
REMARK  status: ('A' for Active; 'I' for Inactive)
REMARK    1  A    between atoms: C_5  and  C_6 
REMARK       I    between atoms: C_6  and  N_7 
REMARK    2  A    between atoms: N_7  and  C_8 
ROOT
HETATM    1  C   UNL     1      -4.287   5.171 -33.775  1.00  0.00     0.262 C 
HETATM    2  N   UNL     1      -5.360   5.033 -32.924  1.00  0.00    -0.306 N 
HETATM    3  O   UNL     1      -4.288   5.030 -34.995  1.00  0.00    -0.267 OA
HETATM    4  H   UNL     1      -5.211   5.188 -31.929  1.00  0.00     0.170 HD
ENDROOT
BRANCH   2   5
HETATM    5  C   UNL     1      -6.637   4.671 -33.290  1.00  0.00     0.152 A 
HETATM    6  N   UNL     1      -7.485   5.414 -33.999  1.00  0.00    -0.156 NA
HETATM    7  N   UNL     1      -8.579   4.651 -34.125  1.00  0.00    -0.275 N 
HETATM    8  H   UNL     1      -9.367   5.023 -34.642  1.00  0.00     0.189 HD
HETATM    9  C   UNL     1      -8.476   3.425 -33.525  1.00  0.00     0.071 A 
HETATM   10  C   UNL     1      -9.504   2.425 -33.546  1.00  0.00     0.034 A 
HETATM   11  C   UNL     1      -7.218   3.420 -32.959  1.00  0.00     0.084 A 
HETATM   12  S   UNL     1     -11.003   2.673 -34.353  1.00  0.00    -0.076 SA
HETATM   13  C   UNL     1      -9.459   1.169 -32.964  1.00  0.00     0.023 A 
HETATM   14  C   UNL     1     -11.552   1.133 -33.930  1.00  0.00     0.075 A 
HETATM   15 CL   UNL     1     -13.109   0.613 -34.434  1.00  0.00    -0.076 Cl
HETATM   16  C   UNL     1     -10.652   0.416 -33.188  1.00  0.00     0.033 A 
ENDBRANCH   2   5
BRANCH   1  17
HETATM   17  C   UNL     1      -3.011   5.517 -33.076  1.00  0.00     0.097 A 
HETATM   18  C   UNL     1      -2.508   6.758 -33.199  1.00  0.00     0.109 A 
HETATM   19  N   UNL     1      -1.340   7.170 -32.609  1.00  0.00    -0.368 N 
HETATM   20  C   UNL     1      -0.574   6.331 -31.830  1.00  0.00     0.008 A 
HETATM   21  H   UNL     1      -1.027   8.126 -32.763  1.00  0.00     0.165 HD
HETATM   22  C   UNL     1       0.689   6.888 -31.239  1.00  0.00     0.068 C 
HETATM   23  C   UNL     1      -0.957   5.060 -31.615  1.00  0.00     0.080 A 
HETATM   24  C   UNL     1      -2.217   4.571 -32.239  1.00  0.00     0.190 A 
HETATM   25  O   UNL     1      -2.576   3.408 -32.063  1.00  0.00    -0.287 OA
ENDBRANCH   1  17
TORSDOF 2
ENDMDL
MODEL 6
REMARK VINA RESULT:      -7.4      7.504     10.477
REMARK  2 active torsions:
REMARK  status: ('A' for Active; 'I' for Inactive)
REMARK    1  A    between atoms: C_5  and  C_6 
REMARK       I    between atoms: C_6  and  N_7 
REMARK    2  A    between atoms: N_7  and  C_8 
ROOT
HETATM    1  C   UNL     1     -11.746   2.221 -33.512  1.00  0.00     0.262 C 
HETATM    2  N   UNL     1     -11.154   1.034 -33.146  1.00  0.00    -0.306 N 
HETATM    3  O   UNL     1     -11.203   3.183 -34.049  1.00  0.00    -0.267 OA
HETATM    4  H   UNL     1     -11.734   0.318 -32.713  1.00  0.00     0.170 HD
ENDROOT
BRANCH   2   5
HETATM    5  C   UNL     1      -9.819   0.722 -33.284  1.00  0.00     0.152 A 
HETATM    6  N   UNL     1      -9.175   0.548 -34.436  1.00  0.00    -0.156 NA
HETATM    7  N   UNL     1      -7.911   0.286 -34.080  1.00  0.00    -0.275 N 
HETATM    8  H   UNL     1      -7.230   0.121 -34.813  1.00  0.00     0.189 HD
HETATM    9  C   UNL     1      -7.701   0.288 -32.728  1.00  0.00     0.071 A 
HETATM   10  C   UNL     1      -6.428   0.061 -32.106  1.00  0.00     0.034 A 
HETATM   11  C   UNL     1      -8.940   0.557 -32.184  1.00  0.00     0.084 A 
HETATM   12  S   UNL     1      -5.004  -0.237 -33.024  1.00  0.00    -0.076 SA
HETATM   13  C   UNL     1      -6.151   0.054 -30.749  1.00  0.00     0.023 A 
HETATM   14  C   UNL     1      -4.060  -0.360 -31.628  1.00  0.00     0.075 A 
HETATM   15 CL   UNL     1      -2.376  -0.670 -31.761  1.00  0.00    -0.076 Cl
HETATM   16  C   UNL     1      -4.771  -0.190 -30.471  1.00  0.00     0.033 A 
ENDBRANCH   2   5
BRANCH   1  17
HETATM   17  C   UNL     1     -13.202   2.289 -33.183  1.00  0.00     0.097 A 
HETATM   18  C   UNL     1     -13.645   3.243 -32.345  1.00  0.00     0.109 A 
HETATM   19  N   UNL     1     -14.958   3.381 -31.972  1.00  0.00    -0.368 N 
HETATM   20  C   UNL     1     -15.947   2.540 -32.432  1.00  0.00     0.008 A 
HETATM   21  H   UNL     1     -15.204   4.126 -31.324  1.00  0.00     0.165 HD
HETATM   22  C   UNL     1     -17.348   2.781 -31.951  1.00  0.00     0.068 C 
HETATM   23  C   UNL     1     -15.651   1.540 -33.282  1.00  0.00     0.080 A 
HETATM   24  C   UNL     1     -14.237   1.352 -33.710  1.00  0.00     0.190 A 
HETATM   25  O   UNL     1     -13.947   0.435 -34.478  1.00  0.00    -0.287 OA
ENDBRANCH   1  17
TORSDOF 2
ENDMDL
MODEL 7
REMARK VINA RESULT:      -7.3      5.158      8.745
REMARK  2 active torsions:
REMARK  status: ('A' for Active; 'I' for Inactive)
REMARK    1  A    between atoms: C_5  and  C_6 
REMARK       I    between atoms: C_6  and  N_7 
REMARK    2  A    between atoms: N_7  and  C_8 
ROOT
HETATM    1  C   UNL     1      -3.501   0.059 -31.566  1.00  0.00     0.262 C 
HETATM    2  N   UNL     1      -4.525   0.967 -31.704  1.00  0.00    -0.306 N 
HETATM    3  O   UNL     1      -2.460   0.208 -30.931  1.00  0.00    -0.267 OA
HETATM    4  H   UNL     1      -5.335   0.702 -32.259  1.00  0.00     0.170 HD
ENDROOT
BRANCH   2   5
HETATM    5  C   UNL     1      -4.550   2.240 -31.177  1.00  0.00     0.152 A 
HETATM    6  N   UNL     1      -3.592   3.155 -31.306  1.00  0.00    -0.156 NA
HETATM    7  N   UNL     1      -4.059   4.228 -30.656  1.00  0.00    -0.275 N 
HETATM    8  H   UNL     1      -3.483   5.063 -30.628  1.00  0.00     0.189 HD
HETATM    9  C   UNL     1      -5.300   4.050 -30.107  1.00  0.00     0.071 A 
HETATM   10  C   UNL     1      -6.019   5.061 -29.386  1.00  0.00     0.034 A 
HETATM   11  C   UNL     1      -5.636   2.750 -30.422  1.00  0.00     0.084 A 
HETATM   12  S   UNL     1      -5.378   6.639 -29.142  1.00  0.00    -0.076 SA
HETATM   13  C   UNL     1      -7.274   4.945 -28.812  1.00  0.00     0.023 A 
HETATM   14  C   UNL     1      -6.757   7.132 -28.301  1.00  0.00     0.075 A 
HETATM   15 CL   UNL     1      -6.860   8.736 -27.695  1.00  0.00    -0.076 Cl
HETATM   16  C   UNL     1      -7.704   6.151 -28.181  1.00  0.00     0.033 A 
ENDBRANCH   2   5
BRANCH   1  17
HETATM   17  C   UNL     1      -3.735  -1.221 -32.303  1.00  0.00     0.097 A 
HETATM   18  C   UNL     1      -3.130  -2.345 -31.880  1.00  0.00     0.109 A 
HETATM   19  N   UNL     1      -3.270  -3.564 -32.493  1.00  0.00    -0.368 N 
HETATM   20  C   UNL     1      -4.055  -3.740 -33.612  1.00  0.00     0.008 A 
HETATM   21  H   UNL     1      -2.768  -4.362 -32.111  1.00  0.00     0.165 HD
HETATM   22  C   UNL     1      -4.129  -5.117 -34.203  1.00  0.00     0.068 C 
HETATM   23  C   UNL     1      -4.724  -2.702 -34.145  1.00  0.00     0.080 A 
HETATM   24  C   UNL     1      -4.598  -1.360 -33.512  1.00  0.00     0.190 A 
HETATM   25  O   UNL     1      -5.194  -0.398 -33.994  1.00  0.00    -0.287 OA
ENDBRANCH   1  17
TORSDOF 2
ENDMDL
MODEL 8
REMARK VINA RESULT:      -7.3      4.633      9.022
REMARK  2 active torsions:
REMARK  status: ('A' for Active; 'I' for Inactive)
REMARK    1  A    between atoms: C_5  and  C_6 
REMARK       I    between atoms: C_6  and  N_7 
REMARK    2  A    between atoms: N_7  and  C_8 
ROOT
HETATM    1  C   UNL     1      -3.788   0.869 -32.225  1.00  0.00     0.262 C 
HETATM    2  N   UNL     1      -4.105   2.144 -32.635  1.00  0.00    -0.306 N 
HETATM    3  O   UNL     1      -2.913   0.546 -31.425  1.00  0.00    -0.267 OA
HETATM    4  H   UNL     1      -4.863   2.262 -33.303  1.00  0.00     0.170 HD
ENDROOT
BRANCH   2   5
HETATM    5  C   UNL     1      -3.464   3.299 -32.245  1.00  0.00     0.152 A 
HETATM    6  N   UNL     1      -2.295   3.736 -32.710  1.00  0.00    -0.156 NA
HETATM    7  N   UNL     1      -2.086   4.892 -32.065  1.00  0.00    -0.275 N 
HETATM    8  H   UNL     1      -1.239   5.410 -32.271  1.00  0.00     0.189 HD
HETATM    9  C   UNL     1      -3.085   5.232 -31.194  1.00  0.00     0.071 A 
HETATM   10  C   UNL     1      -3.100   6.434 -30.410  1.00  0.00     0.034 A 
HETATM   11  C   UNL     1      -3.992   4.197 -31.283  1.00  0.00     0.084 A 
HETATM   12  S   UNL     1      -1.835   7.597 -30.496  1.00  0.00    -0.076 SA
HETATM   13  C   UNL     1      -4.079   6.836 -29.517  1.00  0.00     0.023 A 
HETATM   14  C   UNL     1      -2.601   8.599 -29.373  1.00  0.00     0.075 A 
HETATM   15 CL   UNL     1      -1.871  10.086 -28.918  1.00  0.00    -0.076 Cl
HETATM   16  C   UNL     1      -3.789   8.097 -28.914  1.00  0.00     0.033 A 
ENDBRANCH   2   5
BRANCH   1  17
HETATM   17  C   UNL     1      -4.624  -0.190 -32.867  1.00  0.00     0.097 A 
HETATM   18  C   UNL     1      -4.026  -1.273 -33.393  1.00  0.00     0.109 A 
HETATM   19  N   UNL     1      -4.703  -2.293 -34.014  1.00  0.00    -0.368 N 
HETATM   20  C   UNL     1      -6.073  -2.290 -34.151  1.00  0.00     0.008 A 
HETATM   21  H   UNL     1      -4.169  -3.072 -34.393  1.00  0.00     0.165 HD
HETATM   22  C   UNL     1      -6.706  -3.456 -34.854  1.00  0.00     0.068 C 
HETATM   23  C   UNL     1      -6.805  -1.271 -33.668  1.00  0.00     0.080 A 
HETATM   24  C   UNL     1      -6.110  -0.142 -32.990  1.00  0.00     0.190 A 
HETATM   25  O   UNL     1      -6.763   0.805 -32.552  1.00  0.00    -0.287 OA
ENDBRANCH   1  17
TORSDOF 2
ENDMDL
MODEL 9
REMARK VINA RESULT:      -7.2      4.859      8.951
REMARK  2 active torsions:
REMARK  status: ('A' for Active; 'I' for Inactive)
REMARK    1  A    between atoms: C_5  and  C_6 
REMARK       I    between atoms: C_6  and  N_7 
REMARK    2  A    between atoms: N_7  and  C_8 
ROOT
HETATM    1  C   UNL     1      -5.090   1.622 -31.916  1.00  0.00     0.262 C 
HETATM    2  N   UNL     1      -3.994   2.293 -32.407  1.00  0.00    -0.306 N 
HETATM    3  O   UNL     1      -5.783   1.942 -30.954  1.00  0.00    -0.267 OA
HETATM    4  H   UNL     1      -3.518   1.910 -33.221  1.00  0.00     0.170 HD
ENDROOT
BRANCH   2   5
HETATM    5  C   UNL     1      -3.447   3.441 -31.877  1.00  0.00     0.152 A 
HETATM    6  N   UNL     1      -2.237   3.547 -31.333  1.00  0.00    -0.156 NA
HETATM    7  N   UNL     1      -2.136   4.836 -30.982  1.00  0.00    -0.275 N 
HETATM    8  H   UNL     1      -1.277   5.149 -30.543  1.00  0.00     0.189 HD
HETATM    9  C   UNL     1      -3.242   5.584 -31.284  1.00  0.00     0.071 A 
HETATM   10  C   UNL     1      -3.361   6.991 -31.031  1.00  0.00     0.034 A 
HETATM   11  C   UNL     1      -4.120   4.688 -31.858  1.00  0.00     0.084 A 
HETATM   12  S   UNL     1      -2.091   7.900 -30.309  1.00  0.00    -0.076 SA
HETATM   13  C   UNL     1      -4.447   7.801 -31.315  1.00  0.00     0.023 A 
HETATM   14  C   UNL     1      -2.987   9.329 -30.393  1.00  0.00     0.075 A 
HETATM   15 CL   UNL     1      -2.310  10.797 -29.814  1.00  0.00    -0.076 Cl
HETATM   16  C   UNL     1      -4.229   9.163 -30.945  1.00  0.00     0.033 A 
ENDBRANCH   2   5
BRANCH   1  17
HETATM   17  C   UNL     1      -5.412   0.372 -32.669  1.00  0.00     0.097 A 
HETATM   18  C   UNL     1      -6.698   0.018 -32.840  1.00  0.00     0.109 A 
HETATM   19  N   UNL     1      -7.096  -1.115 -33.503  1.00  0.00    -0.368 N 
HETATM   20  C   UNL     1      -6.196  -1.998 -34.058  1.00  0.00     0.008 A 
HETATM   21  H   UNL     1      -8.092  -1.311 -33.578  1.00  0.00     0.165 HD
HETATM   22  C   UNL     1      -6.745  -3.208 -34.756  1.00  0.00     0.068 C 
HETATM   23  C   UNL     1      -4.873  -1.770 -33.969  1.00  0.00     0.080 A 
HETATM   24  C   UNL     1      -4.398  -0.553 -33.254  1.00  0.00     0.190 A 
HETATM   25  O   UNL     1      -3.191  -0.335 -33.152  1.00  0.00    -0.287 OA
ENDBRANCH   1  17
TORSDOF 2
ENDMDL
MODEL 10
REMARK VINA RESULT:      -7.1      6.570     10.092
REMARK  2 active torsions:
REMARK  status: ('A' for Active; 'I' for Inactive)
REMARK    1  A    between atoms: C_5  and  C_6 
REMARK       I    between atoms: C_6  and  N_7 
REMARK    2  A    between atoms: N_7  and  C_8 
ROOT
HETATM    1  C   UNL     1     -10.357   3.020 -32.843  1.00  0.00     0.262 C 
HETATM    2  N   UNL     1      -9.202   2.374 -33.221  1.00  0.00    -0.306 N 
HETATM    3  O   UNL     1     -10.445   4.065 -32.205  1.00  0.00    -0.267 OA
HETATM    4  H   UNL     1      -9.283   1.513 -33.757  1.00  0.00     0.170 HD
ENDROOT
BRANCH   2   5
HETATM    5  C   UNL     1      -7.919   2.772 -32.915  1.00  0.00     0.152 A 
HETATM    6  N   UNL     1      -7.276   2.517 -31.777  1.00  0.00    -0.156 NA
HETATM    7  N   UNL     1      -6.068   3.073 -31.940  1.00  0.00    -0.275 N 
HETATM    8  H   UNL     1      -5.397   2.996 -31.183  1.00  0.00     0.189 HD
HETATM    9  C   UNL     1      -5.894   3.683 -33.153  1.00  0.00     0.071 A 
HETATM   10  C   UNL     1      -4.681   4.324 -33.570  1.00  0.00     0.034 A 
HETATM   11  C   UNL     1      -7.098   3.511 -33.804  1.00  0.00     0.084 A 
HETATM   12  S   UNL     1      -3.288   4.386 -32.563  1.00  0.00    -0.076 SA
HETATM   13  C   UNL     1      -4.442   4.952 -34.781  1.00  0.00     0.023 A 
HETATM   14  C   UNL     1      -2.405   5.223 -33.734  1.00  0.00     0.075 A 
HETATM   15 CL   UNL     1      -0.777   5.669 -33.420  1.00  0.00    -0.076 Cl
HETATM   16  C   UNL     1      -3.116   5.475 -34.877  1.00  0.00     0.033 A 
ENDBRANCH   2   5
BRANCH   1  17
HETATM   17  C   UNL     1     -11.603   2.316 -33.275  1.00  0.00     0.097 A 
HETATM   18  C   UNL     1     -12.702   3.036 -33.559  1.00  0.00     0.109 A 
HETATM   19  N   UNL     1     -13.896   2.484 -33.950  1.00  0.00    -0.368 N 
HETATM   20  C   UNL     1     -14.069   1.124 -34.085  1.00  0.00     0.008 A 
HETATM   21  H   UNL     1     -14.681   3.104 -34.137  1.00  0.00     0.165 HD
HETATM   22  C   UNL     1     -15.421   0.632 -34.514  1.00  0.00     0.068 C 
HETATM   23  C   UNL     1     -13.053   0.279 -33.838  1.00  0.00     0.080 A 
HETATM   24  C   UNL     1     -11.740   0.836 -33.408  1.00  0.00     0.190 A 
HETATM   25  O   UNL     1     -10.803   0.076 -33.166  1.00  0.00    -0.287 OA
ENDBRANCH   1  17
TORSDOF 2
ENDMDL
