MODEL 1
REMARK VINA RESULT:      -9.7      0.000      0.000
REMARK  7 active torsions:
REMARK  status: ('A' for Active; 'I' for Inactive)
REMARK    1  A    between atoms: C_6  and  C_7 
REMARK       I    between atoms: C_7  and  N_8 
REMARK    2  A    between atoms: N_8  and  C_9 
REMARK    3  A    between atoms: C_9  and  C_10 
REMARK       I    between atoms: C_10  and  N_11 
REMARK    4  A    between atoms: N_11  and  N_12 
REMARK       I    between atoms: N_12  and  C_13 
REMARK    5  A    between atoms: C_13  and  C_14 
REMARK    6  A    between atoms: C_14  and  N_15 
REMARK    7  A    between atoms: N_15  and  C_16 
ROOT
HETATM    1  C   UNL     1      -5.892   3.812 -33.616  1.00  0.00     0.253 C 
HETATM    2  N   UNL     1      -4.643   3.626 -33.056  1.00  0.00    -0.266 N 
HETATM    3  O   UNL     1      -6.166   4.787 -34.319  1.00  0.00    -0.270 OA
HETATM    4  H   UNL     1      -4.328   2.671 -32.849  1.00  0.00     0.190 HD
ENDROOT
BRANCH   2   5
HETATM    5  N   UNL     1      -3.636   4.552 -33.385  1.00  0.00    -0.266 N 
HETATM    6  C   UNL     1      -2.431   4.468 -32.708  1.00  0.00     0.258 C 
HETATM    7  O   UNL     1      -2.277   3.756 -31.717  1.00  0.00    -0.269 OA
HETATM    8  H   UNL     1      -3.658   4.932 -34.335  1.00  0.00     0.190 HD
BRANCH   6   9
HETATM    9  C   UNL     1      -1.331   5.372 -33.296  1.00  0.00     0.173 C 
HETATM   10  C   UNL     1      -1.306   5.284 -34.819  1.00  0.00     0.042 C 
BRANCH   9  11
HETATM   11  N   UNL     1      -1.564   6.765 -32.918  1.00  0.00    -0.356 N 
HETATM   12  H   UNL     1      -2.094   7.342 -33.563  1.00  0.00     0.162 HD
BRANCH  11  13
HETATM   13  C   UNL     1      -1.273   7.220 -31.685  1.00  0.00     0.168 A 
HETATM   14  S   UNL     1      -2.344   8.303 -30.890  1.00  0.00    -0.050 SA
HETATM   15  C   UNL     1      -1.274   8.390 -29.548  1.00  0.00     0.037 A 
HETATM   16  C   UNL     1      -0.180   7.559 -29.791  1.00  0.00     0.076 A 
HETATM   17  C   UNL     1      -1.388   9.140 -28.365  1.00  0.00     0.021 A 
HETATM   18  N   UNL     1      -0.206   6.885 -31.002  1.00  0.00    -0.223 NA
HETATM   19  C   UNL     1       0.838   7.474 -28.819  1.00  0.00     0.033 A 
HETATM   20  C   UNL     1       0.737   8.222 -27.641  1.00  0.00     0.002 A 
HETATM   21  C   UNL     1      -0.363   9.043 -27.418  1.00  0.00     0.002 A 
ENDBRANCH  11  13
ENDBRANCH   9  11
ENDBRANCH   6   9
ENDBRANCH   2   5
BRANCH   1  22
HETATM   22  C   UNL     1      -6.869   2.650 -33.419  1.00  0.00     0.227 C 
BRANCH  22  23
HETATM   23  N   UNL     1      -6.241   1.336 -33.393  1.00  0.00    -0.348 N 
HETATM   24  C   UNL     1      -6.508   0.396 -34.364  1.00  0.00     0.252 C 
HETATM   25  O   UNL     1      -7.224   0.650 -35.326  1.00  0.00    -0.268 OA
HETATM   26  H   UNL     1      -5.456   1.202 -32.770  1.00  0.00     0.163 HD
BRANCH  24  27
HETATM   27  C   UNL     1      -5.825  -0.922 -34.240  1.00  0.00     0.032 A 
HETATM   28  C   UNL     1      -6.439  -2.045 -34.811  1.00  0.00     0.024 A 
HETATM   29  C   UNL     1      -5.846  -3.316 -34.728  1.00  0.00    -0.055 A 
HETATM   30  C   UNL     1      -4.628  -3.464 -34.034  1.00  0.00    -0.056 A 
HETATM   31  C   UNL     1      -6.550  -4.493 -35.345  1.00  0.00     0.049 C 
HETATM   32  C   UNL     1      -3.949  -4.802 -33.915  1.00  0.00     0.049 C 
HETATM   33  C   UNL     1      -4.023  -2.335 -33.461  1.00  0.00     0.008 A 
HETATM   34  C   UNL     1      -4.616  -1.074 -33.556  1.00  0.00     0.017 A 
ENDBRANCH  24  27
ENDBRANCH  22  23
ENDBRANCH   1  22
TORSDOF 7
ENDMDL
MODEL 2
REMARK VINA RESULT:      -9.2      6.968     11.118
REMARK  7 active torsions:
REMARK  status: ('A' for Active; 'I' for Inactive)
REMARK    1  A    between atoms: C_6  and  C_7 
REMARK       I    between atoms: C_7  and  N_8 
REMARK    2  A    between atoms: N_8  and  C_9 
REMARK    3  A    between atoms: C_9  and  C_10 
REMARK       I    between atoms: C_10  and  N_11 
REMARK    4  A    between atoms: N_11  and  N_12 
REMARK       I    between atoms: N_12  and  C_13 
REMARK    5  A    between atoms: C_13  and  C_14 
REMARK    6  A    between atoms: C_14  and  N_15 
REMARK    7  A    between atoms: N_15  and  C_16 
ROOT
HETATM    1  C   UNL     1      -9.298   2.225 -32.998  1.00  0.00     0.253 C 
HETATM    2  N   UNL     1     -10.146   1.642 -33.920  1.00  0.00    -0.266 N 
HETATM    3  O   UNL     1      -9.639   2.458 -31.837  1.00  0.00    -0.270 OA
HETATM    4  H   UNL     1      -9.743   1.102 -34.695  1.00  0.00     0.190 HD
ENDROOT
BRANCH   2   5
HETATM    5  N   UNL     1     -11.412   1.227 -33.470  1.00  0.00    -0.266 N 
HETATM    6  C   UNL     1     -12.525   1.660 -34.172  1.00  0.00     0.258 C 
HETATM    7  O   UNL     1     -12.463   2.531 -35.039  1.00  0.00    -0.269 OA
HETATM    8  H   UNL     1     -11.448   0.340 -32.962  1.00  0.00     0.190 HD
BRANCH   6   9
HETATM    9  C   UNL     1     -13.832   0.973 -33.737  1.00  0.00     0.173 C 
HETATM   10  C   UNL     1     -13.640  -0.536 -33.604  1.00  0.00     0.042 C 
BRANCH   9  11
HETATM   11  N   UNL     1     -14.276   1.496 -32.446  1.00  0.00    -0.356 N 
HETATM   12  H   UNL     1     -13.695   1.300 -31.638  1.00  0.00     0.162 HD
BRANCH  11  13
HETATM   13  C   UNL     1     -15.294   2.373 -32.352  1.00  0.00     0.168 A 
HETATM   14  S   UNL     1     -15.003   3.979 -31.817  1.00  0.00    -0.050 SA
HETATM   15  C   UNL     1     -16.680   4.333 -31.939  1.00  0.00     0.037 A 
HETATM   16  C   UNL     1     -17.345   3.200 -32.409  1.00  0.00     0.076 A 
HETATM   17  C   UNL     1     -17.363   5.524 -31.638  1.00  0.00     0.021 A 
HETATM   18  N   UNL     1     -16.539   2.101 -32.659  1.00  0.00    -0.223 NA
HETATM   19  C   UNL     1     -18.743   3.257 -32.585  1.00  0.00     0.033 A 
HETATM   20  C   UNL     1     -19.434   4.436 -32.282  1.00  0.00     0.002 A 
HETATM   21  C   UNL     1     -18.750   5.553 -31.816  1.00  0.00     0.002 A 
ENDBRANCH  11  13
ENDBRANCH   9  11
ENDBRANCH   6   9
ENDBRANCH   2   5
BRANCH   1  22
HETATM   22  C   UNL     1      -7.860   2.432 -33.482  1.00  0.00     0.227 C 
BRANCH  22  23
HETATM   23  N   UNL     1      -7.038   1.230 -33.448  1.00  0.00    -0.348 N 
HETATM   24  C   UNL     1      -7.081   0.304 -34.467  1.00  0.00     0.252 C 
HETATM   25  O   UNL     1      -7.752   0.489 -35.477  1.00  0.00    -0.268 OA
HETATM   26  H   UNL     1      -6.292   1.189 -32.767  1.00  0.00     0.163 HD
BRANCH  24  27
HETATM   27  C   UNL     1      -6.213  -0.898 -34.332  1.00  0.00     0.032 A 
HETATM   28  C   UNL     1      -6.681  -2.117 -34.839  1.00  0.00     0.024 A 
HETATM   29  C   UNL     1      -5.909  -3.288 -34.742  1.00  0.00    -0.055 A 
HETATM   30  C   UNL     1      -4.657  -3.235 -34.097  1.00  0.00    -0.056 A 
HETATM   31  C   UNL     1      -6.460  -4.575 -35.291  1.00  0.00     0.049 C 
HETATM   32  C   UNL     1      -3.789  -4.458 -33.965  1.00  0.00     0.049 C 
HETATM   33  C   UNL     1      -4.198  -2.011 -33.587  1.00  0.00     0.008 A 
HETATM   34  C   UNL     1      -4.969  -0.852 -33.696  1.00  0.00     0.017 A 
ENDBRANCH  24  27
ENDBRANCH  22  23
ENDBRANCH   1  22
TORSDOF 7
ENDMDL
MODEL 3
REMARK VINA RESULT:      -9.1      1.415      1.488
REMARK  7 active torsions:
REMARK  status: ('A' for Active; 'I' for Inactive)
REMARK    1  A    between atoms: C_6  and  C_7 
REMARK       I    between atoms: C_7  and  N_8 
REMARK    2  A    between atoms: N_8  and  C_9 
REMARK    3  A    between atoms: C_9  and  C_10 
REMARK       I    between atoms: C_10  and  N_11 
REMARK    4  A    between atoms: N_11  and  N_12 
REMARK       I    between atoms: N_12  and  C_13 
REMARK    5  A    between atoms: C_13  and  C_14 
REMARK    6  A    between atoms: C_14  and  N_15 
REMARK    7  A    between atoms: N_15  and  C_16 
ROOT
HETATM    1  C   UNL     1      -6.132   3.292 -31.685  1.00  0.00     0.253 C 
HETATM    2  N   UNL     1      -5.014   2.840 -31.011  1.00  0.00    -0.266 N 
HETATM    3  O   UNL     1      -6.282   4.472 -32.007  1.00  0.00    -0.270 OA
HETATM    4  H   UNL     1      -4.727   1.861 -31.124  1.00  0.00     0.190 HD
ENDROOT
BRANCH   2   5
HETATM    5  N   UNL     1      -3.980   3.764 -30.770  1.00  0.00    -0.266 N 
HETATM    6  C   UNL     1      -2.867   3.721 -31.592  1.00  0.00     0.258 C 
HETATM    7  O   UNL     1      -2.665   2.803 -32.386  1.00  0.00    -0.269 OA
HETATM    8  H   UNL     1      -4.250   4.646 -30.328  1.00  0.00     0.190 HD
BRANCH   6   9
HETATM    9  C   UNL     1      -1.906   4.907 -31.388  1.00  0.00     0.173 C 
HETATM   10  C   UNL     1      -1.479   5.502 -32.727  1.00  0.00     0.042 C 
BRANCH   9  11
HETATM   11  N   UNL     1      -2.554   5.956 -30.603  1.00  0.00    -0.356 N 
HETATM   12  H   UNL     1      -3.568   5.981 -30.603  1.00  0.00     0.162 HD
BRANCH  11  13
HETATM   13  C   UNL     1      -1.858   6.732 -29.751  1.00  0.00     0.168 A 
HETATM   14  S   UNL     1      -2.681   7.800 -28.687  1.00  0.00    -0.050 SA
HETATM   15  C   UNL     1      -1.177   8.365 -28.076  1.00  0.00     0.037 A 
HETATM   16  C   UNL     1      -0.146   7.674 -28.712  1.00  0.00     0.076 A 
HETATM   17  C   UNL     1      -0.924   9.351 -27.107  1.00  0.00     0.021 A 
HETATM   18  N   UNL     1      -0.551   6.734 -29.646  1.00  0.00    -0.223 NA
HETATM   19  C   UNL     1       1.187   7.978 -28.370  1.00  0.00     0.033 A 
HETATM   20  C   UNL     1       1.451   8.962 -27.411  1.00  0.00     0.002 A 
HETATM   21  C   UNL     1       0.407   9.638 -26.788  1.00  0.00     0.002 A 
ENDBRANCH  11  13
ENDBRANCH   9  11
ENDBRANCH   6   9
ENDBRANCH   2   5
BRANCH   1  22
HETATM   22  C   UNL     1      -7.106   2.197 -32.130  1.00  0.00     0.227 C 
BRANCH  22  23
HETATM   23  N   UNL     1      -6.484   0.901 -32.366  1.00  0.00    -0.348 N 
HETATM   24  C   UNL     1      -6.338   0.398 -33.640  1.00  0.00     0.252 C 
HETATM   25  O   UNL     1      -6.655   1.050 -34.629  1.00  0.00    -0.268 OA
HETATM   26  H   UNL     1      -5.982   0.475 -31.599  1.00  0.00     0.163 HD
BRANCH  24  27
HETATM   27  C   UNL     1      -5.701  -0.941 -33.774  1.00  0.00     0.032 A 
HETATM   28  C   UNL     1      -6.416  -1.955 -34.425  1.00  0.00     0.024 A 
HETATM   29  C   UNL     1      -5.870  -3.241 -34.583  1.00  0.00    -0.055 A 
HETATM   30  C   UNL     1      -4.595  -3.518 -34.050  1.00  0.00    -0.056 A 
HETATM   31  C   UNL     1      -6.681  -4.299 -35.279  1.00  0.00     0.049 C 
HETATM   32  C   UNL     1      -3.963  -4.877 -34.190  1.00  0.00     0.049 C 
HETATM   33  C   UNL     1      -3.888  -2.499 -33.394  1.00  0.00     0.008 A 
HETATM   34  C   UNL     1      -4.436  -1.222 -33.249  1.00  0.00     0.017 A 
ENDBRANCH  24  27
ENDBRANCH  22  23
ENDBRANCH   1  22
TORSDOF 7
ENDMDL
MODEL 4
REMARK VINA RESULT:      -9.0      2.442     10.689
REMARK  7 active torsions:
REMARK  status: ('A' for Active; 'I' for Inactive)
REMARK    1  A    between atoms: C_6  and  C_7 
REMARK       I    between atoms: C_7  and  N_8 
REMARK    2  A    between atoms: N_8  and  C_9 
REMARK    3  A    between atoms: C_9  and  C_10 
REMARK       I    between atoms: C_10  and  N_11 
REMARK    4  A    between atoms: N_11  and  N_12 
REMARK       I    between atoms: N_12  and  C_13 
REMARK    5  A    between atoms: C_13  and  C_14 
REMARK    6  A    between atoms: C_14  and  N_15 
REMARK    7  A    between atoms: N_15  and  C_16 
ROOT
HETATM    1  C   UNL     1      -2.222   5.172 -33.994  1.00  0.00     0.253 C 
HETATM    2  N   UNL     1      -2.463   4.464 -32.833  1.00  0.00    -0.266 N 
HETATM    3  O   UNL     1      -2.914   5.045 -35.006  1.00  0.00    -0.270 OA
HETATM    4  H   UNL     1      -2.170   4.866 -31.935  1.00  0.00     0.190 HD
ENDROOT
BRANCH   2   5
HETATM    5  N   UNL     1      -3.600   3.636 -32.798  1.00  0.00    -0.266 N 
HETATM    6  C   UNL     1      -3.637   2.625 -31.852  1.00  0.00     0.258 C 
HETATM    7  O   UNL     1      -2.656   2.308 -31.182  1.00  0.00    -0.269 OA
HETATM    8  H   UNL     1      -4.473   4.046 -33.137  1.00  0.00     0.190 HD
BRANCH   6   9
HETATM    9  C   UNL     1      -5.007   1.928 -31.752  1.00  0.00     0.173 C 
HETATM   10  C   UNL     1      -6.071   2.886 -31.222  1.00  0.00     0.042 C 
BRANCH   9  11
HETATM   11  N   UNL     1      -5.431   1.449 -33.066  1.00  0.00    -0.356 N 
HETATM   12  H   UNL     1      -5.597   2.145 -33.786  1.00  0.00     0.162 HD
BRANCH  11  13
HETATM   13  C   UNL     1      -5.406   0.141 -33.383  1.00  0.00     0.168 A 
HETATM   14  S   UNL     1      -3.969  -0.773 -33.161  1.00  0.00    -0.050 SA
HETATM   15  C   UNL     1      -4.746  -2.166 -33.802  1.00  0.00     0.037 A 
HETATM   16  C   UNL     1      -6.066  -1.839 -34.117  1.00  0.00     0.076 A 
HETATM   17  C   UNL     1      -4.229  -3.455 -34.016  1.00  0.00     0.021 A 
HETATM   18  N   UNL     1      -6.430  -0.529 -33.852  1.00  0.00    -0.223 NA
HETATM   19  C   UNL     1      -6.899  -2.835 -34.667  1.00  0.00     0.033 A 
HETATM   20  C   UNL     1      -6.392  -4.120 -34.890  1.00  0.00     0.002 A 
HETATM   21  C   UNL     1      -5.074  -4.424 -34.567  1.00  0.00     0.002 A 
ENDBRANCH  11  13
ENDBRANCH   9  11
ENDBRANCH   6   9
ENDBRANCH   2   5
BRANCH   1  22
HETATM   22  C   UNL     1      -1.121   6.232 -33.889  1.00  0.00     0.227 C 
BRANCH  22  23
HETATM   23  N   UNL     1      -1.164   7.021 -32.666  1.00  0.00    -0.348 N 
HETATM   24  C   UNL     1      -0.459   6.642 -31.545  1.00  0.00     0.252 C 
HETATM   25  O   UNL     1       0.290   5.671 -31.552  1.00  0.00    -0.268 OA
HETATM   26  H   UNL     1      -1.554   7.952 -32.720  1.00  0.00     0.163 HD
BRANCH  24  27
HETATM   27  C   UNL     1      -0.580   7.509 -30.340  1.00  0.00     0.032 A 
HETATM   28  C   UNL     1       0.389   7.390 -29.335  1.00  0.00     0.024 A 
HETATM   29  C   UNL     1       0.330   8.180 -28.173  1.00  0.00    -0.055 A 
HETATM   30  C   UNL     1      -0.738   9.084 -28.008  1.00  0.00    -0.056 A 
HETATM   31  C   UNL     1       1.388   8.006 -27.118  1.00  0.00     0.049 C 
HETATM   32  C   UNL     1      -0.850   9.953 -26.785  1.00  0.00     0.049 C 
HETATM   33  C   UNL     1      -1.708   9.193 -29.017  1.00  0.00     0.008 A 
HETATM   34  C   UNL     1      -1.636   8.409 -30.171  1.00  0.00     0.017 A 
ENDBRANCH  24  27
ENDBRANCH  22  23
ENDBRANCH   1  22
TORSDOF 7
ENDMDL
MODEL 5
REMARK VINA RESULT:      -9.0      2.825     11.052
REMARK  7 active torsions:
REMARK  status: ('A' for Active; 'I' for Inactive)
REMARK    1  A    between atoms: C_6  and  C_7 
REMARK       I    between atoms: C_7  and  N_8 
REMARK    2  A    between atoms: N_8  and  C_9 
REMARK    3  A    between atoms: C_9  and  C_10 
REMARK       I    between atoms: C_10  and  N_11 
REMARK    4  A    between atoms: N_11  and  N_12 
REMARK       I    between atoms: N_12  and  C_13 
REMARK    5  A    between atoms: C_13  and  C_14 
REMARK    6  A    between atoms: C_14  and  N_15 
REMARK    7  A    between atoms: N_15  and  C_16 
ROOT
HETATM    1  C   UNL     1      -2.282   4.687 -32.285  1.00  0.00     0.253 C 
HETATM    2  N   UNL     1      -2.711   4.087 -31.117  1.00  0.00    -0.266 N 
HETATM    3  O   UNL     1      -2.190   4.076 -33.351  1.00  0.00    -0.270 OA
HETATM    4  H   UNL     1      -3.160   4.664 -30.396  1.00  0.00     0.190 HD
ENDROOT
BRANCH   2   5
HETATM    5  N   UNL     1      -3.136   2.747 -31.190  1.00  0.00    -0.266 N 
HETATM    6  C   UNL     1      -4.426   2.453 -30.780  1.00  0.00     0.258 C 
HETATM    7  O   UNL     1      -5.134   3.266 -30.188  1.00  0.00    -0.269 OA
HETATM    8  H   UNL     1      -2.683   2.162 -31.896  1.00  0.00     0.190 HD
BRANCH   6   9
HETATM    9  C   UNL     1      -4.862   1.013 -31.109  1.00  0.00     0.173 C 
HETATM   10  C   UNL     1      -6.165   0.660 -30.397  1.00  0.00     0.042 C 
BRANCH   9  11
HETATM   11  N   UNL     1      -5.066   0.860 -32.548  1.00  0.00    -0.356 N 
HETATM   12  H   UNL     1      -4.922   1.678 -33.130  1.00  0.00     0.162 HD
BRANCH  11  13
HETATM   13  C   UNL     1      -5.235  -0.350 -33.113  1.00  0.00     0.168 A 
HETATM   14  S   UNL     1      -6.718  -0.742 -33.887  1.00  0.00    -0.050 SA
HETATM   15  C   UNL     1      -6.131  -2.321 -34.231  1.00  0.00     0.037 A 
HETATM   16  C   UNL     1      -4.826  -2.429 -33.751  1.00  0.00     0.076 A 
HETATM   17  C   UNL     1      -6.777  -3.390 -34.874  1.00  0.00     0.021 A 
HETATM   18  N   UNL     1      -4.324  -1.293 -33.137  1.00  0.00    -0.223 NA
HETATM   19  C   UNL     1      -4.140  -3.649 -33.919  1.00  0.00     0.033 A 
HETATM   20  C   UNL     1      -4.776  -4.722 -34.553  1.00  0.00     0.002 A 
HETATM   21  C   UNL     1      -6.077  -4.592 -35.024  1.00  0.00     0.002 A 
ENDBRANCH  11  13
ENDBRANCH   9  11
ENDBRANCH   6   9
ENDBRANCH   2   5
BRANCH   1  22
HETATM   22  C   UNL     1      -2.065   6.200 -32.193  1.00  0.00     0.227 C 
BRANCH  22  23
HETATM   23  N   UNL     1      -1.181   6.614 -31.112  1.00  0.00    -0.348 N 
HETATM   24  C   UNL     1      -1.680   7.028 -29.897  1.00  0.00     0.252 C 
HETATM   25  O   UNL     1      -2.881   6.993 -29.649  1.00  0.00    -0.268 OA
HETATM   26  H   UNL     1      -0.197   6.399 -31.202  1.00  0.00     0.163 HD
BRANCH  24  27
HETATM   27  C   UNL     1      -0.694   7.444 -28.862  1.00  0.00     0.032 A 
HETATM   28  C   UNL     1      -0.772   8.748 -28.355  1.00  0.00     0.024 A 
HETATM   29  C   UNL     1       0.131   9.201 -27.378  1.00  0.00    -0.055 A 
HETATM   30  C   UNL     1       1.147   8.336 -26.924  1.00  0.00    -0.056 A 
HETATM   31  C   UNL     1       0.014  10.614 -26.874  1.00  0.00     0.049 C 
HETATM   32  C   UNL     1       2.139   8.769 -25.879  1.00  0.00     0.049 C 
HETATM   33  C   UNL     1       1.221   7.034 -27.440  1.00  0.00     0.008 A 
HETATM   34  C   UNL     1       0.315   6.590 -28.406  1.00  0.00     0.017 A 
ENDBRANCH  24  27
ENDBRANCH  22  23
ENDBRANCH   1  22
TORSDOF 7
ENDMDL
MODEL 6
REMARK VINA RESULT:      -8.7      2.488     10.098
REMARK  7 active torsions:
REMARK  status: ('A' for Active; 'I' for Inactive)
REMARK    1  A    between atoms: C_6  and  C_7 
REMARK       I    between atoms: C_7  and  N_8 
REMARK    2  A    between atoms: N_8  and  C_9 
REMARK    3  A    between atoms: C_9  and  C_10 
REMARK       I    between atoms: C_10  and  N_11 
REMARK    4  A    between atoms: N_11  and  N_12 
REMARK       I    between atoms: N_12  and  C_13 
REMARK    5  A    between atoms: C_13  and  C_14 
REMARK    6  A    between atoms: C_14  and  N_15 
REMARK    7  A    between atoms: N_15  and  C_16 
ROOT
HETATM    1  C   UNL     1      -2.637   5.355 -34.100  1.00  0.00     0.253 C 
HETATM    2  N   UNL     1      -2.898   4.217 -33.362  1.00  0.00    -0.266 N 
HETATM    3  O   UNL     1      -3.506   5.940 -34.749  1.00  0.00    -0.270 OA
HETATM    4  H   UNL     1      -2.311   4.007 -32.547  1.00  0.00     0.190 HD
ENDROOT
BRANCH   2   5
HETATM    5  N   UNL     1      -4.233   3.776 -33.292  1.00  0.00    -0.266 N 
HETATM    6  C   UNL     1      -4.895   3.903 -32.083  1.00  0.00     0.258 C 
HETATM    7  O   UNL     1      -4.317   4.201 -31.040  1.00  0.00    -0.269 OA
HETATM    8  H   UNL     1      -4.764   3.792 -34.166  1.00  0.00     0.190 HD
BRANCH   6   9
HETATM    9  C   UNL     1      -6.403   3.603 -32.175  1.00  0.00     0.173 C 
HETATM   10  C   UNL     1      -6.878   3.622 -33.625  1.00  0.00     0.042 C 
BRANCH   9  11
HETATM   11  N   UNL     1      -6.694   2.285 -31.611  1.00  0.00    -0.356 N 
HETATM   12  H   UNL     1      -7.221   2.253 -30.746  1.00  0.00     0.162 HD
BRANCH  11  13
HETATM   13  C   UNL     1      -6.460   1.154 -32.304  1.00  0.00     0.168 A 
HETATM   14  S   UNL     1      -7.769   0.260 -32.964  1.00  0.00    -0.050 SA
HETATM   15  C   UNL     1      -6.672  -0.920 -33.563  1.00  0.00     0.037 A 
HETATM   16  C   UNL     1      -5.372  -0.531 -33.238  1.00  0.00     0.076 A 
HETATM   17  C   UNL     1      -6.939  -2.107 -34.266  1.00  0.00     0.021 A 
HETATM   18  N   UNL     1      -5.268   0.662 -32.540  1.00  0.00    -0.223 NA
HETATM   19  C   UNL     1      -4.299  -1.358 -33.628  1.00  0.00     0.033 A 
HETATM   20  C   UNL     1      -4.553  -2.545 -34.324  1.00  0.00     0.002 A 
HETATM   21  C   UNL     1      -5.857  -2.912 -34.638  1.00  0.00     0.002 A 
ENDBRANCH  11  13
ENDBRANCH   9  11
ENDBRANCH   6   9
ENDBRANCH   2   5
BRANCH   1  22
HETATM   22  C   UNL     1      -1.222   5.920 -33.941  1.00  0.00     0.227 C 
BRANCH  22  23
HETATM   23  N   UNL     1      -1.022   6.700 -32.727  1.00  0.00    -0.348 N 
HETATM   24  C   UNL     1      -0.603   6.108 -31.556  1.00  0.00     0.252 C 
HETATM   25  O   UNL     1      -0.310   4.918 -31.505  1.00  0.00    -0.268 OA
HETATM   26  H   UNL     1      -1.000   7.707 -32.815  1.00  0.00     0.163 HD
BRANCH  24  27
HETATM   27  C   UNL     1      -0.442   6.991 -30.368  1.00  0.00     0.032 A 
HETATM   28  C   UNL     1      -1.411   7.975 -30.134  1.00  0.00     0.024 A 
HETATM   29  C   UNL     1      -1.314   8.840 -29.030  1.00  0.00    -0.055 A 
HETATM   30  C   UNL     1      -0.208   8.729 -28.163  1.00  0.00    -0.056 A 
HETATM   31  C   UNL     1      -2.373   9.889 -28.828  1.00  0.00     0.049 C 
HETATM   32  C   UNL     1      -0.055   9.629 -26.966  1.00  0.00     0.049 C 
HETATM   33  C   UNL     1       0.760   7.744 -28.408  1.00  0.00     0.008 A 
HETATM   34  C   UNL     1       0.652   6.885 -29.503  1.00  0.00     0.017 A 
ENDBRANCH  24  27
ENDBRANCH  22  23
ENDBRANCH   1  22
TORSDOF 7
ENDMDL
MODEL 7
REMARK VINA RESULT:      -8.6      2.180      3.058
REMARK  7 active torsions:
REMARK  status: ('A' for Active; 'I' for Inactive)
REMARK    1  A    between atoms: C_6  and  C_7 
REMARK       I    between atoms: C_7  and  N_8 
REMARK    2  A    between atoms: N_8  and  C_9 
REMARK    3  A    between atoms: C_9  and  C_10 
REMARK       I    between atoms: C_10  and  N_11 
REMARK    4  A    between atoms: N_11  and  N_12 
REMARK       I    between atoms: N_12  and  C_13 
REMARK    5  A    between atoms: C_13  and  C_14 
REMARK    6  A    between atoms: C_14  and  N_15 
REMARK    7  A    between atoms: N_15  and  C_16 
ROOT
HETATM    1  C   UNL     1      -5.541   4.231 -30.598  1.00  0.00     0.253 C 
HETATM    2  N   UNL     1      -4.361   4.314 -31.311  1.00  0.00    -0.266 N 
HETATM    3  O   UNL     1      -5.670   4.707 -29.469  1.00  0.00    -0.270 OA
HETATM    4  H   UNL     1      -4.396   4.296 -32.337  1.00  0.00     0.190 HD
ENDROOT
BRANCH   2   5
HETATM    5  N   UNL     1      -3.305   5.050 -30.741  1.00  0.00    -0.266 N 
HETATM    6  C   UNL     1      -2.054   4.949 -31.326  1.00  0.00     0.258 C 
HETATM    7  O   UNL     1      -1.792   4.111 -32.188  1.00  0.00    -0.269 OA
HETATM    8  H   UNL     1      -3.563   5.903 -30.239  1.00  0.00     0.190 HD
BRANCH   6   9
HETATM    9  C   UNL     1      -1.033   5.958 -30.769  1.00  0.00     0.173 C 
HETATM   10  C   UNL     1      -0.723   7.045 -31.795  1.00  0.00     0.042 C 
BRANCH   9  11
HETATM   11  N   UNL     1      -1.555   6.597 -29.563  1.00  0.00    -0.356 N 
HETATM   12  H   UNL     1      -2.524   6.419 -29.322  1.00  0.00     0.162 HD
BRANCH  11  13
HETATM   13  C   UNL     1      -0.746   7.227 -28.691  1.00  0.00     0.168 A 
HETATM   14  S   UNL     1       0.513   6.363 -27.903  1.00  0.00    -0.050 SA
HETATM   15  C   UNL     1       0.951   7.779 -27.032  1.00  0.00     0.037 A 
HETATM   16  C   UNL     1       0.118   8.825 -27.428  1.00  0.00     0.076 A 
HETATM   17  C   UNL     1       1.956   7.955 -26.066  1.00  0.00     0.021 A 
HETATM   18  N   UNL     1      -0.827   8.499 -28.387  1.00  0.00    -0.223 NA
HETATM   19  C   UNL     1       0.293  10.094 -26.837  1.00  0.00     0.033 A 
HETATM   20  C   UNL     1       1.287  10.278 -25.870  1.00  0.00     0.002 A 
HETATM   21  C   UNL     1       2.107   9.221 -25.491  1.00  0.00     0.002 A 
ENDBRANCH  11  13
ENDBRANCH   9  11
ENDBRANCH   6   9
ENDBRANCH   2   5
BRANCH   1  22
HETATM   22  C   UNL     1      -6.721   3.631 -31.369  1.00  0.00     0.227 C 
BRANCH  22  23
HETATM   23  N   UNL     1      -6.398   2.423 -32.114  1.00  0.00    -0.348 N 
HETATM   24  C   UNL     1      -7.247   1.338 -32.123  1.00  0.00     0.252 C 
HETATM   25  O   UNL     1      -8.341   1.372 -31.570  1.00  0.00    -0.268 OA
HETATM   26  H   UNL     1      -5.642   2.471 -32.783  1.00  0.00     0.163 HD
BRANCH  24  27
HETATM   27  C   UNL     1      -6.819   0.145 -32.905  1.00  0.00     0.032 A 
HETATM   28  C   UNL     1      -5.610  -0.475 -32.563  1.00  0.00     0.024 A 
HETATM   29  C   UNL     1      -5.150  -1.605 -33.263  1.00  0.00    -0.055 A 
HETATM   30  C   UNL     1      -5.907  -2.100 -34.343  1.00  0.00    -0.056 A 
HETATM   31  C   UNL     1      -3.840  -2.228 -32.865  1.00  0.00     0.049 C 
HETATM   32  C   UNL     1      -5.463  -3.306 -35.127  1.00  0.00     0.049 C 
HETATM   33  C   UNL     1      -7.114  -1.469 -34.683  1.00  0.00     0.008 A 
HETATM   34  C   UNL     1      -7.566  -0.352 -33.976  1.00  0.00     0.017 A 
ENDBRANCH  24  27
ENDBRANCH  22  23
ENDBRANCH   1  22
TORSDOF 7
ENDMDL
MODEL 8
REMARK VINA RESULT:      -8.6      2.691      3.952
REMARK  7 active torsions:
REMARK  status: ('A' for Active; 'I' for Inactive)
REMARK    1  A    between atoms: C_6  and  C_7 
REMARK       I    between atoms: C_7  and  N_8 
REMARK    2  A    between atoms: N_8  and  C_9 
REMARK    3  A    between atoms: C_9  and  C_10 
REMARK       I    between atoms: C_10  and  N_11 
REMARK    4  A    between atoms: N_11  and  N_12 
REMARK       I    between atoms: N_12  and  C_13 
REMARK    5  A    between atoms: C_13  and  C_14 
REMARK    6  A    between atoms: C_14  and  N_15 
REMARK    7  A    between atoms: N_15  and  C_16 
ROOT
HETATM    1  C   UNL     1      -8.231   3.116 -32.113  1.00  0.00     0.253 C 
HETATM    2  N   UNL     1      -6.935   3.592 -32.065  1.00  0.00    -0.266 N 
HETATM    3  O   UNL     1      -9.133   3.569 -31.406  1.00  0.00    -0.270 OA
HETATM    4  H   UNL     1      -6.343   3.509 -32.899  1.00  0.00     0.190 HD
ENDROOT
BRANCH   2   5
HETATM    5  N   UNL     1      -6.677   4.695 -31.231  1.00  0.00    -0.266 N 
HETATM    6  C   UNL     1      -6.072   4.457 -30.008  1.00  0.00     0.258 C 
HETATM    7  O   UNL     1      -5.929   3.325 -29.550  1.00  0.00    -0.269 OA
HETATM    8  H   UNL     1      -6.544   5.597 -31.695  1.00  0.00     0.190 HD
BRANCH   6   9
HETATM    9  C   UNL     1      -5.634   5.741 -29.279  1.00  0.00     0.173 C 
HETATM   10  C   UNL     1      -6.101   5.731 -27.825  1.00  0.00     0.042 C 
BRANCH   9  11
HETATM   11  N   UNL     1      -4.178   5.862 -29.294  1.00  0.00    -0.356 N 
HETATM   12  H   UNL     1      -3.691   5.758 -28.410  1.00  0.00     0.162 HD
BRANCH  11  13
HETATM   13  C   UNL     1      -3.485   5.904 -30.448  1.00  0.00     0.168 A 
HETATM   14  S   UNL     1      -2.602   7.314 -30.874  1.00  0.00    -0.050 SA
HETATM   15  C   UNL     1      -2.128   6.581 -32.355  1.00  0.00     0.037 A 
HETATM   16  C   UNL     1      -2.659   5.291 -32.407  1.00  0.00     0.076 A 
HETATM   17  C   UNL     1      -1.347   7.106 -33.398  1.00  0.00     0.021 A 
HETATM   18  N   UNL     1      -3.410   4.915 -31.305  1.00  0.00    -0.223 NA
HETATM   19  C   UNL     1      -2.402   4.497 -33.543  1.00  0.00     0.033 A 
HETATM   20  C   UNL     1      -1.631   5.012 -34.591  1.00  0.00     0.002 A 
HETATM   21  C   UNL     1      -1.110   6.300 -34.517  1.00  0.00     0.002 A 
ENDBRANCH  11  13
ENDBRANCH   9  11
ENDBRANCH   6   9
ENDBRANCH   2   5
BRANCH   1  22
HETATM   22  C   UNL     1      -8.499   2.082 -33.211  1.00  0.00     0.227 C 
BRANCH  22  23
HETATM   23  N   UNL     1      -7.570   0.960 -33.218  1.00  0.00    -0.348 N 
HETATM   24  C   UNL     1      -7.357   0.214 -34.355  1.00  0.00     0.252 C 
HETATM   25  O   UNL     1      -7.881   0.507 -35.425  1.00  0.00    -0.268 OA
HETATM   26  H   UNL     1      -6.938   0.869 -32.434  1.00  0.00     0.163 HD
BRANCH  24  27
HETATM   27  C   UNL     1      -6.398  -0.921 -34.255  1.00  0.00     0.032 A 
HETATM   28  C   UNL     1      -6.792  -2.171 -34.750  1.00  0.00     0.024 A 
HETATM   29  C   UNL     1      -5.932  -3.281 -34.684  1.00  0.00    -0.055 A 
HETATM   30  C   UNL     1      -4.665  -3.136 -34.084  1.00  0.00    -0.056 A 
HETATM   31  C   UNL     1      -6.406  -4.605 -35.219  1.00  0.00     0.049 C 
HETATM   32  C   UNL     1      -3.705  -4.291 -33.987  1.00  0.00     0.049 C 
HETATM   33  C   UNL     1      -4.281  -1.883 -33.586  1.00  0.00     0.008 A 
HETATM   34  C   UNL     1      -5.139  -0.783 -33.663  1.00  0.00     0.017 A 
ENDBRANCH  24  27
ENDBRANCH  22  23
ENDBRANCH   1  22
TORSDOF 7
ENDMDL
MODEL 9
REMARK VINA RESULT:      -8.4     17.952     19.916
REMARK  7 active torsions:
REMARK  status: ('A' for Active; 'I' for Inactive)
REMARK    1  A    between atoms: C_6  and  C_7 
REMARK       I    between atoms: C_7  and  N_8 
REMARK    2  A    between atoms: N_8  and  C_9 
REMARK    3  A    between atoms: C_9  and  C_10 
REMARK       I    between atoms: C_10  and  N_11 
REMARK    4  A    between atoms: N_11  and  N_12 
REMARK       I    between atoms: N_12  and  C_13 
REMARK    5  A    between atoms: C_13  and  C_14 
REMARK    6  A    between atoms: C_14  and  N_15 
REMARK    7  A    between atoms: N_15  and  C_16 
ROOT
HETATM    1  C   UNL     1      -6.261 -14.261 -35.499  1.00  0.00     0.253 C 
HETATM    2  N   UNL     1      -6.918 -13.171 -36.035  1.00  0.00    -0.266 N 
HETATM    3  O   UNL     1      -6.598 -15.422 -35.736  1.00  0.00    -0.270 OA
HETATM    4  H   UNL     1      -6.401 -12.293 -36.166  1.00  0.00     0.190 HD
ENDROOT
BRANCH   2   5
HETATM    5  N   UNL     1      -7.954 -13.421 -36.954  1.00  0.00    -0.266 N 
HETATM    6  C   UNL     1      -7.839 -12.881 -38.224  1.00  0.00     0.258 C 
HETATM    7  O   UNL     1      -6.979 -12.051 -38.516  1.00  0.00    -0.269 OA
HETATM    8  H   UNL     1      -8.489 -14.281 -36.815  1.00  0.00     0.190 HD
BRANCH   6   9
HETATM    9  C   UNL     1      -8.904 -13.396 -39.210  1.00  0.00     0.173 C 
HETATM   10  C   UNL     1      -9.264 -12.325 -40.236  1.00  0.00     0.042 C 
BRANCH   9  11
HETATM   11  N   UNL     1      -8.410 -14.572 -39.924  1.00  0.00    -0.356 N 
HETATM   12  H   UNL     1      -9.097 -15.176 -40.361  1.00  0.00     0.162 HD
BRANCH  11  13
HETATM   13  C   UNL     1      -7.099 -14.745 -40.175  1.00  0.00     0.168 A 
HETATM   14  S   UNL     1      -6.185 -15.873 -39.256  1.00  0.00    -0.050 SA
HETATM   15  C   UNL     1      -4.765 -15.443 -40.124  1.00  0.00     0.037 A 
HETATM   16  C   UNL     1      -5.096 -14.482 -41.079  1.00  0.00     0.076 A 
HETATM   17  C   UNL     1      -3.451 -15.916 -39.970  1.00  0.00     0.021 A 
HETATM   18  N   UNL     1      -6.431 -14.112 -41.109  1.00  0.00    -0.223 NA
HETATM   19  C   UNL     1      -4.078 -13.974 -41.912  1.00  0.00     0.033 A 
HETATM   20  C   UNL     1      -2.765 -14.434 -41.765  1.00  0.00     0.002 A 
HETATM   21  C   UNL     1      -2.458 -15.393 -40.806  1.00  0.00     0.002 A 
ENDBRANCH  11  13
ENDBRANCH   9  11
ENDBRANCH   6   9
ENDBRANCH   2   5
BRANCH   1  22
HETATM   22  C   UNL     1      -4.996 -13.927 -34.702  1.00  0.00     0.227 C 
BRANCH  22  23
HETATM   23  N   UNL     1      -3.753 -14.176 -35.419  1.00  0.00    -0.348 N 
HETATM   24  C   UNL     1      -3.376 -13.396 -36.490  1.00  0.00     0.252 C 
HETATM   25  O   UNL     1      -4.029 -12.417 -36.835  1.00  0.00    -0.268 OA
HETATM   26  H   UNL     1      -3.081 -14.798 -34.992  1.00  0.00     0.163 HD
BRANCH  24  27
HETATM   27  C   UNL     1      -2.094 -13.741 -37.165  1.00  0.00     0.032 A 
HETATM   28  C   UNL     1      -1.394 -14.871 -36.724  1.00  0.00     0.024 A 
HETATM   29  C   UNL     1      -0.177 -15.249 -37.320  1.00  0.00    -0.055 A 
HETATM   30  C   UNL     1       0.356 -14.458 -38.357  1.00  0.00    -0.056 A 
HETATM   31  C   UNL     1       0.543 -16.464 -36.804  1.00  0.00     0.049 C 
HETATM   32  C   UNL     1       1.654 -14.815 -39.030  1.00  0.00     0.049 C 
HETATM   33  C   UNL     1      -0.349 -13.324 -38.788  1.00  0.00     0.008 A 
HETATM   34  C   UNL     1      -1.560 -12.961 -38.195  1.00  0.00     0.017 A 
ENDBRANCH  24  27
ENDBRANCH  22  23
ENDBRANCH   1  22
TORSDOF 7
ENDMDL
MODEL 10
REMARK VINA RESULT:      -8.3      2.529     10.931
REMARK  7 active torsions:
REMARK  status: ('A' for Active; 'I' for Inactive)
REMARK    1  A    between atoms: C_6  and  C_7 
REMARK       I    between atoms: C_7  and  N_8 
REMARK    2  A    between atoms: N_8  and  C_9 
REMARK    3  A    between atoms: C_9  and  C_10 
REMARK       I    between atoms: C_10  and  N_11 
REMARK    4  A    between atoms: N_11  and  N_12 
REMARK       I    between atoms: N_12  and  C_13 
REMARK    5  A    between atoms: C_13  and  C_14 
REMARK    6  A    between atoms: C_14  and  N_15 
REMARK    7  A    between atoms: N_15  and  C_16 
ROOT
HETATM    1  C   UNL     1      -2.747   3.923 -31.689  1.00  0.00     0.253 C 
HETATM    2  N   UNL     1      -3.950   4.116 -32.341  1.00  0.00    -0.266 N 
HETATM    3  O   UNL     1      -2.447   2.855 -31.152  1.00  0.00    -0.270 OA
HETATM    4  H   UNL     1      -4.001   4.812 -33.094  1.00  0.00     0.190 HD
ENDROOT
BRANCH   2   5
HETATM    5  N   UNL     1      -4.812   3.011 -32.460  1.00  0.00    -0.266 N 
HETATM    6  C   UNL     1      -5.844   2.891 -31.544  1.00  0.00     0.258 C 
HETATM    7  O   UNL     1      -5.919   3.592 -30.537  1.00  0.00    -0.269 OA
HETATM    8  H   UNL     1      -4.917   2.613 -33.396  1.00  0.00     0.190 HD
BRANCH   6   9
HETATM    9  C   UNL     1      -6.852   1.782 -31.896  1.00  0.00     0.173 C 
HETATM   10  C   UNL     1      -8.287   2.292 -31.788  1.00  0.00     0.042 C 
BRANCH   9  11
HETATM   11  N   UNL     1      -6.632   1.310 -33.262  1.00  0.00    -0.356 N 
HETATM   12  H   UNL     1      -6.604   2.007 -33.998  1.00  0.00     0.162 HD
BRANCH  11  13
HETATM   13  C   UNL     1      -6.277   0.037 -33.521  1.00  0.00     0.168 A 
HETATM   14  S   UNL     1      -4.678  -0.496 -33.190  1.00  0.00    -0.050 SA
HETATM   15  C   UNL     1      -5.060  -2.054 -33.808  1.00  0.00     0.037 A 
HETATM   16  C   UNL     1      -6.399  -2.065 -34.200  1.00  0.00     0.076 A 
HETATM   17  C   UNL     1      -4.237  -3.185 -33.942  1.00  0.00     0.021 A 
HETATM   18  N   UNL     1      -7.081  -0.874 -34.010  1.00  0.00    -0.223 NA
HETATM   19  C   UNL     1      -6.936  -3.248 -34.747  1.00  0.00     0.033 A 
HETATM   20  C   UNL     1      -6.125  -4.379 -34.890  1.00  0.00     0.002 A 
HETATM   21  C   UNL     1      -4.793  -4.346 -34.491  1.00  0.00     0.002 A 
ENDBRANCH  11  13
ENDBRANCH   9  11
ENDBRANCH   6   9
ENDBRANCH   2   5
BRANCH   1  22
HETATM   22  C   UNL     1      -1.756   5.085 -31.803  1.00  0.00     0.227 C 
BRANCH  22  23
HETATM   23  N   UNL     1      -1.480   5.764 -30.545  1.00  0.00    -0.348 N 
HETATM   24  C   UNL     1      -0.399   6.606 -30.407  1.00  0.00     0.252 C 
HETATM   25  O   UNL     1       0.330   6.877 -31.355  1.00  0.00    -0.268 OA
HETATM   26  H   UNL     1      -2.207   5.764 -29.842  1.00  0.00     0.163 HD
BRANCH  24  27
HETATM   27  C   UNL     1      -0.197   7.241 -29.075  1.00  0.00     0.032 A 
HETATM   28  C   UNL     1      -1.243   7.185 -28.145  1.00  0.00     0.024 A 
HETATM   29  C   UNL     1      -1.114   7.766 -26.872  1.00  0.00    -0.055 A 
HETATM   30  C   UNL     1       0.078   8.440 -26.541  1.00  0.00    -0.056 A 
HETATM   31  C   UNL     1      -2.270   7.689 -25.913  1.00  0.00     0.049 C 
HETATM   32  C   UNL     1       0.270   9.081 -25.192  1.00  0.00     0.049 C 
HETATM   33  C   UNL     1       1.119   8.498 -27.480  1.00  0.00     0.008 A 
HETATM   34  C   UNL     1       0.984   7.910 -28.740  1.00  0.00     0.017 A 
ENDBRANCH  24  27
ENDBRANCH  22  23
ENDBRANCH   1  22
TORSDOF 7
ENDMDL
