MODEL 1
REMARK VINA RESULT:      -9.1      0.000      0.000
REMARK  5 active torsions:
REMARK  status: ('A' for Active; 'I' for Inactive)
REMARK    1  A    between atoms: C_5  and  C_6 
REMARK    2  A    between atoms: C_11  and  C_12 
REMARK       I    between atoms: C_12  and  N_13 
REMARK    3  A    between atoms: N_13  and  C_14 
REMARK    4  A    between atoms: C_16  and  O_17 
REMARK    5  A    between atoms: C_23  and  C_24 
ROOT
HETATM    1  C   UNL     1      -0.070   6.248 -31.886  1.00  0.00     0.118 C 
HETATM    2  N   UNL     1      -0.808   5.011 -32.116  1.00  0.00    -0.366 N 
HETATM    3  C   UNL     1      -2.101   4.991 -32.494  1.00  0.00     0.123 A 
HETATM    4  N   UNL     1      -2.802   6.140 -32.726  1.00  0.00    -0.240 N 
HETATM    5  N   UNL     1      -4.064   5.934 -33.155  1.00  0.00    -0.165 NA
HETATM    6  C   UNL     1      -4.184   4.585 -33.140  1.00  0.00     0.148 A 
HETATM    7  C   UNL     1      -2.974   3.963 -32.732  1.00  0.00     0.089 A 
HETATM    8  C   UNL     1      -2.249   7.472 -32.586  1.00  0.00     0.221 C 
HETATM    9  C   UNL     1      -0.712   7.426 -32.640  1.00  0.00     0.066 C 
HETATM   10  H   UNL     1      -0.326   4.157 -31.835  1.00  0.00     0.161 HD
ENDROOT
BRANCH   6  11
HETATM   11  C   UNL     1      -5.439   3.906 -33.514  1.00  0.00     0.276 C 
HETATM   12  N   UNL     1      -5.565   2.678 -32.895  1.00  0.00    -0.322 N 
HETATM   13  H   UNL     1      -4.774   2.444 -32.298  1.00  0.00     0.169 HD
HETATM   14  O   UNL     1      -6.234   4.420 -34.292  1.00  0.00    -0.266 OA
BRANCH  12  15
HETATM   15  C   UNL     1      -6.610   1.746 -33.008  1.00  0.00     0.037 A 
HETATM   16  C   UNL     1      -7.570   1.530 -32.016  1.00  0.00     0.066 A 
HETATM   17  C   UNL     1      -8.573   0.583 -32.215  1.00  0.00     0.067 A 
HETATM   18  C   UNL     1      -8.639  -0.157 -33.389  1.00  0.00     0.036 A 
HETATM   19  C   UNL     1      -7.687   0.051 -34.383  1.00  0.00     0.005 A 
HETATM   20  C   UNL     1      -6.676   0.998 -34.192  1.00  0.00     0.029 A 
BRANCH  17  21
HETATM   21  O   UNL     1      -9.524   0.349 -31.264  1.00  0.00    -0.361 OA
HETATM   22  H   UNL     1      -9.115   0.465 -30.390  1.00  0.00     0.217 HD
ENDBRANCH  17  21
ENDBRANCH  12  15
ENDBRANCH   6  11
BRANCH   8  23
HETATM   23  C   UNL     1      -2.805   8.141 -31.349  1.00  0.00     0.409 C 
HETATM   24  F   UNL     1      -2.882   7.335 -30.275  1.00  0.00    -0.169 F 
HETATM   25  F   UNL     1      -2.031   9.202 -31.003  1.00  0.00    -0.169 F 
HETATM   26  F   UNL     1      -4.046   8.638 -31.567  1.00  0.00    -0.169 F 
ENDBRANCH   8  23
BRANCH   1  27
HETATM   27  C   UNL     1       0.208   6.502 -30.416  1.00  0.00    -0.035 A 
HETATM   28  C   UNL     1       0.634   7.780 -30.014  1.00  0.00     0.010 A 
HETATM   29  C   UNL     1       0.929   8.056 -28.675  1.00  0.00     0.007 A 
HETATM   30  C   UNL     1       0.813   7.059 -27.704  1.00  0.00    -0.062 A 
HETATM   31  C   UNL     1       1.099   7.349 -26.260  1.00  0.00     0.048 C 
HETATM   32  C   UNL     1       0.378   5.789 -28.090  1.00  0.00     0.007 A 
HETATM   33  C   UNL     1       0.090   5.512 -29.431  1.00  0.00     0.010 A 
ENDBRANCH   1  27
TORSDOF 5
ENDMDL
MODEL 2
REMARK VINA RESULT:      -8.8      3.207      5.136
REMARK  5 active torsions:
REMARK  status: ('A' for Active; 'I' for Inactive)
REMARK    1  A    between atoms: C_5  and  C_6 
REMARK    2  A    between atoms: C_11  and  C_12 
REMARK       I    between atoms: C_12  and  N_13 
REMARK    3  A    between atoms: N_13  and  C_14 
REMARK    4  A    between atoms: C_16  and  O_17 
REMARK    5  A    between atoms: C_23  and  C_24 
ROOT
HETATM    1  C   UNL     1      -5.268   5.795 -33.123  1.00  0.00     0.118 C 
HETATM    2  N   UNL     1      -5.319   4.634 -34.004  1.00  0.00    -0.366 N 
HETATM    3  C   UNL     1      -5.778   3.432 -33.603  1.00  0.00     0.123 A 
HETATM    4  N   UNL     1      -6.266   3.230 -32.343  1.00  0.00    -0.240 N 
HETATM    5  N   UNL     1      -6.739   1.985 -32.133  1.00  0.00    -0.165 NA
HETATM    6  C   UNL     1      -6.485   1.351 -33.302  1.00  0.00     0.148 A 
HETATM    7  C   UNL     1      -5.885   2.227 -34.245  1.00  0.00     0.089 A 
HETATM    8  C   UNL     1      -6.334   4.257 -31.324  1.00  0.00     0.221 C 
HETATM    9  C   UNL     1      -6.270   5.656 -31.963  1.00  0.00     0.066 C 
HETATM   10  H   UNL     1      -4.852   4.748 -34.903  1.00  0.00     0.161 HD
ENDROOT
BRANCH   6  11
HETATM   11  C   UNL     1      -6.816  -0.071 -33.511  1.00  0.00     0.276 C 
HETATM   12  N   UNL     1      -5.714  -0.806 -33.898  1.00  0.00    -0.322 N 
HETATM   13  H   UNL     1      -4.866  -0.248 -33.983  1.00  0.00     0.169 HD
HETATM   14  O   UNL     1      -7.957  -0.490 -33.349  1.00  0.00    -0.266 OA
BRANCH  12  15
HETATM   15  C   UNL     1      -5.638  -2.178 -34.193  1.00  0.00     0.037 A 
HETATM   16  C   UNL     1      -4.501  -2.959 -33.971  1.00  0.00     0.066 A 
HETATM   17  C   UNL     1      -4.516  -4.316 -34.294  1.00  0.00     0.067 A 
HETATM   18  C   UNL     1      -5.648  -4.910 -34.837  1.00  0.00     0.036 A 
HETATM   19  C   UNL     1      -6.785  -4.140 -35.062  1.00  0.00     0.005 A 
HETATM   20  C   UNL     1      -6.779  -2.779 -34.743  1.00  0.00     0.029 A 
BRANCH  17  21
HETATM   21  O   UNL     1      -3.422  -5.104 -34.089  1.00  0.00    -0.361 OA
HETATM   22  H   UNL     1      -3.665  -6.023 -34.292  1.00  0.00     0.217 HD
ENDBRANCH  17  21
ENDBRANCH  12  15
ENDBRANCH   6  11
BRANCH   8  23
HETATM   23  C   UNL     1      -5.285   4.012 -30.264  1.00  0.00     0.409 C 
HETATM   24  F   UNL     1      -4.894   5.120 -29.610  1.00  0.00    -0.169 F 
HETATM   25  F   UNL     1      -5.754   3.139 -29.334  1.00  0.00    -0.169 F 
HETATM   26  F   UNL     1      -4.173   3.441 -30.786  1.00  0.00    -0.169 F 
ENDBRANCH   8  23
BRANCH   1  27
HETATM   27  C   UNL     1      -3.854   6.158 -32.709  1.00  0.00    -0.035 A 
HETATM   28  C   UNL     1      -2.791   5.331 -33.113  1.00  0.00     0.010 A 
HETATM   29  C   UNL     1      -1.474   5.608 -32.734  1.00  0.00     0.007 A 
HETATM   30  C   UNL     1      -1.185   6.717 -31.936  1.00  0.00    -0.062 A 
HETATM   31  C   UNL     1       0.226   7.042 -31.545  1.00  0.00     0.048 C 
HETATM   32  C   UNL     1      -2.232   7.554 -31.540  1.00  0.00     0.007 A 
HETATM   33  C   UNL     1      -3.550   7.271 -31.913  1.00  0.00     0.010 A 
ENDBRANCH   1  27
TORSDOF 5
ENDMDL
MODEL 3
REMARK VINA RESULT:      -8.7      6.563      9.118
REMARK  5 active torsions:
REMARK  status: ('A' for Active; 'I' for Inactive)
REMARK    1  A    between atoms: C_5  and  C_6 
REMARK    2  A    between atoms: C_11  and  C_12 
REMARK       I    between atoms: C_12  and  N_13 
REMARK    3  A    between atoms: N_13  and  C_14 
REMARK    4  A    between atoms: C_16  and  O_17 
REMARK    5  A    between atoms: C_23  and  C_24 
ROOT
HETATM    1  C   UNL     1      -5.986   0.893 -34.081  1.00  0.00     0.118 C 
HETATM    2  N   UNL     1      -7.328   1.400 -34.340  1.00  0.00    -0.366 N 
HETATM    3  C   UNL     1      -8.131   1.875 -33.366  1.00  0.00     0.123 A 
HETATM    4  N   UNL     1      -7.720   1.949 -32.066  1.00  0.00    -0.240 N 
HETATM    5  N   UNL     1      -8.626   2.505 -31.237  1.00  0.00    -0.165 NA
HETATM    6  C   UNL     1      -9.686   2.744 -32.045  1.00  0.00     0.148 A 
HETATM    7  C   UNL     1      -9.410   2.363 -33.385  1.00  0.00     0.089 A 
HETATM    8  C   UNL     1      -6.414   1.528 -31.601  1.00  0.00     0.221 C 
HETATM    9  C   UNL     1      -5.417   1.470 -32.772  1.00  0.00     0.066 C 
HETATM   10  H   UNL     1      -7.679   1.242 -35.284  1.00  0.00     0.161 HD
ENDROOT
BRANCH   6  11
HETATM   11  C   UNL     1     -10.941   3.331 -31.539  1.00  0.00     0.276 C 
HETATM   12  N   UNL     1     -12.006   3.075 -32.380  1.00  0.00    -0.322 N 
HETATM   13  H   UNL     1     -11.748   2.537 -33.205  1.00  0.00     0.169 HD
HETATM   14  O   UNL     1     -10.970   3.967 -30.491  1.00  0.00    -0.266 OA
BRANCH  12  15
HETATM   15  C   UNL     1     -13.346   3.473 -32.238  1.00  0.00     0.037 A 
HETATM   16  C   UNL     1     -14.411   2.580 -32.096  1.00  0.00     0.066 A 
HETATM   17  C   UNL     1     -15.711   3.066 -31.961  1.00  0.00     0.067 A 
HETATM   18  C   UNL     1     -15.971   4.431 -31.966  1.00  0.00     0.036 A 
HETATM   19  C   UNL     1     -14.916   5.328 -32.108  1.00  0.00     0.005 A 
HETATM   20  C   UNL     1     -13.609   4.850 -32.245  1.00  0.00     0.029 A 
BRANCH  17  21
HETATM   21  O   UNL     1     -16.771   2.219 -31.821  1.00  0.00    -0.361 OA
HETATM   22  H   UNL     1     -16.637   1.693 -31.014  1.00  0.00     0.217 HD
ENDBRANCH  17  21
ENDBRANCH  12  15
ENDBRANCH   6  11
BRANCH   8  23
HETATM   23  C   UNL     1      -6.528   0.237 -30.820  1.00  0.00     0.409 C 
HETATM   24  F   UNL     1      -5.617  -0.692 -31.158  1.00  0.00    -0.169 F 
HETATM   25  F   UNL     1      -6.384   0.480 -29.492  1.00  0.00    -0.169 F 
HETATM   26  F   UNL     1      -7.751  -0.327 -30.968  1.00  0.00    -0.169 F 
ENDBRANCH   8  23
BRANCH   1  27
HETATM   27  C   UNL     1      -5.891  -0.615 -34.212  1.00  0.00    -0.035 A 
HETATM   28  C   UNL     1      -4.635  -1.234 -34.081  1.00  0.00     0.010 A 
HETATM   29  C   UNL     1      -4.492  -2.618 -34.221  1.00  0.00     0.007 A 
HETATM   30  C   UNL     1      -5.600  -3.420 -34.503  1.00  0.00    -0.062 A 
HETATM   31  C   UNL     1      -5.466  -4.908 -34.628  1.00  0.00     0.048 C 
HETATM   32  C   UNL     1      -6.855  -2.817 -34.622  1.00  0.00     0.007 A 
HETATM   33  C   UNL     1      -6.996  -1.432 -34.489  1.00  0.00     0.010 A 
ENDBRANCH   1  27
TORSDOF 5
ENDMDL
MODEL 4
REMARK VINA RESULT:      -8.7      3.080      3.962
REMARK  5 active torsions:
REMARK  status: ('A' for Active; 'I' for Inactive)
REMARK    1  A    between atoms: C_5  and  C_6 
REMARK    2  A    between atoms: C_11  and  C_12 
REMARK       I    between atoms: C_12  and  N_13 
REMARK    3  A    between atoms: N_13  and  C_14 
REMARK    4  A    between atoms: C_16  and  O_17 
REMARK    5  A    between atoms: C_23  and  C_24 
ROOT
HETATM    1  C   UNL     1      -2.735   5.638 -32.797  1.00  0.00     0.118 C 
HETATM    2  N   UNL     1      -2.489   4.220 -33.027  1.00  0.00    -0.366 N 
HETATM    3  C   UNL     1      -3.413   3.269 -32.785  1.00  0.00     0.123 A 
HETATM    4  N   UNL     1      -4.666   3.579 -32.339  1.00  0.00    -0.240 N 
HETATM    5  N   UNL     1      -5.480   2.512 -32.209  1.00  0.00    -0.165 NA
HETATM    6  C   UNL     1      -4.683   1.467 -32.535  1.00  0.00     0.148 A 
HETATM    7  C   UNL     1      -3.382   1.905 -32.902  1.00  0.00     0.089 A 
HETATM    8  C   UNL     1      -5.125   4.928 -32.076  1.00  0.00     0.221 C 
HETATM    9  C   UNL     1      -4.242   5.951 -32.813  1.00  0.00     0.066 C 
HETATM   10  H   UNL     1      -1.524   3.975 -33.249  1.00  0.00     0.161 HD
ENDROOT
BRANCH   6  11
HETATM   11  C   UNL     1      -5.162   0.073 -32.498  1.00  0.00     0.276 C 
HETATM   12  N   UNL     1      -4.883  -0.600 -33.670  1.00  0.00    -0.322 N 
HETATM   13  H   UNL     1      -4.406  -0.025 -34.362  1.00  0.00     0.169 HD
HETATM   14  O   UNL     1      -5.740  -0.376 -31.514  1.00  0.00    -0.266 OA
BRANCH  12  15
HETATM   15  C   UNL     1      -5.188  -1.930 -34.009  1.00  0.00     0.037 A 
HETATM   16  C   UNL     1      -4.274  -2.982 -33.921  1.00  0.00     0.066 A 
HETATM   17  C   UNL     1      -4.665  -4.272 -34.279  1.00  0.00     0.067 A 
HETATM   18  C   UNL     1      -5.954  -4.534 -34.723  1.00  0.00     0.036 A 
HETATM   19  C   UNL     1      -6.872  -3.491 -34.814  1.00  0.00     0.005 A 
HETATM   20  C   UNL     1      -6.489  -2.193 -34.459  1.00  0.00     0.029 A 
BRANCH  17  21
HETATM   21  O   UNL     1      -3.795  -5.321 -34.205  1.00  0.00    -0.361 OA
HETATM   22  H   UNL     1      -3.967  -5.914 -34.955  1.00  0.00     0.217 HD
ENDBRANCH  17  21
ENDBRANCH  12  15
ENDBRANCH   6  11
BRANCH   8  23
HETATM   23  C   UNL     1      -5.233   5.162 -30.586  1.00  0.00     0.409 C 
HETATM   24  F   UNL     1      -4.312   4.506 -29.859  1.00  0.00    -0.169 F 
HETATM   25  F   UNL     1      -5.099   6.485 -30.310  1.00  0.00    -0.169 F 
HETATM   26  F   UNL     1      -6.450   4.802 -30.113  1.00  0.00    -0.169 F 
ENDBRANCH   8  23
BRANCH   1  27
HETATM   27  C   UNL     1      -1.980   6.179 -31.596  1.00  0.00    -0.035 A 
HETATM   28  C   UNL     1      -2.176   7.518 -31.214  1.00  0.00     0.010 A 
HETATM   29  C   UNL     1      -1.482   8.070 -30.133  1.00  0.00     0.007 A 
HETATM   30  C   UNL     1      -0.570   7.299 -29.408  1.00  0.00    -0.062 A 
HETATM   31  C   UNL     1       0.159   7.871 -28.229  1.00  0.00     0.048 C 
HETATM   32  C   UNL     1      -0.378   5.964 -29.771  1.00  0.00     0.007 A 
HETATM   33  C   UNL     1      -1.066   5.415 -30.858  1.00  0.00     0.010 A 
ENDBRANCH   1  27
TORSDOF 5
ENDMDL
MODEL 5
REMARK VINA RESULT:      -8.4      4.351     10.150
REMARK  5 active torsions:
REMARK  status: ('A' for Active; 'I' for Inactive)
REMARK    1  A    between atoms: C_5  and  C_6 
REMARK    2  A    between atoms: C_11  and  C_12 
REMARK       I    between atoms: C_12  and  N_13 
REMARK    3  A    between atoms: N_13  and  C_14 
REMARK    4  A    between atoms: C_16  and  O_17 
REMARK    5  A    between atoms: C_23  and  C_24 
ROOT
HETATM    1  C   UNL     1      -9.965   2.393 -34.586  1.00  0.00     0.118 C 
HETATM    2  N   UNL     1      -9.176   3.594 -34.338  1.00  0.00    -0.366 N 
HETATM    3  C   UNL     1      -8.074   3.598 -33.561  1.00  0.00     0.123 A 
HETATM    4  N   UNL     1      -7.598   2.456 -32.981  1.00  0.00    -0.240 N 
HETATM    5  N   UNL     1      -6.454   2.631 -32.289  1.00  0.00    -0.165 NA
HETATM    6  C   UNL     1      -6.225   3.962 -32.390  1.00  0.00     0.148 A 
HETATM    7  C   UNL     1      -7.220   4.598 -33.181  1.00  0.00     0.089 A 
HETATM    8  C   UNL     1      -8.213   1.153 -33.125  1.00  0.00     0.221 C 
HETATM    9  C   UNL     1      -9.126   1.122 -34.365  1.00  0.00     0.066 C 
HETATM   10  H   UNL     1      -9.589   4.464 -34.673  1.00  0.00     0.161 HD
ENDROOT
BRANCH   6  11
HETATM   11  C   UNL     1      -5.071   4.611 -31.742  1.00  0.00     0.276 C 
HETATM   12  N   UNL     1      -4.059   4.882 -32.642  1.00  0.00    -0.322 N 
HETATM   13  H   UNL     1      -4.272   4.583 -33.591  1.00  0.00     0.169 HD
HETATM   14  O   UNL     1      -5.067   4.851 -30.540  1.00  0.00    -0.266 OA
BRANCH  12  15
HETATM   15  C   UNL     1      -2.812   5.483 -32.399  1.00  0.00     0.037 A 
HETATM   16  C   UNL     1      -1.707   4.801 -31.883  1.00  0.00     0.066 A 
HETATM   17  C   UNL     1      -0.507   5.480 -31.675  1.00  0.00     0.067 A 
HETATM   18  C   UNL     1      -0.387   6.831 -31.972  1.00  0.00     0.036 A 
HETATM   19  C   UNL     1      -1.482   7.519 -32.487  1.00  0.00     0.005 A 
HETATM   20  C   UNL     1      -2.690   6.848 -32.697  1.00  0.00     0.029 A 
BRANCH  17  21
HETATM   21  O   UNL     1       0.588   4.841 -31.172  1.00  0.00    -0.361 OA
HETATM   22  H   UNL     1       0.704   4.006 -31.656  1.00  0.00     0.217 HD
ENDBRANCH  17  21
ENDBRANCH  12  15
ENDBRANCH   6  11
BRANCH   8  23
HETATM   23  C   UNL     1      -8.902   0.755 -31.839  1.00  0.00     0.409 C 
HETATM   24  F   UNL     1      -9.409   1.789 -31.145  1.00  0.00    -0.169 F 
HETATM   25  F   UNL     1      -9.927  -0.096 -32.101  1.00  0.00    -0.169 F 
HETATM   26  F   UNL     1      -8.063   0.088 -31.011  1.00  0.00    -0.169 F 
ENDBRANCH   8  23
BRANCH   1  27
HETATM   27  C   UNL     1     -11.303   2.411 -33.871  1.00  0.00    -0.035 A 
HETATM   28  C   UNL     1     -12.217   1.369 -34.109  1.00  0.00     0.010 A 
HETATM   29  C   UNL     1     -13.474   1.355 -33.496  1.00  0.00     0.007 A 
HETATM   30  C   UNL     1     -13.853   2.386 -32.634  1.00  0.00    -0.062 A 
HETATM   31  C   UNL     1     -15.187   2.370 -31.949  1.00  0.00     0.048 C 
HETATM   32  C   UNL     1     -12.948   3.420 -32.381  1.00  0.00     0.007 A 
HETATM   33  C   UNL     1     -11.694   3.437 -33.000  1.00  0.00     0.010 A 
ENDBRANCH   1  27
TORSDOF 5
ENDMDL
MODEL 6
REMARK VINA RESULT:      -8.4      5.480      8.308
REMARK  5 active torsions:
REMARK  status: ('A' for Active; 'I' for Inactive)
REMARK    1  A    between atoms: C_5  and  C_6 
REMARK    2  A    between atoms: C_11  and  C_12 
REMARK       I    between atoms: C_12  and  N_13 
REMARK    3  A    between atoms: N_13  and  C_14 
REMARK    4  A    between atoms: C_16  and  O_17 
REMARK    5  A    between atoms: C_23  and  C_24 
ROOT
HETATM    1  C   UNL     1      -6.823   1.151 -31.157  1.00  0.00     0.118 C 
HETATM    2  N   UNL     1      -7.986   1.996 -30.911  1.00  0.00    -0.366 N 
HETATM    3  C   UNL     1      -9.065   2.006 -31.719  1.00  0.00     0.123 A 
HETATM    4  N   UNL     1      -9.156   1.190 -32.811  1.00  0.00    -0.240 N 
HETATM    5  N   UNL     1     -10.328   1.288 -33.470  1.00  0.00    -0.165 NA
HETATM    6  C   UNL     1     -10.990   2.256 -32.793  1.00  0.00     0.148 A 
HETATM    7  C   UNL     1     -10.228   2.728 -31.690  1.00  0.00     0.089 A 
HETATM    8  C   UNL     1      -8.126   0.255 -33.215  1.00  0.00     0.221 C 
HETATM    9  C   UNL     1      -7.190  -0.059 -32.034  1.00  0.00     0.066 C 
HETATM   10  H   UNL     1      -7.875   2.685 -30.168  1.00  0.00     0.161 HD
ENDROOT
BRANCH   6  11
HETATM   11  C   UNL     1     -12.331   2.718 -33.196  1.00  0.00     0.276 C 
HETATM   12  N   UNL     1     -13.160   2.909 -32.108  1.00  0.00    -0.322 N 
HETATM   13  H   UNL     1     -12.714   2.692 -31.219  1.00  0.00     0.169 HD
HETATM   14  O   UNL     1     -12.618   2.889 -34.375  1.00  0.00    -0.266 OA
BRANCH  12  15
HETATM   15  C   UNL     1     -14.499   3.335 -32.094  1.00  0.00     0.037 A 
HETATM   16  C   UNL     1     -15.591   2.463 -32.104  1.00  0.00     0.066 A 
HETATM   17  C   UNL     1     -16.888   2.976 -32.088  1.00  0.00     0.067 A 
HETATM   18  C   UNL     1     -17.118   4.346 -32.063  1.00  0.00     0.036 A 
HETATM   19  C   UNL     1     -16.035   5.221 -32.053  1.00  0.00     0.005 A 
HETATM   20  C   UNL     1     -14.731   4.717 -32.070  1.00  0.00     0.029 A 
BRANCH  17  21
HETATM   21  O   UNL     1     -17.974   2.151 -32.098  1.00  0.00    -0.361 OA
HETATM   22  H   UNL     1     -18.078   1.771 -31.209  1.00  0.00     0.217 HD
ENDBRANCH  17  21
ENDBRANCH  12  15
ENDBRANCH   6  11
BRANCH   8  23
HETATM   23  C   UNL     1      -7.417   0.760 -34.451  1.00  0.00     0.409 C 
HETATM   24  F   UNL     1      -7.972   0.354 -35.607  1.00  0.00    -0.169 F 
HETATM   25  F   UNL     1      -7.407   2.118 -34.463  1.00  0.00    -0.169 F 
HETATM   26  F   UNL     1      -6.119   0.376 -34.472  1.00  0.00    -0.169 F 
ENDBRANCH   8  23
BRANCH   1  27
HETATM   27  C   UNL     1      -5.612   1.939 -31.624  1.00  0.00    -0.035 A 
HETATM   28  C   UNL     1      -5.760   3.305 -31.919  1.00  0.00     0.010 A 
HETATM   29  C   UNL     1      -4.681   4.066 -32.380  1.00  0.00     0.007 A 
HETATM   30  C   UNL     1      -3.427   3.479 -32.562  1.00  0.00    -0.062 A 
HETATM   31  C   UNL     1      -2.254   4.291 -33.029  1.00  0.00     0.048 C 
HETATM   32  C   UNL     1      -3.266   2.125 -32.260  1.00  0.00     0.007 A 
HETATM   33  C   UNL     1      -4.347   1.362 -31.807  1.00  0.00     0.010 A 
ENDBRANCH   1  27
TORSDOF 5
ENDMDL
MODEL 7
REMARK VINA RESULT:      -8.3      7.025      9.281
REMARK  5 active torsions:
REMARK  status: ('A' for Active; 'I' for Inactive)
REMARK    1  A    between atoms: C_5  and  C_6 
REMARK    2  A    between atoms: C_11  and  C_12 
REMARK       I    between atoms: C_12  and  N_13 
REMARK    3  A    between atoms: N_13  and  C_14 
REMARK    4  A    between atoms: C_16  and  O_17 
REMARK    5  A    between atoms: C_23  and  C_24 
ROOT
HETATM    1  C   UNL     1      -6.751   1.157 -34.706  1.00  0.00     0.118 C 
HETATM    2  N   UNL     1      -8.113   0.888 -35.151  1.00  0.00    -0.366 N 
HETATM    3  C   UNL     1      -9.197   1.183 -34.405  1.00  0.00     0.123 A 
HETATM    4  N   UNL     1      -9.090   1.794 -33.188  1.00  0.00    -0.240 N 
HETATM    5  N   UNL     1     -10.276   2.069 -32.608  1.00  0.00    -0.165 NA
HETATM    6  C   UNL     1     -11.177   1.554 -33.478  1.00  0.00     0.148 A 
HETATM    7  C   UNL     1     -10.536   0.993 -34.615  1.00  0.00     0.089 A 
HETATM    8  C   UNL     1      -7.833   2.174 -32.577  1.00  0.00     0.221 C 
HETATM    9  C   UNL     1      -6.723   2.267 -33.640  1.00  0.00     0.066 C 
HETATM   10  H   UNL     1      -8.192   0.331 -36.001  1.00  0.00     0.161 HD
ENDROOT
BRANCH   6  11
HETATM   11  C   UNL     1     -12.629   1.604 -33.223  1.00  0.00     0.276 C 
HETATM   12  N   UNL     1     -13.032   2.846 -32.773  1.00  0.00    -0.322 N 
HETATM   13  H   UNL     1     -12.266   3.511 -32.684  1.00  0.00     0.169 HD
HETATM   14  O   UNL     1     -13.341   0.623 -33.403  1.00  0.00    -0.266 OA
BRANCH  12  15
HETATM   15  C   UNL     1     -14.324   3.271 -32.422  1.00  0.00     0.037 A 
HETATM   16  C   UNL     1     -15.433   2.423 -32.365  1.00  0.00     0.066 A 
HETATM   17  C   UNL     1     -16.680   2.933 -32.006  1.00  0.00     0.067 A 
HETATM   18  C   UNL     1     -16.843   4.278 -31.702  1.00  0.00     0.036 A 
HETATM   19  C   UNL     1     -15.744   5.131 -31.756  1.00  0.00     0.005 A 
HETATM   20  C   UNL     1     -14.490   4.629 -32.116  1.00  0.00     0.029 A 
BRANCH  17  21
HETATM   21  O   UNL     1     -17.781   2.130 -31.943  1.00  0.00    -0.361 OA
HETATM   22  H   UNL     1     -17.721   1.593 -31.135  1.00  0.00     0.217 HD
ENDBRANCH  17  21
ENDBRANCH  12  15
ENDBRANCH   6  11
BRANCH   8  23
HETATM   23  C   UNL     1      -7.511   1.250 -31.424  1.00  0.00     0.409 C 
HETATM   24  F   UNL     1      -8.129   1.572 -30.274  1.00  0.00    -0.169 F 
HETATM   25  F   UNL     1      -7.867  -0.023 -31.732  1.00  0.00    -0.169 F 
HETATM   26  F   UNL     1      -6.181   1.216 -31.170  1.00  0.00    -0.169 F 
ENDBRANCH   8  23
BRANCH   1  27
HETATM   27  C   UNL     1      -5.991  -0.105 -34.339  1.00  0.00    -0.035 A 
HETATM   28  C   UNL     1      -6.483  -1.348 -34.776  1.00  0.00     0.010 A 
HETATM   29  C   UNL     1      -5.834  -2.540 -34.439  1.00  0.00     0.007 A 
HETATM   30  C   UNL     1      -4.680  -2.521 -33.652  1.00  0.00    -0.062 A 
HETATM   31  C   UNL     1      -3.959  -3.791 -33.308  1.00  0.00     0.048 C 
HETATM   32  C   UNL     1      -4.176  -1.291 -33.224  1.00  0.00     0.007 A 
HETATM   33  C   UNL     1      -4.830  -0.099 -33.554  1.00  0.00     0.010 A 
ENDBRANCH   1  27
TORSDOF 5
ENDMDL
MODEL 8
REMARK VINA RESULT:      -8.2      3.424      9.475
REMARK  5 active torsions:
REMARK  status: ('A' for Active; 'I' for Inactive)
REMARK    1  A    between atoms: C_5  and  C_6 
REMARK    2  A    between atoms: C_11  and  C_12 
REMARK       I    between atoms: C_12  and  N_13 
REMARK    3  A    between atoms: N_13  and  C_14 
REMARK    4  A    between atoms: C_16  and  O_17 
REMARK    5  A    between atoms: C_23  and  C_24 
ROOT
HETATM    1  C   UNL     1      -7.826   0.504 -32.894  1.00  0.00     0.118 C 
HETATM    2  N   UNL     1      -6.745   1.185 -33.598  1.00  0.00    -0.366 N 
HETATM    3  C   UNL     1      -5.991   2.145 -33.026  1.00  0.00     0.123 A 
HETATM    4  N   UNL     1      -6.167   2.520 -31.724  1.00  0.00    -0.240 N 
HETATM    5  N   UNL     1      -5.287   3.448 -31.299  1.00  0.00    -0.165 NA
HETATM    6  C   UNL     1      -4.554   3.716 -32.406  1.00  0.00     0.148 A 
HETATM    7  C   UNL     1      -4.967   2.917 -33.505  1.00  0.00     0.089 A 
HETATM    8  C   UNL     1      -7.162   1.947 -30.841  1.00  0.00     0.221 C 
HETATM    9  C   UNL     1      -7.629   0.579 -31.369  1.00  0.00     0.066 C 
HETATM   10  H   UNL     1      -6.687   0.992 -34.598  1.00  0.00     0.161 HD
ENDROOT
BRANCH   6  11
HETATM   11  C   UNL     1      -3.473   4.719 -32.406  1.00  0.00     0.276 C 
HETATM   12  N   UNL     1      -2.829   4.785 -31.186  1.00  0.00    -0.322 N 
HETATM   13  H   UNL     1      -3.210   4.144 -30.494  1.00  0.00     0.169 HD
HETATM   14  O   UNL     1      -3.226   5.390 -33.402  1.00  0.00    -0.266 OA
BRANCH  12  15
HETATM   15  C   UNL     1      -1.763   5.617 -30.805  1.00  0.00     0.037 A 
HETATM   16  C   UNL     1      -1.911   6.752 -30.003  1.00  0.00     0.066 A 
HETATM   17  C   UNL     1      -0.794   7.520 -29.674  1.00  0.00     0.067 A 
HETATM   18  C   UNL     1       0.472   7.177 -30.131  1.00  0.00     0.036 A 
HETATM   19  C   UNL     1       0.629   6.048 -30.930  1.00  0.00     0.005 A 
HETATM   20  C   UNL     1      -0.485   5.273 -31.267  1.00  0.00     0.029 A 
BRANCH  17  21
HETATM   21  O   UNL     1      -0.907   8.634 -28.894  1.00  0.00    -0.361 OA
HETATM   22  H   UNL     1      -1.168   8.355 -28.000  1.00  0.00     0.217 HD
ENDBRANCH  17  21
ENDBRANCH  12  15
ENDBRANCH   6  11
BRANCH   8  23
HETATM   23  C   UNL     1      -8.282   2.935 -30.606  1.00  0.00     0.409 C 
HETATM   24  F   UNL     1      -8.126   3.690 -29.504  1.00  0.00    -0.169 F 
HETATM   25  F   UNL     1      -8.389   3.782 -31.662  1.00  0.00    -0.169 F 
HETATM   26  F   UNL     1      -9.481   2.314 -30.500  1.00  0.00    -0.169 F 
ENDBRANCH   8  23
BRANCH   1  27
HETATM   27  C   UNL     1      -9.201   0.917 -33.385  1.00  0.00    -0.035 A 
HETATM   28  C   UNL     1      -9.328   2.091 -34.148  1.00  0.00     0.010 A 
HETATM   29  C   UNL     1     -10.577   2.529 -34.600  1.00  0.00     0.007 A 
HETATM   30  C   UNL     1     -11.733   1.807 -34.294  1.00  0.00    -0.062 A 
HETATM   31  C   UNL     1     -13.076   2.250 -34.796  1.00  0.00     0.048 C 
HETATM   32  C   UNL     1     -11.617   0.632 -33.547  1.00  0.00     0.007 A 
HETATM   33  C   UNL     1     -10.368   0.199 -33.089  1.00  0.00     0.010 A 
ENDBRANCH   1  27
TORSDOF 5
ENDMDL
MODEL 9
REMARK VINA RESULT:      -8.2      6.153      8.353
REMARK  5 active torsions:
REMARK  status: ('A' for Active; 'I' for Inactive)
REMARK    1  A    between atoms: C_5  and  C_6 
REMARK    2  A    between atoms: C_11  and  C_12 
REMARK       I    between atoms: C_12  and  N_13 
REMARK    3  A    between atoms: N_13  and  C_14 
REMARK    4  A    between atoms: C_16  and  O_17 
REMARK    5  A    between atoms: C_23  and  C_24 
ROOT
HETATM    1  C   UNL     1      -4.927   0.785 -33.686  1.00  0.00     0.118 C 
HETATM    2  N   UNL     1      -6.238   0.975 -34.295  1.00  0.00    -0.366 N 
HETATM    3  C   UNL     1      -7.311   1.404 -33.601  1.00  0.00     0.123 A 
HETATM    4  N   UNL     1      -7.230   1.730 -32.277  1.00  0.00    -0.240 N 
HETATM    5  N   UNL     1      -8.382   2.199 -31.758  1.00  0.00    -0.165 NA
HETATM    6  C   UNL     1      -9.252   2.111 -32.792  1.00  0.00     0.148 A 
HETATM    7  C   UNL     1      -8.614   1.619 -33.963  1.00  0.00     0.089 A 
HETATM    8  C   UNL     1      -6.015   1.644 -31.492  1.00  0.00     0.221 C 
HETATM    9  C   UNL     1      -4.779   1.632 -32.410  1.00  0.00     0.066 C 
HETATM   10  H   UNL     1      -6.331   0.625 -35.249  1.00  0.00     0.161 HD
ENDROOT
BRANCH   6  11
HETATM   11  C   UNL     1     -10.669   2.497 -32.661  1.00  0.00     0.276 C 
HETATM   12  N   UNL     1     -11.515   1.550 -33.202  1.00  0.00    -0.322 N 
HETATM   13  H   UNL     1     -11.023   0.755 -33.607  1.00  0.00     0.169 HD
HETATM   14  O   UNL     1     -10.995   3.552 -32.128  1.00  0.00    -0.266 OA
BRANCH  12  15
HETATM   15  C   UNL     1     -12.918   1.568 -33.271  1.00  0.00     0.037 A 
HETATM   16  C   UNL     1     -13.724   2.396 -32.485  1.00  0.00     0.066 A 
HETATM   17  C   UNL     1     -15.111   2.346 -32.621  1.00  0.00     0.067 A 
HETATM   18  C   UNL     1     -15.712   1.484 -33.528  1.00  0.00     0.036 A 
HETATM   19  C   UNL     1     -14.917   0.655 -34.315  1.00  0.00     0.005 A 
HETATM   20  C   UNL     1     -13.525   0.696 -34.185  1.00  0.00     0.029 A 
BRANCH  17  21
HETATM   21  O   UNL     1     -15.924   3.142 -31.867  1.00  0.00    -0.361 OA
HETATM   22  H   UNL     1     -16.840   3.009 -32.163  1.00  0.00     0.217 HD
ENDBRANCH  17  21
ENDBRANCH  12  15
ENDBRANCH   6  11
BRANCH   8  23
HETATM   23  C   UNL     1      -6.091   0.472 -30.540  1.00  0.00     0.409 C 
HETATM   24  F   UNL     1      -6.731  -0.600 -31.038  1.00  0.00    -0.169 F 
HETATM   25  F   UNL     1      -4.841   0.070 -30.192  1.00  0.00    -0.169 F 
HETATM   26  F   UNL     1      -6.712   0.809 -29.384  1.00  0.00    -0.169 F 
ENDBRANCH   8  23
BRANCH   1  27
HETATM   27  C   UNL     1      -4.555  -0.678 -33.532  1.00  0.00    -0.035 A 
HETATM   28  C   UNL     1      -5.225  -1.638 -34.311  1.00  0.00     0.010 A 
HETATM   29  C   UNL     1      -4.938  -3.000 -34.185  1.00  0.00     0.007 A 
HETATM   30  C   UNL     1      -3.977  -3.440 -33.272  1.00  0.00    -0.062 A 
HETATM   31  C   UNL     1      -3.639  -4.896 -33.147  1.00  0.00     0.048 C 
HETATM   32  C   UNL     1      -3.295  -2.494 -32.503  1.00  0.00     0.007 A 
HETATM   33  C   UNL     1      -3.589  -1.132 -32.624  1.00  0.00     0.010 A 
ENDBRANCH   1  27
TORSDOF 5
ENDMDL
MODEL 10
REMARK VINA RESULT:      -8.2      4.379      9.019
REMARK  5 active torsions:
REMARK  status: ('A' for Active; 'I' for Inactive)
REMARK    1  A    between atoms: C_5  and  C_6 
REMARK    2  A    between atoms: C_11  and  C_12 
REMARK       I    between atoms: C_12  and  N_13 
REMARK    3  A    between atoms: N_13  and  C_14 
REMARK    4  A    between atoms: C_16  and  O_17 
REMARK    5  A    between atoms: C_23  and  C_24 
ROOT
HETATM    1  C   UNL     1      -8.312   0.633 -32.587  1.00  0.00     0.118 C 
HETATM    2  N   UNL     1      -8.129   1.086 -31.214  1.00  0.00    -0.366 N 
HETATM    3  C   UNL     1      -7.751   2.342 -30.903  1.00  0.00     0.123 A 
HETATM    4  N   UNL     1      -7.550   3.293 -31.864  1.00  0.00    -0.240 N 
HETATM    5  N   UNL     1      -7.235   4.508 -31.373  1.00  0.00    -0.165 NA
HETATM    6  C   UNL     1      -7.179   4.302 -30.035  1.00  0.00     0.148 A 
HETATM    7  C   UNL     1      -7.498   2.957 -29.706  1.00  0.00     0.089 A 
HETATM    8  C   UNL     1      -7.708   3.059 -33.284  1.00  0.00     0.221 C 
HETATM    9  C   UNL     1      -8.584   1.817 -33.532  1.00  0.00     0.066 C 
HETATM   10  H   UNL     1      -8.165   0.355 -30.504  1.00  0.00     0.161 HD
ENDROOT
BRANCH   6  11
HETATM   11  C   UNL     1      -6.829   5.379 -29.090  1.00  0.00     0.276 C 
HETATM   12  N   UNL     1      -5.495   5.724 -29.172  1.00  0.00    -0.322 N 
HETATM   13  H   UNL     1      -4.978   5.177 -29.858  1.00  0.00     0.169 HD
HETATM   14  O   UNL     1      -7.668   5.865 -28.340  1.00  0.00    -0.266 OA
BRANCH  12  15
HETATM   15  C   UNL     1      -4.796   6.694 -28.433  1.00  0.00     0.037 A 
HETATM   16  C   UNL     1      -4.491   6.565 -27.075  1.00  0.00     0.066 A 
HETATM   17  C   UNL     1      -3.792   7.580 -26.422  1.00  0.00     0.067 A 
HETATM   18  C   UNL     1      -3.391   8.724 -27.098  1.00  0.00     0.036 A 
HETATM   19  C   UNL     1      -3.691   8.861 -28.450  1.00  0.00     0.005 A 
HETATM   20  C   UNL     1      -4.393   7.850 -29.114  1.00  0.00     0.029 A 
BRANCH  17  21
HETATM   21  O   UNL     1      -3.480   7.483 -25.097  1.00  0.00    -0.361 OA
HETATM   22  H   UNL     1      -4.297   7.599 -24.582  1.00  0.00     0.217 HD
ENDBRANCH  17  21
ENDBRANCH  12  15
ENDBRANCH   6  11
BRANCH   8  23
HETATM   23  C   UNL     1      -6.356   3.009 -33.960  1.00  0.00     0.409 C 
HETATM   24  F   UNL     1      -5.342   2.694 -33.136  1.00  0.00    -0.169 F 
HETATM   25  F   UNL     1      -6.366   2.088 -34.958  1.00  0.00    -0.169 F 
HETATM   26  F   UNL     1      -6.047   4.191 -34.544  1.00  0.00    -0.169 F 
ENDBRANCH   8  23
BRANCH   1  27
HETATM   27  C   UNL     1      -7.220  -0.316 -33.045  1.00  0.00    -0.035 A 
HETATM   28  C   UNL     1      -7.456  -1.142 -34.158  1.00  0.00     0.010 A 
HETATM   29  C   UNL     1      -6.491  -2.052 -34.600  1.00  0.00     0.007 A 
HETATM   30  C   UNL     1      -5.266  -2.165 -33.938  1.00  0.00    -0.062 A 
HETATM   31  C   UNL     1      -4.212  -3.117 -34.419  1.00  0.00     0.048 C 
HETATM   32  C   UNL     1      -5.017  -1.340 -32.838  1.00  0.00     0.007 A 
HETATM   33  C   UNL     1      -5.985  -0.435 -32.391  1.00  0.00     0.010 A 
ENDBRANCH   1  27
TORSDOF 5
ENDMDL
