MODEL 1
REMARK VINA RESULT:      -8.3      0.000      0.000
REMARK  3 active torsions:
REMARK  status: ('A' for Active; 'I' for Inactive)
REMARK    1  A    between atoms: C_6  and  C_7 
REMARK       I    between atoms: C_7  and  N_8 
REMARK    2  A    between atoms: N_8  and  C_9 
REMARK    3  A    between atoms: C_9  and  C_10 
ROOT
HETATM    1  C   UNL     1      -5.613   1.126 -32.254  1.00  0.00     0.271 C 
HETATM    2  N   UNL     1      -4.996   2.199 -32.848  1.00  0.00    -0.341 N 
HETATM    3  O   UNL     1      -6.627   1.260 -31.575  1.00  0.00    -0.266 OA
HETATM    4  H   UNL     1      -4.083   2.060 -33.264  1.00  0.00     0.164 HD
ENDROOT
BRANCH   1   5
HETATM    5  C   UNL     1      -4.971  -0.150 -32.468  1.00  0.00     0.133 A 
HETATM    6  N   UNL     1      -5.466  -1.150 -33.295  1.00  0.00    -0.300 N 
HETATM    7  C   UNL     1      -4.555  -2.201 -33.254  1.00  0.00     0.135 A 
HETATM    8  C   UNL     1      -6.640  -1.212 -34.052  1.00  0.00     0.100 A 
HETATM    9  C   UNL     1      -4.842  -3.360 -34.029  1.00  0.00     0.057 A 
HETATM   10  N   UNL     1      -3.536  -1.929 -32.473  1.00  0.00    -0.233 NA
HETATM   11  C   UNL     1      -5.968  -3.425 -34.771  1.00  0.00    -0.057 A 
HETATM   12  C   UNL     1      -6.317  -4.613 -35.615  1.00  0.00     0.048 C 
HETATM   13  C   UNL     1      -6.909  -2.308 -34.780  1.00  0.00     0.024 A 
HETATM   14  C   UNL     1      -3.763  -0.661 -31.993  1.00  0.00     0.066 A 
HETATM   15  C   UNL     1      -2.732  -0.041 -31.124  1.00  0.00     0.073 C 
ENDBRANCH   1   5
BRANCH   2  16
HETATM   16  C   UNL     1      -5.452   3.602 -32.781  1.00  0.00     0.079 C 
HETATM   17  C   UNL     1      -6.799   3.763 -33.507  1.00  0.00     0.046 C 
HETATM   18  C   UNL     1      -5.560   4.057 -31.315  1.00  0.00     0.046 C 
BRANCH  16  19
HETATM   19  C   UNL     1      -4.374   4.417 -33.501  1.00  0.00     0.128 A 
HETATM   20  S   UNL     1      -2.697   4.308 -33.114  1.00  0.00    -0.031 SA
HETATM   21  C   UNL     1      -2.400   5.468 -34.343  1.00  0.00     0.187 A 
HETATM   22  N   UNL     1      -1.159   5.908 -34.612  1.00  0.00    -0.377 N 
HETATM   23  N   UNL     1      -3.487   5.875 -34.958  1.00  0.00    -0.124 NA
HETATM   24  H   UNL     1      -0.446   5.811 -33.899  1.00  0.00     0.158 HD
HETATM   25  H   UNL     1      -1.096   6.764 -35.154  1.00  0.00     0.158 HD
HETATM   26  N   UNL     1      -4.629   5.271 -34.477  1.00  0.00    -0.142 NA
ENDBRANCH  16  19
ENDBRANCH   2  16
TORSDOF 3
ENDMDL
MODEL 2
REMARK VINA RESULT:      -8.2      1.120      2.395
REMARK  3 active torsions:
REMARK  status: ('A' for Active; 'I' for Inactive)
REMARK    1  A    between atoms: C_6  and  C_7 
REMARK       I    between atoms: C_7  and  N_8 
REMARK    2  A    between atoms: N_8  and  C_9 
REMARK    3  A    between atoms: C_9  and  C_10 
ROOT
HETATM    1  C   UNL     1      -6.113   1.143 -32.563  1.00  0.00     0.271 C 
HETATM    2  N   UNL     1      -5.411   2.204 -33.080  1.00  0.00    -0.341 N 
HETATM    3  O   UNL     1      -6.592   1.176 -31.434  1.00  0.00    -0.266 OA
HETATM    4  H   UNL     1      -4.907   2.070 -33.948  1.00  0.00     0.164 HD
ENDROOT
BRANCH   1   5
HETATM    5  C   UNL     1      -6.219  -0.008 -33.431  1.00  0.00     0.133 A 
HETATM    6  N   UNL     1      -5.392  -1.122 -33.363  1.00  0.00    -0.300 N 
HETATM    7  C   UNL     1      -5.828  -2.012 -34.340  1.00  0.00     0.135 A 
HETATM    8  C   UNL     1      -4.299  -1.399 -32.537  1.00  0.00     0.100 A 
HETATM    9  C   UNL     1      -5.132  -3.247 -34.472  1.00  0.00     0.057 A 
HETATM   10  N   UNL     1      -6.859  -1.540 -35.001  1.00  0.00    -0.233 NA
HETATM   11  C   UNL     1      -4.081  -3.528 -33.672  1.00  0.00    -0.057 A 
HETATM   12  C   UNL     1      -3.318  -4.815 -33.757  1.00  0.00     0.048 C 
HETATM   13  C   UNL     1      -3.642  -2.564 -32.667  1.00  0.00     0.024 A 
HETATM   14  C   UNL     1      -7.128  -0.313 -34.443  1.00  0.00     0.066 A 
HETATM   15  C   UNL     1      -8.302   0.446 -34.942  1.00  0.00     0.073 C 
ENDBRANCH   1   5
BRANCH   2  16
HETATM   16  C   UNL     1      -5.162   3.488 -32.397  1.00  0.00     0.079 C 
HETATM   17  C   UNL     1      -6.476   4.277 -32.243  1.00  0.00     0.046 C 
HETATM   18  C   UNL     1      -4.504   3.244 -31.028  1.00  0.00     0.046 C 
BRANCH  16  19
HETATM   19  C   UNL     1      -4.200   4.257 -33.308  1.00  0.00     0.128 A 
HETATM   20  S   UNL     1      -2.489   4.241 -33.094  1.00  0.00    -0.031 SA
HETATM   21  C   UNL     1      -2.371   5.275 -34.458  1.00  0.00     0.187 A 
HETATM   22  N   UNL     1      -1.183   5.723 -34.902  1.00  0.00    -0.377 N 
HETATM   23  N   UNL     1      -3.531   5.581 -34.992  1.00  0.00    -0.124 NA
HETATM   24  H   UNL     1      -0.397   5.723 -34.263  1.00  0.00     0.158 HD
HETATM   25  H   UNL     1      -1.213   6.518 -35.531  1.00  0.00     0.158 HD
HETATM   26  N   UNL     1      -4.590   4.995 -34.332  1.00  0.00    -0.142 NA
ENDBRANCH  16  19
ENDBRANCH   2  16
TORSDOF 3
ENDMDL
MODEL 3
REMARK VINA RESULT:      -7.8      2.724      4.100
REMARK  3 active torsions:
REMARK  status: ('A' for Active; 'I' for Inactive)
REMARK    1  A    between atoms: C_6  and  C_7 
REMARK       I    between atoms: C_7  and  N_8 
REMARK    2  A    between atoms: N_8  and  C_9 
REMARK    3  A    between atoms: C_9  and  C_10 
ROOT
HETATM    1  C   UNL     1      -6.147   0.957 -32.023  1.00  0.00     0.271 C 
HETATM    2  N   UNL     1      -6.130   1.988 -32.930  1.00  0.00    -0.341 N 
HETATM    3  O   UNL     1      -6.816   1.013 -30.996  1.00  0.00    -0.266 OA
HETATM    4  H   UNL     1      -5.447   1.960 -33.678  1.00  0.00     0.164 HD
ENDROOT
BRANCH   1   5
HETATM    5  C   UNL     1      -5.307  -0.171 -32.357  1.00  0.00     0.133 A 
HETATM    6  N   UNL     1      -5.685  -1.209 -33.200  1.00  0.00    -0.300 N 
HETATM    7  C   UNL     1      -4.601  -2.078 -33.287  1.00  0.00     0.135 A 
HETATM    8  C   UNL     1      -6.889  -1.451 -33.868  1.00  0.00     0.100 A 
HETATM    9  C   UNL     1      -4.742  -3.235 -34.103  1.00  0.00     0.057 A 
HETATM   10  N   UNL     1      -3.585  -1.657 -32.571  1.00  0.00    -0.233 NA
HETATM   11  C   UNL     1      -5.898  -3.473 -34.760  1.00  0.00    -0.057 A 
HETATM   12  C   UNL     1      -6.099  -4.668 -35.641  1.00  0.00     0.048 C 
HETATM   13  C   UNL     1      -7.020  -2.547 -34.634  1.00  0.00     0.024 A 
HETATM   14  C   UNL     1      -3.993  -0.474 -32.005  1.00  0.00     0.066 A 
HETATM   15  C   UNL     1      -3.019   0.287 -31.182  1.00  0.00     0.073 C 
ENDBRANCH   1   5
BRANCH   2  16
HETATM   16  C   UNL     1      -6.896   3.244 -32.821  1.00  0.00     0.079 C 
HETATM   17  C   UNL     1      -6.743   3.845 -31.412  1.00  0.00     0.046 C 
HETATM   18  C   UNL     1      -6.434   4.244 -33.897  1.00  0.00     0.046 C 
BRANCH  16  19
HETATM   19  C   UNL     1      -8.357   2.857 -33.065  1.00  0.00     0.128 A 
HETATM   20  S   UNL     1      -9.613   3.164 -31.924  1.00  0.00    -0.031 SA
HETATM   21  C   UNL     1     -10.709   2.442 -33.028  1.00  0.00     0.187 A 
HETATM   22  N   UNL     1     -12.019   2.322 -32.746  1.00  0.00    -0.377 N 
HETATM   23  N   UNL     1     -10.143   2.020 -34.136  1.00  0.00    -0.124 NA
HETATM   24  H   UNL     1     -12.309   2.356 -31.776  1.00  0.00     0.158 HD
HETATM   25  H   UNL     1     -12.540   1.665 -33.317  1.00  0.00     0.158 HD
HETATM   26  N   UNL     1      -8.785   2.259 -34.162  1.00  0.00    -0.142 NA
ENDBRANCH  16  19
ENDBRANCH   2  16
TORSDOF 3
ENDMDL
MODEL 4
REMARK VINA RESULT:      -7.6      2.437      6.960
REMARK  3 active torsions:
REMARK  status: ('A' for Active; 'I' for Inactive)
REMARK    1  A    between atoms: C_6  and  C_7 
REMARK       I    between atoms: C_7  and  N_8 
REMARK    2  A    between atoms: N_8  and  C_9 
REMARK    3  A    between atoms: C_9  and  C_10 
ROOT
HETATM    1  C   UNL     1      -5.781   1.644 -33.098  1.00  0.00     0.271 C 
HETATM    2  N   UNL     1      -5.657   0.347 -33.533  1.00  0.00    -0.341 N 
HETATM    3  O   UNL     1      -6.843   2.253 -33.186  1.00  0.00    -0.266 OA
HETATM    4  H   UNL     1      -4.729  -0.057 -33.582  1.00  0.00     0.164 HD
ENDROOT
BRANCH   1   5
HETATM    5  C   UNL     1      -4.576   2.232 -32.561  1.00  0.00     0.133 A 
HETATM    6  N   UNL     1      -4.089   3.485 -32.912  1.00  0.00    -0.300 N 
HETATM    7  C   UNL     1      -2.935   3.697 -32.164  1.00  0.00     0.135 A 
HETATM    8  C   UNL     1      -4.565   4.425 -33.831  1.00  0.00     0.100 A 
HETATM    9  C   UNL     1      -2.242   4.927 -32.347  1.00  0.00     0.057 A 
HETATM   10  N   UNL     1      -2.673   2.680 -31.378  1.00  0.00    -0.233 NA
HETATM   11  C   UNL     1      -2.698   5.845 -33.226  1.00  0.00    -0.057 A 
HETATM   12  C   UNL     1      -2.018   7.161 -33.451  1.00  0.00     0.048 C 
HETATM   13  C   UNL     1      -3.906   5.583 -34.004  1.00  0.00     0.024 A 
HETATM   14  C   UNL     1      -3.684   1.774 -31.593  1.00  0.00     0.066 A 
HETATM   15  C   UNL     1      -3.700   0.531 -30.782  1.00  0.00     0.073 C 
ENDBRANCH   1   5
BRANCH   2  16
HETATM   16  C   UNL     1      -6.734  -0.474 -34.119  1.00  0.00     0.079 C 
HETATM   17  C   UNL     1      -7.947  -0.522 -33.172  1.00  0.00     0.046 C 
HETATM   18  C   UNL     1      -7.136   0.080 -35.498  1.00  0.00     0.046 C 
BRANCH  16  19
HETATM   19  C   UNL     1      -6.142  -1.877 -34.275  1.00  0.00     0.128 A 
HETATM   20  S   UNL     1      -4.516  -2.264 -33.848  1.00  0.00    -0.031 SA
HETATM   21  C   UNL     1      -4.835  -3.876 -34.343  1.00  0.00     0.187 A 
HETATM   22  N   UNL     1      -3.890  -4.831 -34.285  1.00  0.00    -0.377 N 
HETATM   23  N   UNL     1      -6.059  -4.062 -34.783  1.00  0.00    -0.124 NA
HETATM   24  H   UNL     1      -2.918  -4.548 -34.260  1.00  0.00     0.158 HD
HETATM   25  H   UNL     1      -4.070  -5.670 -34.827  1.00  0.00     0.158 HD
HETATM   26  N   UNL     1      -6.817  -2.911 -34.744  1.00  0.00    -0.142 NA
ENDBRANCH  16  19
ENDBRANCH   2  16
TORSDOF 3
ENDMDL
MODEL 5
REMARK VINA RESULT:      -7.5      2.179      2.995
REMARK  3 active torsions:
REMARK  status: ('A' for Active; 'I' for Inactive)
REMARK    1  A    between atoms: C_6  and  C_7 
REMARK       I    between atoms: C_7  and  N_8 
REMARK    2  A    between atoms: N_8  and  C_9 
REMARK    3  A    between atoms: C_9  and  C_10 
ROOT
HETATM    1  C   UNL     1      -6.246   1.134 -32.294  1.00  0.00     0.271 C 
HETATM    2  N   UNL     1      -5.952   2.258 -33.026  1.00  0.00    -0.341 N 
HETATM    3  O   UNL     1      -7.160   1.119 -31.476  1.00  0.00    -0.266 OA
HETATM    4  H   UNL     1      -5.097   2.269 -33.570  1.00  0.00     0.164 HD
ENDROOT
BRANCH   1   5
HETATM    5  C   UNL     1      -5.391  -0.004 -32.543  1.00  0.00     0.133 A 
HETATM    6  N   UNL     1      -5.741  -1.090 -33.336  1.00  0.00    -0.300 N 
HETATM    7  C   UNL     1      -4.649  -1.954 -33.347  1.00  0.00     0.135 A 
HETATM    8  C   UNL     1      -6.926  -1.379 -34.020  1.00  0.00     0.100 A 
HETATM    9  C   UNL     1      -4.761  -3.156 -34.101  1.00  0.00     0.057 A 
HETATM   10  N   UNL     1      -3.654  -1.486 -32.631  1.00  0.00    -0.233 NA
HETATM   11  C   UNL     1      -5.898  -3.439 -34.772  1.00  0.00    -0.057 A 
HETATM   12  C   UNL     1      -6.069  -4.683 -35.590  1.00  0.00     0.048 C 
HETATM   13  C   UNL     1      -7.029  -2.516 -34.727  1.00  0.00     0.024 A 
HETATM   14  C   UNL     1      -4.085  -0.276 -32.142  1.00  0.00     0.066 A 
HETATM   15  C   UNL     1      -3.137   0.537 -31.339  1.00  0.00     0.073 C 
ENDBRANCH   1   5
BRANCH   2  16
HETATM   16  C   UNL     1      -6.672   3.545 -32.957  1.00  0.00     0.079 C 
HETATM   17  C   UNL     1      -6.003   4.583 -33.876  1.00  0.00     0.046 C 
HETATM   18  C   UNL     1      -8.151   3.349 -33.335  1.00  0.00     0.046 C 
BRANCH  16  19
HETATM   19  C   UNL     1      -6.563   3.998 -31.498  1.00  0.00     0.128 A 
HETATM   20  S   UNL     1      -5.055   4.207 -30.689  1.00  0.00    -0.031 SA
HETATM   21  C   UNL     1      -5.938   4.675 -29.294  1.00  0.00     0.187 A 
HETATM   22  N   UNL     1      -5.320   5.006 -28.147  1.00  0.00    -0.377 N 
HETATM   23  N   UNL     1      -7.241   4.658 -29.463  1.00  0.00    -0.124 NA
HETATM   24  H   UNL     1      -4.374   4.679 -27.995  1.00  0.00     0.158 HD
HETATM   25  H   UNL     1      -5.899   5.014 -27.313  1.00  0.00     0.158 HD
HETATM   26  N   UNL     1      -7.606   4.269 -30.734  1.00  0.00    -0.142 NA
ENDBRANCH  16  19
ENDBRANCH   2  16
TORSDOF 3
ENDMDL
MODEL 6
REMARK VINA RESULT:      -7.4      1.593      2.638
REMARK  3 active torsions:
REMARK  status: ('A' for Active; 'I' for Inactive)
REMARK    1  A    between atoms: C_6  and  C_7 
REMARK       I    between atoms: C_7  and  N_8 
REMARK    2  A    between atoms: N_8  and  C_9 
REMARK    3  A    between atoms: C_9  and  C_10 
ROOT
HETATM    1  C   UNL     1      -6.090   2.336 -32.040  1.00  0.00     0.271 C 
HETATM    2  N   UNL     1      -6.231   3.540 -32.684  1.00  0.00    -0.341 N 
HETATM    3  O   UNL     1      -5.318   2.197 -31.096  1.00  0.00    -0.266 OA
HETATM    4  H   UNL     1      -6.760   3.565 -33.548  1.00  0.00     0.164 HD
ENDROOT
BRANCH   1   5
HETATM    5  C   UNL     1      -6.892   1.257 -32.568  1.00  0.00     0.133 A 
HETATM    6  N   UNL     1      -6.375   0.108 -33.154  1.00  0.00    -0.300 N 
HETATM    7  C   UNL     1      -7.458  -0.691 -33.507  1.00  0.00     0.135 A 
HETATM    8  C   UNL     1      -5.054  -0.271 -33.411  1.00  0.00     0.100 A 
HETATM    9  C   UNL     1      -7.185  -1.940 -34.133  1.00  0.00     0.057 A 
HETATM   10  N   UNL     1      -8.600  -0.133 -33.182  1.00  0.00    -0.233 NA
HETATM   11  C   UNL     1      -5.912  -2.320 -34.377  1.00  0.00    -0.057 A 
HETATM   12  C   UNL     1      -5.565  -3.627 -35.022  1.00  0.00     0.048 C 
HETATM   13  C   UNL     1      -4.800  -1.449 -34.005  1.00  0.00     0.024 A 
HETATM   14  C   UNL     1      -8.272   1.061 -32.584  1.00  0.00     0.066 A 
HETATM   15  C   UNL     1      -9.369   1.900 -32.038  1.00  0.00     0.073 C 
ENDBRANCH   1   5
BRANCH   2  16
HETATM   16  C   UNL     1      -5.528   4.791 -32.340  1.00  0.00     0.079 C 
HETATM   17  C   UNL     1      -6.501   5.983 -32.384  1.00  0.00     0.046 C 
HETATM   18  C   UNL     1      -4.873   4.669 -30.952  1.00  0.00     0.046 C 
BRANCH  16  19
HETATM   19  C   UNL     1      -4.448   4.963 -33.412  1.00  0.00     0.128 A 
HETATM   20  S   UNL     1      -2.774   4.671 -33.115  1.00  0.00    -0.031 SA
HETATM   21  C   UNL     1      -2.474   5.095 -34.750  1.00  0.00     0.187 A 
HETATM   22  N   UNL     1      -1.230   5.096 -35.261  1.00  0.00    -0.377 N 
HETATM   23  N   UNL     1      -3.556   5.422 -35.419  1.00  0.00    -0.124 NA
HETATM   24  H   UNL     1      -0.446   5.164 -34.624  1.00  0.00     0.158 HD
HETATM   25  H   UNL     1      -1.105   5.599 -36.133  1.00  0.00     0.158 HD
HETATM   26  N   UNL     1      -4.698   5.346 -34.651  1.00  0.00    -0.142 NA
ENDBRANCH  16  19
ENDBRANCH   2  16
TORSDOF 3
ENDMDL
MODEL 7
REMARK VINA RESULT:      -7.3      3.761      6.725
REMARK  3 active torsions:
REMARK  status: ('A' for Active; 'I' for Inactive)
REMARK    1  A    between atoms: C_6  and  C_7 
REMARK       I    between atoms: C_7  and  N_8 
REMARK    2  A    between atoms: N_8  and  C_9 
REMARK    3  A    between atoms: C_9  and  C_10 
ROOT
HETATM    1  C   UNL     1      -7.328   1.789 -32.412  1.00  0.00     0.271 C 
HETATM    2  N   UNL     1      -6.643   0.795 -33.067  1.00  0.00    -0.341 N 
HETATM    3  O   UNL     1      -7.066   2.095 -31.253  1.00  0.00    -0.266 OA
HETATM    4  H   UNL     1      -6.997   0.476 -33.961  1.00  0.00     0.164 HD
ENDROOT
BRANCH   1   5
HETATM    5  C   UNL     1      -8.381   2.418 -33.175  1.00  0.00     0.133 A 
HETATM    6  N   UNL     1      -9.631   1.855 -33.400  1.00  0.00    -0.300 N 
HETATM    7  C   UNL     1     -10.362   2.773 -34.148  1.00  0.00     0.135 A 
HETATM    8  C   UNL     1     -10.157   0.616 -33.021  1.00  0.00     0.100 A 
HETATM    9  C   UNL     1     -11.693   2.424 -34.512  1.00  0.00     0.057 A 
HETATM   10  N   UNL     1      -9.667   3.858 -34.397  1.00  0.00    -0.233 NA
HETATM   11  C   UNL     1     -12.214   1.234 -34.142  1.00  0.00    -0.057 A 
HETATM   12  C   UNL     1     -13.612   0.818 -34.486  1.00  0.00     0.048 C 
HETATM   13  C   UNL     1     -11.413   0.289 -33.369  1.00  0.00     0.024 A 
HETATM   14  C   UNL     1      -8.449   3.667 -33.790  1.00  0.00     0.066 A 
HETATM   15  C   UNL     1      -7.456   4.769 -33.839  1.00  0.00     0.073 C 
ENDBRANCH   1   5
BRANCH   2  16
HETATM   16  C   UNL     1      -5.528   0.004 -32.511  1.00  0.00     0.079 C 
HETATM   17  C   UNL     1      -4.213   0.801 -32.588  1.00  0.00     0.046 C 
HETATM   18  C   UNL     1      -5.838  -0.404 -31.059  1.00  0.00     0.046 C 
BRANCH  16  19
HETATM   19  C   UNL     1      -5.431  -1.244 -33.393  1.00  0.00     0.128 A 
HETATM   20  S   UNL     1      -6.805  -1.988 -34.123  1.00  0.00    -0.031 SA
HETATM   21  C   UNL     1      -5.737  -3.145 -34.807  1.00  0.00     0.187 A 
HETATM   22  N   UNL     1      -6.188  -4.148 -35.581  1.00  0.00    -0.377 N 
HETATM   23  N   UNL     1      -4.477  -2.955 -34.488  1.00  0.00    -0.124 NA
HETATM   24  H   UNL     1      -7.160  -4.419 -35.504  1.00  0.00     0.158 HD
HETATM   25  H   UNL     1      -5.547  -4.922 -35.726  1.00  0.00     0.158 HD
HETATM   26  N   UNL     1      -4.295  -1.858 -33.673  1.00  0.00    -0.142 NA
ENDBRANCH  16  19
ENDBRANCH   2  16
TORSDOF 3
ENDMDL
MODEL 8
REMARK VINA RESULT:      -7.3     15.532     16.836
REMARK  3 active torsions:
REMARK  status: ('A' for Active; 'I' for Inactive)
REMARK    1  A    between atoms: C_6  and  C_7 
REMARK       I    between atoms: C_7  and  N_8 
REMARK    2  A    between atoms: N_8  and  C_9 
REMARK    3  A    between atoms: C_9  and  C_10 
ROOT
HETATM    1  C   UNL     1      -5.211 -13.211 -39.152  1.00  0.00     0.271 C 
HETATM    2  N   UNL     1      -6.027 -14.255 -38.793  1.00  0.00    -0.341 N 
HETATM    3  O   UNL     1      -5.448 -12.059 -38.803  1.00  0.00    -0.266 OA
HETATM    4  H   UNL     1      -5.878 -15.156 -39.231  1.00  0.00     0.164 HD
ENDROOT
BRANCH   1   5
HETATM    5  C   UNL     1      -4.083 -13.568 -39.981  1.00  0.00     0.133 A 
HETATM    6  N   UNL     1      -2.788 -13.747 -39.511  1.00  0.00    -0.300 N 
HETATM    7  C   UNL     1      -2.004 -14.106 -40.603  1.00  0.00     0.135 A 
HETATM    8  C   UNL     1      -2.255 -13.603 -38.226  1.00  0.00     0.100 A 
HETATM    9  C   UNL     1      -0.620 -14.347 -40.377  1.00  0.00     0.057 A 
HETATM   10  N   UNL     1      -2.711 -14.169 -41.707  1.00  0.00    -0.233 NA
HETATM   11  C   UNL     1      -0.097 -14.221 -39.138  1.00  0.00    -0.057 A 
HETATM   12  C   UNL     1       1.349 -14.473 -38.838  1.00  0.00     0.048 C 
HETATM   13  C   UNL     1      -0.947 -13.828 -38.017  1.00  0.00     0.024 A 
HETATM   14  C   UNL     1      -3.999 -13.859 -41.342  1.00  0.00     0.066 A 
HETATM   15  C   UNL     1      -5.059 -13.916 -42.380  1.00  0.00     0.073 C 
ENDBRANCH   1   5
BRANCH   2  16
HETATM   16  C   UNL     1      -7.238 -14.155 -37.954  1.00  0.00     0.079 C 
HETATM   17  C   UNL     1      -8.038 -12.891 -38.317  1.00  0.00     0.046 C 
HETATM   18  C   UNL     1      -8.103 -15.418 -38.115  1.00  0.00     0.046 C 
BRANCH  16  19
HETATM   19  C   UNL     1      -6.731 -14.052 -36.513  1.00  0.00     0.128 A 
HETATM   20  S   UNL     1      -5.300 -14.839 -35.961  1.00  0.00    -0.031 SA
HETATM   21  C   UNL     1      -5.597 -14.161 -34.413  1.00  0.00     0.187 A 
HETATM   22  N   UNL     1      -4.781 -14.398 -33.371  1.00  0.00    -0.377 N 
HETATM   23  N   UNL     1      -6.681 -13.422 -34.360  1.00  0.00    -0.124 NA
HETATM   24  H   UNL     1      -4.185 -15.217 -33.400  1.00  0.00     0.158 HD
HETATM   25  H   UNL     1      -5.156 -14.186 -32.453  1.00  0.00     0.158 HD
HETATM   26  N   UNL     1      -7.339 -13.355 -35.569  1.00  0.00    -0.142 NA
ENDBRANCH  16  19
ENDBRANCH   2  16
TORSDOF 3
ENDMDL
MODEL 9
REMARK VINA RESULT:      -7.2      4.805      6.526
REMARK  3 active torsions:
REMARK  status: ('A' for Active; 'I' for Inactive)
REMARK    1  A    between atoms: C_6  and  C_7 
REMARK       I    between atoms: C_7  and  N_8 
REMARK    2  A    between atoms: N_8  and  C_9 
REMARK    3  A    between atoms: C_9  and  C_10 
ROOT
HETATM    1  C   UNL     1      -8.369   3.088 -33.311  1.00  0.00     0.271 C 
HETATM    2  N   UNL     1      -9.682   2.736 -33.120  1.00  0.00    -0.341 N 
HETATM    3  O   UNL     1      -8.057   4.134 -33.872  1.00  0.00    -0.266 OA
HETATM    4  H   UNL     1      -9.886   1.799 -32.795  1.00  0.00     0.164 HD
ENDROOT
BRANCH   1   5
HETATM    5  C   UNL     1      -7.398   2.133 -32.827  1.00  0.00     0.133 A 
HETATM    6  N   UNL     1      -7.069   0.950 -33.477  1.00  0.00    -0.300 N 
HETATM    7  C   UNL     1      -6.086   0.327 -32.715  1.00  0.00     0.135 A 
HETATM    8  C   UNL     1      -7.570   0.384 -34.653  1.00  0.00     0.100 A 
HETATM    9  C   UNL     1      -5.577  -0.919 -33.177  1.00  0.00     0.057 A 
HETATM   10  N   UNL     1      -5.778   1.032 -31.651  1.00  0.00    -0.233 NA
HETATM   11  C   UNL     1      -6.047  -1.469 -34.317  1.00  0.00    -0.057 A 
HETATM   12  C   UNL     1      -5.542  -2.772 -34.858  1.00  0.00     0.048 C 
HETATM   13  C   UNL     1      -7.090  -0.794 -35.085  1.00  0.00     0.024 A 
HETATM   14  C   UNL     1      -6.562   2.159 -31.712  1.00  0.00     0.066 A 
HETATM   15  C   UNL     1      -6.387   3.197 -30.666  1.00  0.00     0.073 C 
ENDBRANCH   1   5
BRANCH   2  16
HETATM   16  C   UNL     1     -10.856   3.535 -33.521  1.00  0.00     0.079 C 
HETATM   17  C   UNL     1     -11.062   4.711 -32.549  1.00  0.00     0.046 C 
HETATM   18  C   UNL     1     -10.690   4.039 -34.966  1.00  0.00     0.046 C 
BRANCH  16  19
HETATM   19  C   UNL     1     -12.050   2.579 -33.438  1.00  0.00     0.128 A 
HETATM   20  S   UNL     1     -11.936   0.898 -33.807  1.00  0.00    -0.031 SA
HETATM   21  C   UNL     1     -13.607   0.767 -33.440  1.00  0.00     0.187 A 
HETATM   22  N   UNL     1     -14.259  -0.405 -33.536  1.00  0.00    -0.377 N 
HETATM   23  N   UNL     1     -14.160   1.903 -33.081  1.00  0.00    -0.124 NA
HETATM   24  H   UNL     1     -13.866  -1.131 -34.122  1.00  0.00     0.158 HD
HETATM   25  H   UNL     1     -15.273  -0.351 -33.558  1.00  0.00     0.158 HD
HETATM   26  N   UNL     1     -13.265   2.952 -33.077  1.00  0.00    -0.142 NA
ENDBRANCH  16  19
ENDBRANCH   2  16
TORSDOF 3
ENDMDL
MODEL 10
REMARK VINA RESULT:      -7.2      5.513      6.938
REMARK  3 active torsions:
REMARK  status: ('A' for Active; 'I' for Inactive)
REMARK    1  A    between atoms: C_6  and  C_7 
REMARK       I    between atoms: C_7  and  N_8 
REMARK    2  A    between atoms: N_8  and  C_9 
REMARK    3  A    between atoms: C_9  and  C_10 
ROOT
HETATM    1  C   UNL     1     -10.038   1.821 -33.630  1.00  0.00     0.271 C 
HETATM    2  N   UNL     1     -11.252   1.268 -33.306  1.00  0.00    -0.341 N 
HETATM    3  O   UNL     1      -9.923   2.636 -34.540  1.00  0.00    -0.266 OA
HETATM    4  H   UNL     1     -11.269   0.490 -32.657  1.00  0.00     0.164 HD
ENDROOT
BRANCH   1   5
HETATM    5  C   UNL     1      -8.920   1.356 -32.842  1.00  0.00     0.133 A 
HETATM    6  N   UNL     1      -7.973   0.441 -33.285  1.00  0.00    -0.300 N 
HETATM    7  C   UNL     1      -7.054   0.275 -32.253  1.00  0.00     0.135 A 
HETATM    8  C   UNL     1      -7.870  -0.255 -34.493  1.00  0.00     0.100 A 
HETATM    9  C   UNL     1      -5.972  -0.626 -32.466  1.00  0.00     0.057 A 
HETATM   10  N   UNL     1      -7.353   1.017 -31.213  1.00  0.00    -0.233 NA
HETATM   11  C   UNL     1      -5.859  -1.295 -33.633  1.00  0.00    -0.057 A 
HETATM   12  C   UNL     1      -4.737  -2.247 -33.918  1.00  0.00     0.048 C 
HETATM   13  C   UNL     1      -6.850  -1.107 -34.689  1.00  0.00     0.024 A 
HETATM   14  C   UNL     1      -8.490   1.705 -31.562  1.00  0.00     0.066 A 
HETATM   15  C   UNL     1      -9.039   2.694 -30.600  1.00  0.00     0.073 C 
ENDBRANCH   1   5
BRANCH   2  16
HETATM   16  C   UNL     1     -12.541   1.574 -33.957  1.00  0.00     0.079 C 
HETATM   17  C   UNL     1     -12.361   1.670 -35.483  1.00  0.00     0.046 C 
HETATM   18  C   UNL     1     -13.588   0.506 -33.594  1.00  0.00     0.046 C 
BRANCH  16  19
HETATM   19  C   UNL     1     -12.970   2.934 -33.399  1.00  0.00     0.128 A 
HETATM   20  S   UNL     1     -12.923   4.387 -34.327  1.00  0.00    -0.031 SA
HETATM   21  C   UNL     1     -13.532   5.212 -32.951  1.00  0.00     0.187 A 
HETATM   22  N   UNL     1     -13.755   6.538 -32.966  1.00  0.00    -0.377 N 
HETATM   23  N   UNL     1     -13.734   4.432 -31.914  1.00  0.00    -0.124 NA
HETATM   24  H   UNL     1     -13.274   7.102 -33.656  1.00  0.00     0.158 HD
HETATM   25  H   UNL     1     -13.860   6.984 -32.060  1.00  0.00     0.158 HD
HETATM   26  N   UNL     1     -13.412   3.116 -32.168  1.00  0.00    -0.142 NA
ENDBRANCH  16  19
ENDBRANCH   2  16
TORSDOF 3
ENDMDL
