MODEL 1
REMARK VINA RESULT:      -8.3      0.000      0.000
REMARK  2 active torsions:
REMARK  status: ('A' for Active; 'I' for Inactive)
REMARK    1  A    between atoms: C_3  and  C_4 
REMARK    2  A    between atoms: C_19  and  O_20 
ROOT
HETATM    1  C   UNL     1      -5.476  -0.003 -31.889  1.00  0.00     0.137 C 
HETATM    2  N   UNL     1      -4.128  -0.492 -32.271  1.00  0.00    -0.278 NA
HETATM    3  C   UNL     1      -4.000  -1.841 -32.656  1.00  0.00     0.036 A 
HETATM    4  C   UNL     1      -4.599  -2.359 -33.827  1.00  0.00     0.053 A 
HETATM    5  N   UNL     1      -5.454  -1.597 -34.662  1.00  0.00    -0.356 N 
HETATM    6  C   UNL     1      -6.435  -0.767 -34.164  1.00  0.00     0.041 A 
HETATM    7  C   UNL     1      -6.477  -0.136 -32.980  1.00  0.00     0.056 A 
HETATM    8  C   UNL     1      -7.836   0.420 -32.856  1.00  0.00     0.251 A 
HETATM    9  O   UNL     1      -8.330   0.918 -31.863  1.00  0.00    -0.268 OA
HETATM   10  N   UNL     1      -8.481   0.213 -34.047  1.00  0.00    -0.351 N 
HETATM   11  C   UNL     1      -7.691  -0.540 -34.961  1.00  0.00     0.180 A 
HETATM   12  C   UNL     1      -3.173  -2.680 -31.886  1.00  0.00     0.026 A 
HETATM   13  C   UNL     1      -2.952  -4.010 -32.249  1.00  0.00     0.002 A 
HETATM   14  C   UNL     1      -3.537  -4.518 -33.401  1.00  0.00     0.002 A 
HETATM   15  C   UNL     1      -4.348  -3.697 -34.186  1.00  0.00     0.031 A 
HETATM   16  H   UNL     1      -3.495  -0.295 -31.495  1.00  0.00     0.128 HD
HETATM   17  H   UNL     1      -5.713  -2.084 -35.514  1.00  0.00     0.166 HD
HETATM   18  H   UNL     1      -9.447   0.480 -34.172  1.00  0.00     0.163 HD
ENDROOT
BRANCH   1  19
HETATM   19  C   UNL     1      -5.264   1.457 -31.486  1.00  0.00    -0.002 A 
HETATM   20  C   UNL     1      -4.566   2.326 -32.345  1.00  0.00     0.012 A 
HETATM   21  C   UNL     1      -4.323   3.652 -31.976  1.00  0.00     0.001 A 
HETATM   22  C   UNL     1      -4.766   4.129 -30.743  1.00  0.00     0.003 A 
HETATM   23  C   UNL     1      -5.463   3.285 -29.882  1.00  0.00     0.037 A 
HETATM   24  C   UNL     1      -5.715   1.969 -30.257  1.00  0.00     0.073 A 
BRANCH  24  25
HETATM   25  O   UNL     1      -6.443   1.207 -29.381  1.00  0.00    -0.360 OA
HETATM   26  H   UNL     1      -7.365   1.551 -29.389  1.00  0.00     0.217 HD
ENDBRANCH  24  25
ENDBRANCH   1  19
TORSDOF 2
ENDMDL
MODEL 2
REMARK VINA RESULT:      -8.3      1.707      2.402
REMARK  2 active torsions:
REMARK  status: ('A' for Active; 'I' for Inactive)
REMARK    1  A    between atoms: C_3  and  C_4 
REMARK    2  A    between atoms: C_19  and  O_20 
ROOT
HETATM    1  C   UNL     1      -5.314   0.429 -32.434  1.00  0.00     0.137 C 
HETATM    2  N   UNL     1      -4.941  -0.165 -33.742  1.00  0.00    -0.278 NA
HETATM    3  C   UNL     1      -5.350  -1.486 -34.008  1.00  0.00     0.036 A 
HETATM    4  C   UNL     1      -6.709  -1.848 -34.150  1.00  0.00     0.053 A 
HETATM    5  N   UNL     1      -7.779  -0.940 -33.945  1.00  0.00    -0.356 N 
HETATM    6  C   UNL     1      -7.812  -0.055 -32.890  1.00  0.00     0.041 A 
HETATM    7  C   UNL     1      -6.783   0.484 -32.216  1.00  0.00     0.056 A 
HETATM    8  C   UNL     1      -7.367   1.166 -31.047  1.00  0.00     0.251 A 
HETATM    9  O   UNL     1      -6.763   1.633 -30.101  1.00  0.00    -0.268 OA
HETATM   10  N   UNL     1      -8.730   1.118 -31.174  1.00  0.00    -0.351 N 
HETATM   11  C   UNL     1      -9.136   0.361 -32.309  1.00  0.00     0.180 A 
HETATM   12  C   UNL     1      -4.360  -2.463 -34.223  1.00  0.00     0.026 A 
HETATM   13  C   UNL     1      -4.697  -3.776 -34.554  1.00  0.00     0.002 A 
HETATM   14  C   UNL     1      -6.032  -4.131 -34.698  1.00  0.00     0.002 A 
HETATM   15  C   UNL     1      -7.029  -3.173 -34.504  1.00  0.00     0.031 A 
HETATM   16  H   UNL     1      -3.927  -0.094 -33.837  1.00  0.00     0.128 HD
HETATM   17  H   UNL     1      -8.683  -1.331 -34.189  1.00  0.00     0.166 HD
HETATM   18  H   UNL     1      -9.336   1.492 -30.458  1.00  0.00     0.163 HD
ENDROOT
BRANCH   1  19
HETATM   19  C   UNL     1      -4.688   1.824 -32.444  1.00  0.00    -0.002 A 
HETATM   20  C   UNL     1      -5.305   2.864 -33.162  1.00  0.00     0.012 A 
HETATM   21  C   UNL     1      -4.726   4.134 -33.220  1.00  0.00     0.001 A 
HETATM   22  C   UNL     1      -3.519   4.384 -32.569  1.00  0.00     0.003 A 
HETATM   23  C   UNL     1      -2.894   3.369 -31.850  1.00  0.00     0.037 A 
HETATM   24  C   UNL     1      -3.480   2.108 -31.782  1.00  0.00     0.073 A 
BRANCH  24  25
HETATM   25  O   UNL     1      -2.835   1.168 -31.022  1.00  0.00    -0.360 OA
HETATM   26  H   UNL     1      -1.869   1.300 -31.151  1.00  0.00     0.217 HD
ENDBRANCH  24  25
ENDBRANCH   1  19
TORSDOF 2
ENDMDL
MODEL 3
REMARK VINA RESULT:      -8.0      3.494      5.983
REMARK  2 active torsions:
REMARK  status: ('A' for Active; 'I' for Inactive)
REMARK    1  A    between atoms: C_3  and  C_4 
REMARK    2  A    between atoms: C_19  and  O_20 
ROOT
HETATM    1  C   UNL     1      -9.432   1.467 -33.688  1.00  0.00     0.137 C 
HETATM    2  N   UNL     1      -9.037   0.039 -33.608  1.00  0.00    -0.278 NA
HETATM    3  C   UNL     1      -7.684  -0.259 -33.354  1.00  0.00     0.036 A 
HETATM    4  C   UNL     1      -7.051   0.059 -32.131  1.00  0.00     0.053 A 
HETATM    5  N   UNL     1      -7.689   0.785 -31.094  1.00  0.00    -0.356 N 
HETATM    6  C   UNL     1      -8.461   1.901 -31.332  1.00  0.00     0.041 A 
HETATM    7  C   UNL     1      -9.153   2.221 -32.437  1.00  0.00     0.056 A 
HETATM    8  C   UNL     1      -9.598   3.614 -32.257  1.00  0.00     0.251 A 
HETATM    9  O   UNL     1     -10.108   4.329 -33.098  1.00  0.00    -0.268 OA
HETATM   10  N   UNL     1      -9.269   3.996 -30.984  1.00  0.00    -0.351 N 
HETATM   11  C   UNL     1      -8.535   2.989 -30.295  1.00  0.00     0.180 A 
HETATM   12  C   UNL     1      -6.962  -0.975 -34.327  1.00  0.00     0.026 A 
HETATM   13  C   UNL     1      -5.638  -1.358 -34.111  1.00  0.00     0.002 A 
HETATM   14  C   UNL     1      -5.018  -1.050 -32.907  1.00  0.00     0.002 A 
HETATM   15  C   UNL     1      -5.721  -0.353 -31.924  1.00  0.00     0.031 A 
HETATM   16  H   UNL     1      -9.331  -0.413 -34.475  1.00  0.00     0.128 HD
HETATM   17  H   UNL     1      -7.134   0.836 -30.245  1.00  0.00     0.166 HD
HETATM   18  H   UNL     1      -9.447   4.935 -30.656  1.00  0.00     0.163 HD
ENDROOT
BRANCH   1  19
HETATM   19  C   UNL     1     -10.925   1.444 -34.017  1.00  0.00    -0.002 A 
HETATM   20  C   UNL     1     -11.769   0.520 -33.375  1.00  0.00     0.012 A 
HETATM   21  C   UNL     1     -13.128   0.452 -33.694  1.00  0.00     0.001 A 
HETATM   22  C   UNL     1     -13.663   1.299 -34.662  1.00  0.00     0.003 A 
HETATM   23  C   UNL     1     -12.845   2.224 -35.306  1.00  0.00     0.037 A 
HETATM   24  C   UNL     1     -11.494   2.299 -34.977  1.00  0.00     0.073 A 
BRANCH  24  25
HETATM   25  O   UNL     1     -10.756   3.260 -35.617  1.00  0.00    -0.360 OA
HETATM   26  H   UNL     1      -9.917   3.367 -35.116  1.00  0.00     0.217 HD
ENDBRANCH  24  25
ENDBRANCH   1  19
TORSDOF 2
ENDMDL
MODEL 4
REMARK VINA RESULT:      -7.8      1.558      2.138
REMARK  2 active torsions:
REMARK  status: ('A' for Active; 'I' for Inactive)
REMARK    1  A    between atoms: C_3  and  C_4 
REMARK    2  A    between atoms: C_19  and  O_20 
ROOT
HETATM    1  C   UNL     1      -6.626   1.126 -32.053  1.00  0.00     0.137 C 
HETATM    2  N   UNL     1      -5.568   0.731 -33.016  1.00  0.00    -0.278 NA
HETATM    3  C   UNL     1      -5.656  -0.545 -33.607  1.00  0.00     0.036 A 
HETATM    4  C   UNL     1      -6.697  -0.904 -34.493  1.00  0.00     0.053 A 
HETATM    5  N   UNL     1      -7.791  -0.052 -34.790  1.00  0.00    -0.356 N 
HETATM    6  C   UNL     1      -8.454   0.673 -33.823  1.00  0.00     0.041 A 
HETATM    7  C   UNL     1      -7.988   1.125 -32.648  1.00  0.00     0.056 A 
HETATM    8  C   UNL     1      -9.158   1.623 -31.904  1.00  0.00     0.251 A 
HETATM    9  O   UNL     1      -9.188   1.960 -30.736  1.00  0.00    -0.268 OA
HETATM   10  N   UNL     1     -10.239   1.573 -32.744  1.00  0.00    -0.351 N 
HETATM   11  C   UNL     1      -9.917   0.980 -33.998  1.00  0.00     0.180 A 
HETATM   12  C   UNL     1      -4.619  -1.465 -33.369  1.00  0.00     0.026 A 
HETATM   13  C   UNL     1      -4.611  -2.722 -33.974  1.00  0.00     0.002 A 
HETATM   14  C   UNL     1      -5.632  -3.074 -34.848  1.00  0.00     0.002 A 
HETATM   15  C   UNL     1      -6.663  -2.169 -35.109  1.00  0.00     0.031 A 
HETATM   16  H   UNL     1      -4.668   0.830 -32.546  1.00  0.00     0.128 HD
HETATM   17  H   UNL     1      -8.391  -0.417 -35.522  1.00  0.00     0.166 HD
HETATM   18  H   UNL     1     -11.162   1.831 -32.426  1.00  0.00     0.163 HD
ENDROOT
BRANCH   1  19
HETATM   19  C   UNL     1      -6.216   2.517 -31.569  1.00  0.00    -0.002 A 
HETATM   20  C   UNL     1      -5.860   3.506 -32.503  1.00  0.00     0.012 A 
HETATM   21  C   UNL     1      -5.440   4.770 -32.080  1.00  0.00     0.001 A 
HETATM   22  C   UNL     1      -5.363   5.064 -30.720  1.00  0.00     0.003 A 
HETATM   23  C   UNL     1      -5.715   4.099 -29.779  1.00  0.00     0.037 A 
HETATM   24  C   UNL     1      -6.146   2.845 -30.203  1.00  0.00     0.073 A 
BRANCH  24  25
HETATM   25  O   UNL     1      -6.519   1.958 -29.227  1.00  0.00    -0.360 OA
HETATM   26  H   UNL     1      -7.357   2.291 -28.835  1.00  0.00     0.217 HD
ENDBRANCH  24  25
ENDBRANCH   1  19
TORSDOF 2
ENDMDL
MODEL 5
REMARK VINA RESULT:      -7.8      2.277      3.759
REMARK  2 active torsions:
REMARK  status: ('A' for Active; 'I' for Inactive)
REMARK    1  A    between atoms: C_3  and  C_4 
REMARK    2  A    between atoms: C_19  and  O_20 
ROOT
HETATM    1  C   UNL     1      -7.068   1.182 -33.445  1.00  0.00     0.137 C 
HETATM    2  N   UNL     1      -7.293  -0.227 -33.036  1.00  0.00    -0.278 NA
HETATM    3  C   UNL     1      -6.411  -1.207 -33.532  1.00  0.00     0.036 A 
HETATM    4  C   UNL     1      -5.043  -1.248 -33.182  1.00  0.00     0.053 A 
HETATM    5  N   UNL     1      -4.417  -0.258 -32.382  1.00  0.00    -0.356 N 
HETATM    6  C   UNL     1      -4.644   1.090 -32.553  1.00  0.00     0.041 A 
HETATM    7  C   UNL     1      -5.733   1.700 -33.048  1.00  0.00     0.056 A 
HETATM    8  C   UNL     1      -5.366   3.115 -33.232  1.00  0.00     0.251 A 
HETATM    9  O   UNL     1      -6.013   3.965 -33.812  1.00  0.00    -0.268 OA
HETATM   10  N   UNL     1      -4.118   3.296 -32.695  1.00  0.00    -0.351 N 
HETATM   11  C   UNL     1      -3.552   2.074 -32.233  1.00  0.00     0.180 A 
HETATM   12  C   UNL     1      -6.938  -2.232 -34.339  1.00  0.00     0.026 A 
HETATM   13  C   UNL     1      -6.132  -3.270 -34.811  1.00  0.00     0.002 A 
HETATM   14  C   UNL     1      -4.788  -3.312 -34.463  1.00  0.00     0.002 A 
HETATM   15  C   UNL     1      -4.250  -2.313 -33.651  1.00  0.00     0.031 A 
HETATM   16  H   UNL     1      -8.252  -0.472 -33.281  1.00  0.00     0.128 HD
HETATM   17  H   UNL     1      -3.460  -0.492 -32.138  1.00  0.00     0.166 HD
HETATM   18  H   UNL     1      -3.650   4.189 -32.748  1.00  0.00     0.163 HD
ENDROOT
BRANCH   1  19
HETATM   19  C   UNL     1      -8.203   1.968 -32.787  1.00  0.00    -0.002 A 
HETATM   20  C   UNL     1      -9.080   2.728 -33.581  1.00  0.00     0.012 A 
HETATM   21  C   UNL     1     -10.096   3.489 -32.996  1.00  0.00     0.001 A 
HETATM   22  C   UNL     1     -10.248   3.507 -31.611  1.00  0.00     0.003 A 
HETATM   23  C   UNL     1      -9.392   2.757 -30.808  1.00  0.00     0.037 A 
HETATM   24  C   UNL     1      -8.389   1.990 -31.394  1.00  0.00     0.073 A 
BRANCH  24  25
HETATM   25  O   UNL     1      -7.612   1.242 -30.549  1.00  0.00    -0.360 OA
HETATM   26  H   UNL     1      -6.675   1.491 -30.716  1.00  0.00     0.217 HD
ENDBRANCH  24  25
ENDBRANCH   1  19
TORSDOF 2
ENDMDL
MODEL 6
REMARK VINA RESULT:      -7.7      2.189      5.863
REMARK  2 active torsions:
REMARK  status: ('A' for Active; 'I' for Inactive)
REMARK    1  A    between atoms: C_3  and  C_4 
REMARK    2  A    between atoms: C_19  and  O_20 
ROOT
HETATM    1  C   UNL     1      -4.478   1.338 -32.701  1.00  0.00     0.137 C 
HETATM    2  N   UNL     1      -3.161   1.986 -32.475  1.00  0.00    -0.278 NA
HETATM    3  C   UNL     1      -3.124   3.392 -32.390  1.00  0.00     0.036 A 
HETATM    4  C   UNL     1      -3.738   4.107 -31.338  1.00  0.00     0.053 A 
HETATM    5  N   UNL     1      -4.522   3.487 -30.332  1.00  0.00    -0.356 N 
HETATM    6  C   UNL     1      -5.449   2.506 -30.611  1.00  0.00     0.041 A 
HETATM    7  C   UNL     1      -5.466   1.635 -31.632  1.00  0.00     0.056 A 
HETATM    8  C   UNL     1      -6.784   0.976 -31.591  1.00  0.00     0.251 A 
HETATM    9  O   UNL     1      -7.258   0.246 -32.439  1.00  0.00    -0.268 OA
HETATM   10  N   UNL     1      -7.422   1.391 -30.452  1.00  0.00    -0.351 N 
HETATM   11  C   UNL     1      -6.672   2.372 -29.744  1.00  0.00     0.180 A 
HETATM   12  C   UNL     1      -2.373   4.099 -33.346  1.00  0.00     0.026 A 
HETATM   13  C   UNL     1      -2.241   5.487 -33.282  1.00  0.00     0.002 A 
HETATM   14  C   UNL     1      -2.841   6.190 -32.246  1.00  0.00     0.002 A 
HETATM   15  C   UNL     1      -3.577   5.505 -31.278  1.00  0.00     0.031 A 
HETATM   16  H   UNL     1      -2.530   1.670 -33.211  1.00  0.00     0.128 HD
HETATM   17  H   UNL     1      -4.801   4.127 -29.595  1.00  0.00     0.166 HD
HETATM   18  H   UNL     1      -8.364   1.092 -30.242  1.00  0.00     0.163 HD
ENDROOT
BRANCH   1  19
HETATM   19  C   UNL     1      -4.168  -0.157 -32.791  1.00  0.00    -0.002 A 
HETATM   20  C   UNL     1      -4.691  -0.917 -33.853  1.00  0.00     0.012 A 
HETATM   21  C   UNL     1      -4.458  -2.293 -33.929  1.00  0.00     0.001 A 
HETATM   22  C   UNL     1      -3.704  -2.931 -32.946  1.00  0.00     0.003 A 
HETATM   23  C   UNL     1      -3.174  -2.195 -31.889  1.00  0.00     0.037 A 
HETATM   24  C   UNL     1      -3.397  -0.823 -31.822  1.00  0.00     0.073 A 
BRANCH  24  25
HETATM   25  O   UNL     1      -2.810  -0.153 -30.781  1.00  0.00    -0.360 OA
HETATM   26  H   UNL     1      -1.836  -0.218 -30.902  1.00  0.00     0.217 HD
ENDBRANCH  24  25
ENDBRANCH   1  19
TORSDOF 2
ENDMDL
MODEL 7
REMARK VINA RESULT:      -7.7      3.550      6.559
REMARK  2 active torsions:
REMARK  status: ('A' for Active; 'I' for Inactive)
REMARK    1  A    between atoms: C_3  and  C_4 
REMARK    2  A    between atoms: C_19  and  O_20 
ROOT
HETATM    1  C   UNL     1      -9.107   1.284 -32.871  1.00  0.00     0.137 C 
HETATM    2  N   UNL     1      -9.980   0.488 -33.770  1.00  0.00    -0.278 NA
HETATM    3  C   UNL     1     -11.320   0.896 -33.921  1.00  0.00     0.036 A 
HETATM    4  C   UNL     1     -11.680   2.117 -34.534  1.00  0.00     0.053 A 
HETATM    5  N   UNL     1     -10.731   3.079 -34.964  1.00  0.00    -0.356 N 
HETATM    6  C   UNL     1      -9.636   3.433 -34.206  1.00  0.00     0.041 A 
HETATM    7  C   UNL     1      -8.980   2.706 -33.288  1.00  0.00     0.056 A 
HETATM    8  C   UNL     1      -8.050   3.629 -32.615  1.00  0.00     0.251 A 
HETATM    9  O   UNL     1      -7.397   3.403 -31.614  1.00  0.00    -0.268 OA
HETATM   10  N   UNL     1      -8.100   4.827 -33.278  1.00  0.00    -0.351 N 
HETATM   11  C   UNL     1      -9.080   4.828 -34.310  1.00  0.00     0.180 A 
HETATM   12  C   UNL     1     -12.337   0.010 -33.520  1.00  0.00     0.026 A 
HETATM   13  C   UNL     1     -13.685   0.325 -33.700  1.00  0.00     0.002 A 
HETATM   14  C   UNL     1     -14.039   1.523 -34.306  1.00  0.00     0.002 A 
HETATM   15  C   UNL     1     -13.044   2.408 -34.725  1.00  0.00     0.031 A 
HETATM   16  H   UNL     1      -9.949  -0.481 -33.454  1.00  0.00     0.128 HD
HETATM   17  H   UNL     1     -11.150   3.848 -35.476  1.00  0.00     0.166 HD
HETATM   18  H   UNL     1      -7.568   5.624 -32.959  1.00  0.00     0.163 HD
ENDROOT
BRANCH   1  19
HETATM   19  C   UNL     1      -7.760   0.562 -32.892  1.00  0.00    -0.002 A 
HETATM   20  C   UNL     1      -7.176   0.205 -34.121  1.00  0.00     0.012 A 
HETATM   21  C   UNL     1      -5.967  -0.495 -34.160  1.00  0.00     0.001 A 
HETATM   22  C   UNL     1      -5.326  -0.854 -32.976  1.00  0.00     0.003 A 
HETATM   23  C   UNL     1      -5.886  -0.505 -31.749  1.00  0.00     0.037 A 
HETATM   24  C   UNL     1      -7.084   0.203 -31.712  1.00  0.00     0.073 A 
BRANCH  24  25
HETATM   25  O   UNL     1      -7.556   0.552 -30.474  1.00  0.00    -0.360 OA
HETATM   26  H   UNL     1      -7.501  -0.248 -29.904  1.00  0.00     0.217 HD
ENDBRANCH  24  25
ENDBRANCH   1  19
TORSDOF 2
ENDMDL
MODEL 8
REMARK VINA RESULT:      -7.6      5.201      7.356
REMARK  2 active torsions:
REMARK  status: ('A' for Active; 'I' for Inactive)
REMARK    1  A    between atoms: C_3  and  C_4 
REMARK    2  A    between atoms: C_19  and  O_20 
ROOT
HETATM    1  C   UNL     1      -3.041   6.232 -31.056  1.00  0.00     0.137 C 
HETATM    2  N   UNL     1      -3.560   4.996 -30.419  1.00  0.00    -0.278 NA
HETATM    3  C   UNL     1      -4.757   4.448 -30.920  1.00  0.00     0.036 A 
HETATM    4  C   UNL     1      -4.861   3.907 -32.221  1.00  0.00     0.053 A 
HETATM    5  N   UNL     1      -3.806   3.953 -33.167  1.00  0.00    -0.356 N 
HETATM    6  C   UNL     1      -3.036   5.078 -33.369  1.00  0.00     0.041 A 
HETATM    7  C   UNL     1      -2.753   6.066 -32.505  1.00  0.00     0.056 A 
HETATM    8  C   UNL     1      -2.099   7.127 -33.290  1.00  0.00     0.251 A 
HETATM    9  O   UNL     1      -1.839   8.254 -32.916  1.00  0.00    -0.268 OA
HETATM   10  N   UNL     1      -1.896   6.644 -34.556  1.00  0.00    -0.351 N 
HETATM   11  C   UNL     1      -2.455   5.347 -34.731  1.00  0.00     0.180 A 
HETATM   12  C   UNL     1      -5.865   4.361 -30.057  1.00  0.00     0.026 A 
HETATM   13  C   UNL     1      -7.060   3.771 -30.469  1.00  0.00     0.002 A 
HETATM   14  C   UNL     1      -7.162   3.236 -31.746  1.00  0.00     0.002 A 
HETATM   15  C   UNL     1      -6.069   3.298 -32.612  1.00  0.00     0.031 A 
HETATM   16  H   UNL     1      -3.658   5.179 -29.420  1.00  0.00     0.128 HD
HETATM   17  H   UNL     1      -4.007   3.429 -34.012  1.00  0.00     0.166 HD
HETATM   18  H   UNL     1      -1.494   7.223 -35.279  1.00  0.00     0.163 HD
ENDROOT
BRANCH   1  19
HETATM   19  C   UNL     1      -1.783   6.584 -30.262  1.00  0.00    -0.002 A 
HETATM   20  C   UNL     1      -1.658   7.856 -29.676  1.00  0.00     0.012 A 
HETATM   21  C   UNL     1      -0.497   8.213 -28.985  1.00  0.00     0.001 A 
HETATM   22  C   UNL     1       0.558   7.309 -28.872  1.00  0.00     0.003 A 
HETATM   23  C   UNL     1       0.451   6.043 -29.442  1.00  0.00     0.037 A 
HETATM   24  C   UNL     1      -0.711   5.685 -30.119  1.00  0.00     0.073 A 
BRANCH  24  25
HETATM   25  O   UNL     1      -0.766   4.410 -30.617  1.00  0.00    -0.360 OA
HETATM   26  H   UNL     1      -0.523   3.799 -29.885  1.00  0.00     0.217 HD
ENDBRANCH  24  25
ENDBRANCH   1  19
TORSDOF 2
ENDMDL
MODEL 9
REMARK VINA RESULT:      -7.5      4.702      7.144
REMARK  2 active torsions:
REMARK  status: ('A' for Active; 'I' for Inactive)
REMARK    1  A    between atoms: C_3  and  C_4 
REMARK    2  A    between atoms: C_19  and  O_20 
ROOT
HETATM    1  C   UNL     1     -11.208   1.651 -34.229  1.00  0.00     0.137 C 
HETATM    2  N   UNL     1     -10.463   1.045 -33.097  1.00  0.00    -0.278 NA
HETATM    3  C   UNL     1      -9.067   0.907 -33.225  1.00  0.00     0.036 A 
HETATM    4  C   UNL     1      -8.195   2.017 -33.299  1.00  0.00     0.053 A 
HETATM    5  N   UNL     1      -8.651   3.358 -33.347  1.00  0.00    -0.356 N 
HETATM    6  C   UNL     1      -9.713   3.756 -34.131  1.00  0.00     0.041 A 
HETATM    7  C   UNL     1     -10.763   3.032 -34.550  1.00  0.00     0.056 A 
HETATM    8  C   UNL     1     -11.467   3.862 -35.543  1.00  0.00     0.251 A 
HETATM    9  O   UNL     1     -12.369   3.508 -36.277  1.00  0.00    -0.268 OA
HETATM   10  N   UNL     1     -10.876   5.097 -35.549  1.00  0.00    -0.351 N 
HETATM   11  C   UNL     1      -9.741   5.153 -34.692  1.00  0.00     0.180 A 
HETATM   12  C   UNL     1      -8.518  -0.388 -33.191  1.00  0.00     0.026 A 
HETATM   13  C   UNL     1      -7.138  -0.592 -33.248  1.00  0.00     0.002 A 
HETATM   14  C   UNL     1      -6.281   0.499 -33.316  1.00  0.00     0.002 A 
HETATM   15  C   UNL     1      -6.806   1.792 -33.335  1.00  0.00     0.031 A 
HETATM   16  H   UNL     1     -10.882   0.136 -32.902  1.00  0.00     0.128 HD
HETATM   17  H   UNL     1      -7.897   4.036 -33.292  1.00  0.00     0.166 HD
HETATM   18  H   UNL     1     -11.176   5.818 -36.190  1.00  0.00     0.163 HD
ENDROOT
BRANCH   1  19
HETATM   19  C   UNL     1     -12.675   1.611 -33.799  1.00  0.00    -0.002 A 
HETATM   20  C   UNL     1     -13.591   0.813 -34.509  1.00  0.00     0.012 A 
HETATM   21  C   UNL     1     -14.944   0.797 -34.160  1.00  0.00     0.001 A 
HETATM   22  C   UNL     1     -15.405   1.580 -33.103  1.00  0.00     0.003 A 
HETATM   23  C   UNL     1     -14.512   2.373 -32.385  1.00  0.00     0.037 A 
HETATM   24  C   UNL     1     -13.163   2.377 -32.726  1.00  0.00     0.073 A 
BRANCH  24  25
HETATM   25  O   UNL     1     -12.334   3.145 -31.952  1.00  0.00    -0.360 OA
HETATM   26  H   UNL     1     -12.904   3.689 -31.362  1.00  0.00     0.217 HD
ENDBRANCH  24  25
ENDBRANCH   1  19
TORSDOF 2
ENDMDL
MODEL 10
REMARK VINA RESULT:      -7.4      7.025      9.860
REMARK  2 active torsions:
REMARK  status: ('A' for Active; 'I' for Inactive)
REMARK    1  A    between atoms: C_3  and  C_4 
REMARK    2  A    between atoms: C_19  and  O_20 
ROOT
HETATM    1  C   UNL     1      -1.712   7.370 -30.445  1.00  0.00     0.137 C 
HETATM    2  N   UNL     1      -0.553   6.794 -29.717  1.00  0.00    -0.278 NA
HETATM    3  C   UNL     1      -0.161   7.408 -28.511  1.00  0.00     0.036 A 
HETATM    4  C   UNL     1      -0.977   7.411 -27.357  1.00  0.00     0.053 A 
HETATM    5  N   UNL     1      -2.293   6.884 -27.337  1.00  0.00    -0.356 N 
HETATM    6  C   UNL     1      -3.201   7.111 -28.349  1.00  0.00     0.041 A 
HETATM    7  C   UNL     1      -2.965   7.368 -29.645  1.00  0.00     0.056 A 
HETATM    8  C   UNL     1      -4.258   7.762 -30.231  1.00  0.00     0.251 A 
HETATM    9  O   UNL     1      -4.442   8.233 -31.337  1.00  0.00    -0.268 OA
HETATM   10  N   UNL     1      -5.223   7.573 -29.277  1.00  0.00    -0.351 N 
HETATM   11  C   UNL     1      -4.671   7.163 -28.031  1.00  0.00     0.180 A 
HETATM   12  C   UNL     1       1.129   7.964 -28.433  1.00  0.00     0.026 A 
HETATM   13  C   UNL     1       1.604   8.530 -27.249  1.00  0.00     0.002 A 
HETATM   14  C   UNL     1       0.804   8.529 -26.114  1.00  0.00     0.002 A 
HETATM   15  C   UNL     1      -0.473   7.968 -26.166  1.00  0.00     0.031 A 
HETATM   16  H   UNL     1       0.237   6.768 -30.362  1.00  0.00     0.128 HD
HETATM   17  H   UNL     1      -2.701   6.869 -26.408  1.00  0.00     0.166 HD
HETATM   18  H   UNL     1      -6.186   7.820 -29.452  1.00  0.00     0.163 HD
ENDROOT
BRANCH   1  19
HETATM   19  C   UNL     1      -1.842   6.519 -31.709  1.00  0.00    -0.002 A 
HETATM   20  C   UNL     1      -1.962   5.122 -31.604  1.00  0.00     0.012 A 
HETATM   21  C   UNL     1      -2.036   4.323 -32.748  1.00  0.00     0.001 A 
HETATM   22  C   UNL     1      -1.987   4.905 -34.013  1.00  0.00     0.003 A 
HETATM   23  C   UNL     1      -1.873   6.287 -34.138  1.00  0.00     0.037 A 
HETATM   24  C   UNL     1      -1.812   7.082 -32.997  1.00  0.00     0.073 A 
BRANCH  24  25
HETATM   25  O   UNL     1      -1.745   8.437 -33.193  1.00  0.00    -0.360 OA
HETATM   26  H   UNL     1      -2.130   8.624 -34.078  1.00  0.00     0.217 HD
ENDBRANCH  24  25
ENDBRANCH   1  19
TORSDOF 2
ENDMDL
