MODEL 1
REMARK VINA RESULT:      -9.5      0.000      0.000
REMARK  8 active torsions:
REMARK  status: ('A' for Active; 'I' for Inactive)
REMARK    1  A    between atoms: C_3  and  N_4 
REMARK       I    between atoms: N_4  and  C_5 
REMARK    2  A    between atoms: C_5  and  C_6 
REMARK    3  A    between atoms: C_13  and  C_14 
REMARK       I    between atoms: C_14  and  N_15 
REMARK    4  A    between atoms: N_15  and  CA_16 
REMARK    5  A    between atoms: CA_16  and  C_17 
REMARK    6  A    between atoms: CA_16  and  C_27 
REMARK    7  A    between atoms: C_20  and  C_21 
REMARK    8  A    between atoms: C_27  and  O_28 
ROOT
HETATM    1  C   UNL     1      -5.366   3.514 -31.861  1.00  0.00     0.252 C 
HETATM    2  N   UNL     1      -5.110   2.176 -32.064  1.00  0.00    -0.346 N 
HETATM    3  O   UNL     1      -6.386   3.921 -31.314  1.00  0.00    -0.268 OA
HETATM    4  H   UNL     1      -4.371   1.909 -32.701  1.00  0.00     0.163 HD
ENDROOT
BRANCH   1   5
HETATM    5  C   UNL     1      -4.337   4.478 -32.323  1.00  0.00     0.034 A 
HETATM    6  C   UNL     1      -3.407   4.960 -31.392  1.00  0.00     0.047 A 
HETATM    7  C   UNL     1      -2.375   5.836 -31.771  1.00  0.00     0.042 A 
HETATM    8  C   UNL     1      -2.220   6.146 -33.134  1.00  0.00    -0.035 A 
HETATM    9  C   UNL     1      -1.048   6.889 -33.717  1.00  0.00     0.050 C 
HETATM   10  C   UNL     1      -3.180   5.676 -34.058  1.00  0.00     0.010 A 
HETATM   11  C   UNL     1      -4.233   4.852 -33.660  1.00  0.00     0.017 A 
BRANCH   7  12
HETATM   12  N   UNL     1      -1.555   6.280 -30.713  1.00  0.00    -0.321 N 
HETATM   13  C   UNL     1      -0.457   5.661 -30.142  1.00  0.00     0.279 C 
HETATM   14  O   UNL     1       0.040   4.604 -30.511  1.00  0.00    -0.265 OA
HETATM   15  H   UNL     1      -1.650   7.253 -30.440  1.00  0.00     0.169 HD
BRANCH  13  16
HETATM   16  C   UNL     1       0.122   6.439 -29.059  1.00  0.00     0.142 A 
HETATM   17  O   UNL     1       0.102   5.939 -27.781  1.00  0.00    -0.317 OA
HETATM   18  C   UNL     1       0.697   6.863 -26.982  1.00  0.00     0.143 A 
HETATM   19  C   UNL     1       1.101   7.951 -27.718  1.00  0.00     0.027 A 
HETATM   20  C   UNL     1       0.730   7.680 -29.056  1.00  0.00     0.045 A 
ENDBRANCH  13  16
ENDBRANCH   7  12
ENDBRANCH   1   5
BRANCH   2  21
HETATM   21  CA  UNL     1      -6.061   1.144 -31.646  1.00  0.00     0.141 C 
BRANCH  21  22
HETATM   22  C   UNL     1      -5.971  -0.062 -32.567  1.00  0.00    -0.033 A 
HETATM   23  C   UNL     1      -4.757  -0.732 -32.786  1.00  0.00     0.010 A 
HETATM   24  C   UNL     1      -4.708  -1.868 -33.599  1.00  0.00     0.017 A 
HETATM   25  C   UNL     1      -5.870  -2.358 -34.213  1.00  0.00     0.047 A 
HETATM   26  C   UNL     1      -7.081  -1.687 -33.997  1.00  0.00     0.017 A 
HETATM   27  C   UNL     1      -7.130  -0.550 -33.187  1.00  0.00     0.010 A 
BRANCH  25  28
HETATM   28  C   UNL     1      -5.838  -3.610 -35.057  1.00  0.00     0.417 C 
HETATM   29  F   UNL     1      -7.073  -4.131 -35.299  1.00  0.00    -0.166 F 
HETATM   30  F   UNL     1      -5.277  -3.397 -36.278  1.00  0.00    -0.166 F 
HETATM   31  F   UNL     1      -5.117  -4.614 -34.483  1.00  0.00    -0.166 F 
ENDBRANCH  25  28
ENDBRANCH  21  22
BRANCH  21  32
HETATM   32  C   UNL     1      -5.856   0.725 -30.167  1.00  0.00     0.194 C 
BRANCH  32  33
HETATM   33  O   UNL     1      -6.558   1.574 -29.256  1.00  0.00    -0.399 OA
HETATM   34  H   UNL     1      -7.423   1.149 -29.066  1.00  0.00     0.209 HD
ENDBRANCH  32  33
ENDBRANCH  21  32
ENDBRANCH   2  21
TORSDOF 8
ENDMDL
MODEL 2
REMARK VINA RESULT:      -8.9      2.256      3.465
REMARK  8 active torsions:
REMARK  status: ('A' for Active; 'I' for Inactive)
REMARK    1  A    between atoms: C_3  and  N_4 
REMARK       I    between atoms: N_4  and  C_5 
REMARK    2  A    between atoms: C_5  and  C_6 
REMARK    3  A    between atoms: C_13  and  C_14 
REMARK       I    between atoms: C_14  and  N_15 
REMARK    4  A    between atoms: N_15  and  CA_16 
REMARK    5  A    between atoms: CA_16  and  C_17 
REMARK    6  A    between atoms: CA_16  and  C_27 
REMARK    7  A    between atoms: C_20  and  C_21 
REMARK    8  A    between atoms: C_27  and  O_28 
ROOT
HETATM    1  C   UNL     1      -6.930   2.623 -32.984  1.00  0.00     0.252 C 
HETATM    2  N   UNL     1      -6.691   1.266 -32.977  1.00  0.00    -0.346 N 
HETATM    3  O   UNL     1      -7.465   3.199 -33.925  1.00  0.00    -0.268 OA
HETATM    4  H   UNL     1      -6.063   0.882 -32.283  1.00  0.00     0.163 HD
ENDROOT
BRANCH   1   5
HETATM    5  C   UNL     1      -6.519   3.389 -31.783  1.00  0.00     0.034 A 
HETATM    6  C   UNL     1      -5.204   3.872 -31.715  1.00  0.00     0.047 A 
HETATM    7  C   UNL     1      -4.762   4.649 -30.630  1.00  0.00     0.042 A 
HETATM    8  C   UNL     1      -5.695   5.031 -29.649  1.00  0.00    -0.035 A 
HETATM    9  C   UNL     1      -5.428   6.027 -28.553  1.00  0.00     0.050 C 
HETATM   10  C   UNL     1      -7.009   4.516 -29.715  1.00  0.00     0.010 A 
HETATM   11  C   UNL     1      -7.421   3.699 -30.768  1.00  0.00     0.017 A 
BRANCH   7  12
HETATM   12  N   UNL     1      -3.400   5.010 -30.675  1.00  0.00    -0.321 N 
HETATM   13  C   UNL     1      -2.739   5.806 -31.595  1.00  0.00     0.279 C 
HETATM   14  O   UNL     1      -3.259   6.398 -32.532  1.00  0.00    -0.265 OA
HETATM   15  H   UNL     1      -2.851   4.826 -29.841  1.00  0.00     0.169 HD
BRANCH  13  16
HETATM   16  C   UNL     1      -1.321   5.937 -31.302  1.00  0.00     0.142 A 
HETATM   17  O   UNL     1      -0.606   4.832 -30.913  1.00  0.00    -0.317 OA
HETATM   18  C   UNL     1       0.673   5.239 -30.703  1.00  0.00     0.143 A 
HETATM   19  C   UNL     1       0.800   6.585 -30.947  1.00  0.00     0.027 A 
HETATM   20  C   UNL     1      -0.485   7.038 -31.331  1.00  0.00     0.045 A 
ENDBRANCH  13  16
ENDBRANCH   7  12
ENDBRANCH   1   5
BRANCH   2  21
HETATM   21  CA  UNL     1      -7.058   0.419 -34.114  1.00  0.00     0.141 C 
BRANCH  21  22
HETATM   22  C   UNL     1      -6.239  -0.861 -34.105  1.00  0.00    -0.033 A 
HETATM   23  C   UNL     1      -4.986  -0.929 -33.475  1.00  0.00     0.010 A 
HETATM   24  C   UNL     1      -4.273  -2.131 -33.438  1.00  0.00     0.017 A 
HETATM   25  C   UNL     1      -4.793  -3.289 -34.032  1.00  0.00     0.047 A 
HETATM   26  C   UNL     1      -6.042  -3.220 -34.665  1.00  0.00     0.017 A 
HETATM   27  C   UNL     1      -6.755  -2.019 -34.704  1.00  0.00     0.010 A 
BRANCH  25  28
HETATM   28  C   UNL     1      -4.053  -4.603 -33.961  1.00  0.00     0.417 C 
HETATM   29  F   UNL     1      -3.685  -4.949 -32.696  1.00  0.00    -0.166 F 
HETATM   30  F   UNL     1      -4.794  -5.642 -34.433  1.00  0.00    -0.166 F 
HETATM   31  F   UNL     1      -2.903  -4.600 -34.694  1.00  0.00    -0.166 F 
ENDBRANCH  25  28
ENDBRANCH  21  22
BRANCH  21  32
HETATM   32  C   UNL     1      -8.576   0.103 -34.141  1.00  0.00     0.194 C 
BRANCH  32  33
HETATM   33  O   UNL     1      -9.314   1.031 -34.939  1.00  0.00    -0.399 OA
HETATM   34  H   UNL     1      -8.748   1.275 -35.705  1.00  0.00     0.209 HD
ENDBRANCH  32  33
ENDBRANCH  21  32
ENDBRANCH   2  21
TORSDOF 8
ENDMDL
MODEL 3
REMARK VINA RESULT:      -8.8      4.251      8.395
REMARK  8 active torsions:
REMARK  status: ('A' for Active; 'I' for Inactive)
REMARK    1  A    between atoms: C_3  and  N_4 
REMARK       I    between atoms: N_4  and  C_5 
REMARK    2  A    between atoms: C_5  and  C_6 
REMARK    3  A    between atoms: C_13  and  C_14 
REMARK       I    between atoms: C_14  and  N_15 
REMARK    4  A    between atoms: N_15  and  CA_16 
REMARK    5  A    between atoms: CA_16  and  C_17 
REMARK    6  A    between atoms: CA_16  and  C_27 
REMARK    7  A    between atoms: C_20  and  C_21 
REMARK    8  A    between atoms: C_27  and  O_28 
ROOT
HETATM    1  C   UNL     1      -6.628   2.093 -30.748  1.00  0.00     0.252 C 
HETATM    2  N   UNL     1      -5.984   1.716 -31.906  1.00  0.00    -0.346 N 
HETATM    3  O   UNL     1      -6.288   1.697 -29.639  1.00  0.00    -0.268 OA
HETATM    4  H   UNL     1      -6.430   1.896 -32.796  1.00  0.00     0.163 HD
ENDROOT
BRANCH   1   5
HETATM    5  C   UNL     1      -7.770   3.030 -30.883  1.00  0.00     0.034 A 
HETATM    6  C   UNL     1      -8.981   2.538 -31.388  1.00  0.00     0.047 A 
HETATM    7  C   UNL     1     -10.119   3.357 -31.494  1.00  0.00     0.042 A 
HETATM    8  C   UNL     1     -10.059   4.666 -30.983  1.00  0.00    -0.035 A 
HETATM    9  C   UNL     1     -11.243   5.582 -30.831  1.00  0.00     0.050 C 
HETATM   10  C   UNL     1      -8.825   5.157 -30.502  1.00  0.00     0.010 A 
HETATM   11  C   UNL     1      -7.688   4.352 -30.453  1.00  0.00     0.017 A 
BRANCH   7  12
HETATM   12  N   UNL     1     -11.245   2.737 -32.075  1.00  0.00    -0.321 N 
HETATM   13  C   UNL     1     -11.550   2.559 -33.414  1.00  0.00     0.279 C 
HETATM   14  O   UNL     1     -10.837   2.878 -34.357  1.00  0.00    -0.265 OA
HETATM   15  H   UNL     1     -11.830   2.183 -31.457  1.00  0.00     0.169 HD
BRANCH  13  16
HETATM   16  C   UNL     1     -12.816   1.874 -33.611  1.00  0.00     0.142 A 
HETATM   17  O   UNL     1     -13.878   2.166 -32.793  1.00  0.00    -0.317 OA
HETATM   18  C   UNL     1     -14.917   1.387 -33.194  1.00  0.00     0.143 A 
HETATM   19  C   UNL     1     -14.547   0.595 -34.254  1.00  0.00     0.027 A 
HETATM   20  C   UNL     1     -13.193   0.906 -34.524  1.00  0.00     0.045 A 
ENDBRANCH  13  16
ENDBRANCH   7  12
ENDBRANCH   1   5
BRANCH   2  21
HETATM   21  CA  UNL     1      -4.845   0.796 -31.882  1.00  0.00     0.141 C 
BRANCH  21  22
HETATM   22  C   UNL     1      -5.135  -0.424 -32.741  1.00  0.00    -0.033 A 
HETATM   23  C   UNL     1      -4.125  -1.336 -33.089  1.00  0.00     0.010 A 
HETATM   24  C   UNL     1      -4.424  -2.477 -33.839  1.00  0.00     0.017 A 
HETATM   25  C   UNL     1      -5.737  -2.731 -34.260  1.00  0.00     0.047 A 
HETATM   26  C   UNL     1      -6.745  -1.820 -33.916  1.00  0.00     0.017 A 
HETATM   27  C   UNL     1      -6.446  -0.678 -33.168  1.00  0.00     0.010 A 
BRANCH  25  28
HETATM   28  C   UNL     1      -6.081  -3.982 -35.033  1.00  0.00     0.417 C 
HETATM   29  F   UNL     1      -5.780  -3.899 -36.359  1.00  0.00    -0.166 F 
HETATM   30  F   UNL     1      -5.419  -5.076 -34.568  1.00  0.00    -0.166 F 
HETATM   31  F   UNL     1      -7.407  -4.292 -34.972  1.00  0.00    -0.166 F 
ENDBRANCH  25  28
ENDBRANCH  21  22
BRANCH  21  32
HETATM   32  C   UNL     1      -3.528   1.483 -32.326  1.00  0.00     0.194 C 
BRANCH  32  33
HETATM   33  O   UNL     1      -2.863   2.139 -31.245  1.00  0.00    -0.399 OA
HETATM   34  H   UNL     1      -2.091   1.585 -30.995  1.00  0.00     0.209 HD
ENDBRANCH  32  33
ENDBRANCH  21  32
ENDBRANCH   2  21
TORSDOF 8
ENDMDL
MODEL 4
REMARK VINA RESULT:      -8.7      5.040      9.790
REMARK  8 active torsions:
REMARK  status: ('A' for Active; 'I' for Inactive)
REMARK    1  A    between atoms: C_3  and  N_4 
REMARK       I    between atoms: N_4  and  C_5 
REMARK    2  A    between atoms: C_5  and  C_6 
REMARK    3  A    between atoms: C_13  and  C_14 
REMARK       I    between atoms: C_14  and  N_15 
REMARK    4  A    between atoms: N_15  and  CA_16 
REMARK    5  A    between atoms: CA_16  and  C_17 
REMARK    6  A    between atoms: CA_16  and  C_27 
REMARK    7  A    between atoms: C_20  and  C_21 
REMARK    8  A    between atoms: C_27  and  O_28 
ROOT
HETATM    1  C   UNL     1      -5.095   4.877 -33.462  1.00  0.00     0.252 C 
HETATM    2  N   UNL     1      -3.769   4.506 -33.472  1.00  0.00    -0.346 N 
HETATM    3  O   UNL     1      -5.474   6.000 -33.776  1.00  0.00    -0.268 OA
HETATM    4  H   UNL     1      -3.494   3.651 -33.005  1.00  0.00     0.163 HD
ENDROOT
BRANCH   1   5
HETATM    5  C   UNL     1      -6.083   3.847 -33.059  1.00  0.00     0.034 A 
HETATM    6  C   UNL     1      -5.806   2.504 -33.351  1.00  0.00     0.047 A 
HETATM    7  C   UNL     1      -6.674   1.472 -32.954  1.00  0.00     0.042 A 
HETATM    8  C   UNL     1      -7.787   1.795 -32.157  1.00  0.00    -0.035 A 
HETATM    9  C   UNL     1      -8.679   0.789 -31.481  1.00  0.00     0.050 C 
HETATM   10  C   UNL     1      -8.069   3.154 -31.893  1.00  0.00     0.010 A 
HETATM   11  C   UNL     1      -7.230   4.174 -32.340  1.00  0.00     0.017 A 
BRANCH   7  12
HETATM   12  N   UNL     1      -6.290   0.181 -33.372  1.00  0.00    -0.321 N 
HETATM   13  C   UNL     1      -6.797  -0.590 -34.403  1.00  0.00     0.279 C 
HETATM   14  O   UNL     1      -7.665  -0.242 -35.194  1.00  0.00    -0.265 OA
HETATM   15  H   UNL     1      -5.414  -0.177 -33.001  1.00  0.00     0.169 HD
BRANCH  13  16
HETATM   16  C   UNL     1      -6.137  -1.880 -34.513  1.00  0.00     0.142 A 
HETATM   17  O   UNL     1      -4.783  -1.967 -34.302  1.00  0.00    -0.317 OA
HETATM   18  C   UNL     1      -4.436  -3.269 -34.471  1.00  0.00     0.143 A 
HETATM   19  C   UNL     1      -5.538  -4.027 -34.789  1.00  0.00     0.027 A 
HETATM   20  C   UNL     1      -6.634  -3.133 -34.818  1.00  0.00     0.045 A 
ENDBRANCH  13  16
ENDBRANCH   7  12
ENDBRANCH   1   5
BRANCH   2  21
HETATM   21  CA  UNL     1      -2.714   5.448 -33.854  1.00  0.00     0.141 C 
BRANCH  21  22
HETATM   22  C   UNL     1      -1.915   5.870 -32.632  1.00  0.00    -0.033 A 
HETATM   23  C   UNL     1      -1.911   7.199 -32.178  1.00  0.00     0.010 A 
HETATM   24  C   UNL     1      -1.207   7.554 -31.023  1.00  0.00     0.017 A 
HETATM   25  C   UNL     1      -0.491   6.591 -30.299  1.00  0.00     0.047 A 
HETATM   26  C   UNL     1      -0.492   5.265 -30.753  1.00  0.00     0.017 A 
HETATM   27  C   UNL     1      -1.193   4.910 -31.908  1.00  0.00     0.010 A 
BRANCH  25  28
HETATM   28  C   UNL     1       0.237   6.953 -29.026  1.00  0.00     0.417 C 
HETATM   29  F   UNL     1       1.193   7.908 -29.202  1.00  0.00    -0.166 F 
HETATM   30  F   UNL     1      -0.602   7.436 -28.069  1.00  0.00    -0.166 F 
HETATM   31  F   UNL     1       0.874   5.889 -28.462  1.00  0.00    -0.166 F 
ENDBRANCH  25  28
ENDBRANCH  21  22
BRANCH  21  32
HETATM   32  C   UNL     1      -1.782   4.870 -34.950  1.00  0.00     0.194 C 
BRANCH  32  33
HETATM   33  O   UNL     1      -0.722   5.763 -35.293  1.00  0.00    -0.399 OA
HETATM   34  H   UNL     1       0.103   5.232 -35.354  1.00  0.00     0.209 HD
ENDBRANCH  32  33
ENDBRANCH  21  32
ENDBRANCH   2  21
TORSDOF 8
ENDMDL
MODEL 5
REMARK VINA RESULT:      -8.7      5.635     10.464
REMARK  8 active torsions:
REMARK  status: ('A' for Active; 'I' for Inactive)
REMARK    1  A    between atoms: C_3  and  N_4 
REMARK       I    between atoms: N_4  and  C_5 
REMARK    2  A    between atoms: C_5  and  C_6 
REMARK    3  A    between atoms: C_13  and  C_14 
REMARK       I    between atoms: C_14  and  N_15 
REMARK    4  A    between atoms: N_15  and  CA_16 
REMARK    5  A    between atoms: CA_16  and  C_17 
REMARK    6  A    between atoms: CA_16  and  C_27 
REMARK    7  A    between atoms: C_20  and  C_21 
REMARK    8  A    between atoms: C_27  and  O_28 
ROOT
HETATM    1  C   UNL     1      -3.812   5.050 -32.609  1.00  0.00     0.252 C 
HETATM    2  N   UNL     1      -2.637   5.464 -32.023  1.00  0.00    -0.346 N 
HETATM    3  O   UNL     1      -4.500   5.784 -33.311  1.00  0.00    -0.268 OA
HETATM    4  H   UNL     1      -2.227   4.898 -31.291  1.00  0.00     0.163 HD
ENDROOT
BRANCH   1   5
HETATM    5  C   UNL     1      -4.230   3.647 -32.372  1.00  0.00     0.034 A 
HETATM    6  C   UNL     1      -5.552   3.285 -32.664  1.00  0.00     0.047 A 
HETATM    7  C   UNL     1      -6.002   1.961 -32.511  1.00  0.00     0.042 A 
HETATM    8  C   UNL     1      -5.070   0.968 -32.157  1.00  0.00    -0.035 A 
HETATM    9  C   UNL     1      -5.349  -0.510 -32.164  1.00  0.00     0.050 C 
HETATM   10  C   UNL     1      -3.748   1.351 -31.840  1.00  0.00     0.010 A 
HETATM   11  C   UNL     1      -3.328   2.677 -31.942  1.00  0.00     0.017 A 
BRANCH   7  12
HETATM   12  N   UNL     1      -7.370   1.764 -32.788  1.00  0.00    -0.321 N 
HETATM   13  C   UNL     1      -8.463   1.935 -31.955  1.00  0.00     0.279 C 
HETATM   14  O   UNL     1      -8.425   2.355 -30.805  1.00  0.00    -0.265 OA
HETATM   15  H   UNL     1      -7.628   1.658 -33.765  1.00  0.00     0.169 HD
BRANCH  13  16
HETATM   16  C   UNL     1      -9.720   1.620 -32.612  1.00  0.00     0.142 A 
HETATM   17  O   UNL     1     -10.634   2.619 -32.837  1.00  0.00    -0.317 OA
HETATM   18  C   UNL     1     -11.703   2.050 -33.453  1.00  0.00     0.143 A 
HETATM   19  C   UNL     1     -11.500   0.703 -33.630  1.00  0.00     0.027 A 
HETATM   20  C   UNL     1     -10.223   0.423 -33.087  1.00  0.00     0.045 A 
ENDBRANCH  13  16
ENDBRANCH   7  12
ENDBRANCH   1   5
BRANCH   2  21
HETATM   21  CA  UNL     1      -2.137   6.830 -32.194  1.00  0.00     0.141 C 
BRANCH  21  22
HETATM   22  C   UNL     1      -1.289   7.236 -31.000  1.00  0.00    -0.033 A 
HETATM   23  C   UNL     1      -1.778   8.105 -30.012  1.00  0.00     0.010 A 
HETATM   24  C   UNL     1      -0.998   8.426 -28.897  1.00  0.00     0.017 A 
HETATM   25  C   UNL     1       0.288   7.889 -28.747  1.00  0.00     0.047 A 
HETATM   26  C   UNL     1       0.778   7.025 -29.735  1.00  0.00     0.017 A 
HETATM   27  C   UNL     1      -0.000   6.705 -30.850  1.00  0.00     0.010 A 
BRANCH  25  28
HETATM   28  C   UNL     1       1.124   8.193 -27.526  1.00  0.00     0.417 C 
HETATM   29  F   UNL     1       0.436   8.848 -26.549  1.00  0.00    -0.166 F 
HETATM   30  F   UNL     1       1.620   7.068 -26.944  1.00  0.00    -0.166 F 
HETATM   31  F   UNL     1       2.203   8.976 -27.808  1.00  0.00    -0.166 F 
ENDBRANCH  25  28
ENDBRANCH  21  22
BRANCH  21  32
HETATM   32  C   UNL     1      -1.346   7.001 -33.517  1.00  0.00     0.194 C 
BRANCH  32  33
HETATM   33  O   UNL     1      -2.197   7.255 -34.635  1.00  0.00    -0.399 OA
HETATM   34  H   UNL     1      -2.949   7.801 -34.314  1.00  0.00     0.209 HD
ENDBRANCH  32  33
ENDBRANCH  21  32
ENDBRANCH   2  21
TORSDOF 8
ENDMDL
MODEL 6
REMARK VINA RESULT:      -8.6      2.968      3.701
REMARK  8 active torsions:
REMARK  status: ('A' for Active; 'I' for Inactive)
REMARK    1  A    between atoms: C_3  and  N_4 
REMARK       I    between atoms: N_4  and  C_5 
REMARK    2  A    between atoms: C_5  and  C_6 
REMARK    3  A    between atoms: C_13  and  C_14 
REMARK       I    between atoms: C_14  and  N_15 
REMARK    4  A    between atoms: N_15  and  CA_16 
REMARK    5  A    between atoms: CA_16  and  C_17 
REMARK    6  A    between atoms: CA_16  and  C_27 
REMARK    7  A    between atoms: C_20  and  C_21 
REMARK    8  A    between atoms: C_27  and  O_28 
ROOT
HETATM    1  C   UNL     1      -3.579   2.131 -32.057  1.00  0.00     0.252 C 
HETATM    2  N   UNL     1      -4.720   1.826 -32.765  1.00  0.00    -0.346 N 
HETATM    3  O   UNL     1      -3.058   1.351 -31.267  1.00  0.00    -0.268 OA
HETATM    4  H   UNL     1      -5.222   2.571 -33.232  1.00  0.00     0.163 HD
ENDROOT
BRANCH   1   5
HETATM    5  C   UNL     1      -2.972   3.464 -32.291  1.00  0.00     0.034 A 
HETATM    6  C   UNL     1      -2.319   4.097 -31.224  1.00  0.00     0.047 A 
HETATM    7  C   UNL     1      -1.679   5.338 -31.388  1.00  0.00     0.042 A 
HETATM    8  C   UNL     1      -1.608   5.896 -32.677  1.00  0.00    -0.035 A 
HETATM    9  C   UNL     1      -0.781   7.098 -33.047  1.00  0.00     0.050 C 
HETATM   10  C   UNL     1      -2.293   5.261 -33.737  1.00  0.00     0.010 A 
HETATM   11  C   UNL     1      -2.973   4.058 -33.550  1.00  0.00     0.017 A 
BRANCH   7  12
HETATM   12  N   UNL     1      -1.117   5.876 -30.211  1.00  0.00    -0.321 N 
HETATM   13  C   UNL     1       0.122   5.631 -29.645  1.00  0.00     0.279 C 
HETATM   14  O   UNL     1       0.996   4.918 -30.120  1.00  0.00    -0.265 OA
HETATM   15  H   UNL     1      -1.587   6.680 -29.808  1.00  0.00     0.169 HD
BRANCH  13  16
HETATM   16  C   UNL     1       0.331   6.378 -28.415  1.00  0.00     0.142 A 
HETATM   17  O   UNL     1       1.104   7.512 -28.435  1.00  0.00    -0.317 OA
HETATM   18  C   UNL     1       1.132   7.998 -27.167  1.00  0.00     0.143 A 
HETATM   19  C   UNL     1       0.393   7.201 -26.326  1.00  0.00     0.027 A 
HETATM   20  C   UNL     1      -0.122   6.155 -27.128  1.00  0.00     0.045 A 
ENDBRANCH  13  16
ENDBRANCH   7  12
ENDBRANCH   1   5
BRANCH   2  21
HETATM   21  CA  UNL     1      -5.397   0.537 -32.607  1.00  0.00     0.141 C 
BRANCH  21  22
HETATM   22  C   UNL     1      -6.885   0.686 -32.876  1.00  0.00    -0.033 A 
HETATM   23  C   UNL     1      -7.375   0.993 -34.155  1.00  0.00     0.010 A 
HETATM   24  C   UNL     1      -8.751   1.076 -34.389  1.00  0.00     0.017 A 
HETATM   25  C   UNL     1      -9.667   0.857 -33.349  1.00  0.00     0.047 A 
HETATM   26  C   UNL     1      -9.178   0.555 -32.072  1.00  0.00     0.017 A 
HETATM   27  C   UNL     1      -7.803   0.473 -31.837  1.00  0.00     0.010 A 
BRANCH  25  28
HETATM   28  C   UNL     1     -11.156   0.901 -33.599  1.00  0.00     0.417 C 
HETATM   29  F   UNL     1     -11.804  -0.231 -33.205  1.00  0.00    -0.166 F 
HETATM   30  F   UNL     1     -11.761   1.927 -32.941  1.00  0.00    -0.166 F 
HETATM   31  F   UNL     1     -11.464   1.067 -34.916  1.00  0.00    -0.166 F 
ENDBRANCH  25  28
ENDBRANCH  21  22
BRANCH  21  32
HETATM   32  C   UNL     1      -4.779  -0.562 -33.510  1.00  0.00     0.194 C 
BRANCH  32  33
HETATM   33  O   UNL     1      -3.674  -1.221 -32.891  1.00  0.00    -0.399 OA
HETATM   34  H   UNL     1      -2.855  -0.885 -33.317  1.00  0.00     0.209 HD
ENDBRANCH  32  33
ENDBRANCH  21  32
ENDBRANCH   2  21
TORSDOF 8
ENDMDL
MODEL 7
REMARK VINA RESULT:      -8.4      1.937      2.334
REMARK  8 active torsions:
REMARK  status: ('A' for Active; 'I' for Inactive)
REMARK    1  A    between atoms: C_3  and  N_4 
REMARK       I    between atoms: N_4  and  C_5 
REMARK    2  A    between atoms: C_5  and  C_6 
REMARK    3  A    between atoms: C_13  and  C_14 
REMARK       I    between atoms: C_14  and  N_15 
REMARK    4  A    between atoms: N_15  and  CA_16 
REMARK    5  A    between atoms: CA_16  and  C_17 
REMARK    6  A    between atoms: CA_16  and  C_27 
REMARK    7  A    between atoms: C_20  and  C_21 
REMARK    8  A    between atoms: C_27  and  O_28 
ROOT
HETATM    1  C   UNL     1      -5.020   3.698 -33.036  1.00  0.00     0.252 C 
HETATM    2  N   UNL     1      -5.487   2.792 -32.110  1.00  0.00    -0.346 N 
HETATM    3  O   UNL     1      -5.608   3.942 -34.084  1.00  0.00    -0.268 OA
HETATM    4  H   UNL     1      -4.866   2.473 -31.378  1.00  0.00     0.163 HD
ENDROOT
BRANCH   1   5
HETATM    5  C   UNL     1      -3.753   4.401 -32.716  1.00  0.00     0.034 A 
HETATM    6  C   UNL     1      -3.582   4.915 -31.423  1.00  0.00     0.047 A 
HETATM    7  C   UNL     1      -2.387   5.547 -31.037  1.00  0.00     0.042 A 
HETATM    8  C   UNL     1      -1.310   5.566 -31.942  1.00  0.00    -0.035 A 
HETATM    9  C   UNL     1       0.087   6.010 -31.602  1.00  0.00     0.050 C 
HETATM   10  C   UNL     1      -1.505   5.069 -33.250  1.00  0.00     0.010 A 
HETATM   11  C   UNL     1      -2.714   4.494 -33.639  1.00  0.00     0.017 A 
BRANCH   7  12
HETATM   12  N   UNL     1      -2.387   6.064 -29.725  1.00  0.00    -0.321 N 
HETATM   13  C   UNL     1      -2.576   7.367 -29.300  1.00  0.00     0.279 C 
HETATM   14  O   UNL     1      -2.840   8.322 -30.020  1.00  0.00    -0.265 OA
HETATM   15  H   UNL     1      -2.436   5.388 -28.968  1.00  0.00     0.169 HD
BRANCH  13  16
HETATM   16  C   UNL     1      -2.495   7.501 -27.855  1.00  0.00     0.142 A 
HETATM   17  O   UNL     1      -1.316   7.900 -27.277  1.00  0.00    -0.317 OA
HETATM   18  C   UNL     1      -1.521   7.934 -25.935  1.00  0.00     0.143 A 
HETATM   19  C   UNL     1      -2.809   7.565 -25.632  1.00  0.00     0.027 A 
HETATM   20  C   UNL     1      -3.438   7.283 -26.868  1.00  0.00     0.045 A 
ENDBRANCH  13  16
ENDBRANCH   7  12
ENDBRANCH   1   5
BRANCH   2  21
HETATM   21  CA  UNL     1      -6.727   2.045 -32.330  1.00  0.00     0.141 C 
BRANCH  21  22
HETATM   22  C   UNL     1      -6.424   0.680 -32.926  1.00  0.00    -0.033 A 
HETATM   23  C   UNL     1      -7.085   0.215 -34.074  1.00  0.00     0.010 A 
HETATM   24  C   UNL     1      -6.755  -1.024 -34.632  1.00  0.00     0.017 A 
HETATM   25  C   UNL     1      -5.760  -1.825 -34.054  1.00  0.00     0.047 A 
HETATM   26  C   UNL     1      -5.103  -1.362 -32.906  1.00  0.00     0.017 A 
HETATM   27  C   UNL     1      -5.434  -0.126 -32.347  1.00  0.00     0.010 A 
BRANCH  25  28
HETATM   28  C   UNL     1      -5.363  -3.144 -34.673  1.00  0.00     0.417 C 
HETATM   29  F   UNL     1      -5.140  -3.068 -36.015  1.00  0.00    -0.166 F 
HETATM   30  F   UNL     1      -4.221  -3.648 -34.132  1.00  0.00    -0.166 F 
HETATM   31  F   UNL     1      -6.312  -4.109 -34.509  1.00  0.00    -0.166 F 
ENDBRANCH  25  28
ENDBRANCH  21  22
BRANCH  21  32
HETATM   32  C   UNL     1      -7.565   1.908 -31.032  1.00  0.00     0.194 C 
BRANCH  32  33
HETATM   33  O   UNL     1      -6.767   2.015 -29.852  1.00  0.00    -0.399 OA
HETATM   34  H   UNL     1      -7.372   2.228 -29.107  1.00  0.00     0.209 HD
ENDBRANCH  32  33
ENDBRANCH  21  32
ENDBRANCH   2  21
TORSDOF 8
ENDMDL
MODEL 8
REMARK VINA RESULT:      -8.4      5.906     10.667
REMARK  8 active torsions:
REMARK  status: ('A' for Active; 'I' for Inactive)
REMARK    1  A    between atoms: C_3  and  N_4 
REMARK       I    between atoms: N_4  and  C_5 
REMARK    2  A    between atoms: C_5  and  C_6 
REMARK    3  A    between atoms: C_13  and  C_14 
REMARK       I    between atoms: C_14  and  N_15 
REMARK    4  A    between atoms: N_15  and  CA_16 
REMARK    5  A    between atoms: CA_16  and  C_17 
REMARK    6  A    between atoms: CA_16  and  C_27 
REMARK    7  A    between atoms: C_20  and  C_21 
REMARK    8  A    between atoms: C_27  and  O_28 
ROOT
HETATM    1  C   UNL     1      -1.938   4.710 -31.581  1.00  0.00     0.252 C 
HETATM    2  N   UNL     1      -1.477   5.220 -30.388  1.00  0.00    -0.346 N 
HETATM    3  O   UNL     1      -1.235   4.617 -32.581  1.00  0.00    -0.268 OA
HETATM    4  H   UNL     1      -2.145   5.471 -29.670  1.00  0.00     0.163 HD
ENDROOT
BRANCH   1   5
HETATM    5  C   UNL     1      -3.348   4.252 -31.621  1.00  0.00     0.034 A 
HETATM    6  C   UNL     1      -3.626   2.993 -32.171  1.00  0.00     0.047 A 
HETATM    7  C   UNL     1      -4.933   2.474 -32.196  1.00  0.00     0.042 A 
HETATM    8  C   UNL     1      -5.958   3.197 -31.560  1.00  0.00    -0.035 A 
HETATM    9  C   UNL     1      -7.349   2.678 -31.317  1.00  0.00     0.050 C 
HETATM   10  C   UNL     1      -5.670   4.476 -31.033  1.00  0.00     0.010 A 
HETATM   11  C   UNL     1      -4.379   5.004 -31.065  1.00  0.00     0.017 A 
BRANCH   7  12
HETATM   12  N   UNL     1      -5.062   1.223 -32.834  1.00  0.00    -0.321 N 
HETATM   13  C   UNL     1      -5.231  -0.030 -32.271  1.00  0.00     0.279 C 
HETATM   14  O   UNL     1      -5.357  -0.265 -31.075  1.00  0.00    -0.265 OA
HETATM   15  H   UNL     1      -5.238   1.237 -33.834  1.00  0.00     0.169 HD
BRANCH  13  16
HETATM   16  C   UNL     1      -5.317  -1.083 -33.269  1.00  0.00     0.142 A 
HETATM   17  O   UNL     1      -4.207  -1.839 -33.552  1.00  0.00    -0.317 OA
HETATM   18  C   UNL     1      -4.566  -2.732 -34.510  1.00  0.00     0.143 A 
HETATM   19  C   UNL     1      -5.886  -2.569 -34.854  1.00  0.00     0.027 A 
HETATM   20  C   UNL     1      -6.372  -1.505 -34.056  1.00  0.00     0.045 A 
ENDBRANCH  13  16
ENDBRANCH   7  12
ENDBRANCH   1   5
BRANCH   2  21
HETATM   21  CA  UNL     1      -0.101   5.700 -30.242  1.00  0.00     0.141 C 
BRANCH  21  22
HETATM   22  C   UNL     1      -0.043   6.841 -29.240  1.00  0.00    -0.033 A 
HETATM   23  C   UNL     1       0.903   6.861 -28.202  1.00  0.00     0.010 A 
HETATM   24  C   UNL     1       0.969   7.945 -27.322  1.00  0.00     0.017 A 
HETATM   25  C   UNL     1       0.091   9.030 -27.457  1.00  0.00     0.047 A 
HETATM   26  C   UNL     1      -0.855   9.008 -28.490  1.00  0.00     0.017 A 
HETATM   27  C   UNL     1      -0.923   7.924 -29.369  1.00  0.00     0.010 A 
BRANCH  25  28
HETATM   28  C   UNL     1       0.182  10.226 -26.539  1.00  0.00     0.417 C 
HETATM   29  F   UNL     1       0.578   9.910 -25.275  1.00  0.00    -0.166 F 
HETATM   30  F   UNL     1       1.069  11.156 -26.987  1.00  0.00    -0.166 F 
HETATM   31  F   UNL     1      -1.007  10.878 -26.404  1.00  0.00    -0.166 F 
ENDBRANCH  25  28
ENDBRANCH  21  22
BRANCH  21  32
HETATM   32  C   UNL     1       0.876   4.564 -29.843  1.00  0.00     0.194 C 
BRANCH  32  33
HETATM   33  O   UNL     1       1.758   4.202 -30.906  1.00  0.00    -0.399 OA
HETATM   34  H   UNL     1       1.295   3.534 -31.459  1.00  0.00     0.209 HD
ENDBRANCH  32  33
ENDBRANCH  21  32
ENDBRANCH   2  21
TORSDOF 8
ENDMDL
MODEL 9
REMARK VINA RESULT:      -8.3      5.373     10.103
REMARK  8 active torsions:
REMARK  status: ('A' for Active; 'I' for Inactive)
REMARK    1  A    between atoms: C_3  and  N_4 
REMARK       I    between atoms: N_4  and  C_5 
REMARK    2  A    between atoms: C_5  and  C_6 
REMARK    3  A    between atoms: C_13  and  C_14 
REMARK       I    between atoms: C_14  and  N_15 
REMARK    4  A    between atoms: N_15  and  CA_16 
REMARK    5  A    between atoms: CA_16  and  C_17 
REMARK    6  A    between atoms: CA_16  and  C_27 
REMARK    7  A    between atoms: C_20  and  C_21 
REMARK    8  A    between atoms: C_27  and  O_28 
ROOT
HETATM    1  C   UNL     1      -3.384   4.179 -31.912  1.00  0.00     0.252 C 
HETATM    2  N   UNL     1      -3.787   5.494 -31.975  1.00  0.00    -0.346 N 
HETATM    3  O   UNL     1      -2.241   3.821 -32.175  1.00  0.00    -0.268 OA
HETATM    4  H   UNL     1      -4.777   5.705 -31.960  1.00  0.00     0.163 HD
ENDROOT
BRANCH   1   5
HETATM    5  C   UNL     1      -4.396   3.179 -31.493  1.00  0.00     0.034 A 
HETATM    6  C   UNL     1      -4.370   1.912 -32.092  1.00  0.00     0.047 A 
HETATM    7  C   UNL     1      -5.267   0.900 -31.706  1.00  0.00     0.042 A 
HETATM    8  C   UNL     1      -6.134   1.142 -30.625  1.00  0.00    -0.035 A 
HETATM    9  C   UNL     1      -6.992   0.097 -29.964  1.00  0.00     0.050 C 
HETATM   10  C   UNL     1      -6.168   2.431 -30.050  1.00  0.00     0.010 A 
HETATM   11  C   UNL     1      -5.311   3.444 -30.478  1.00  0.00     0.017 A 
BRANCH   7  12
HETATM   12  N   UNL     1      -5.158  -0.300 -32.439  1.00  0.00    -0.321 N 
HETATM   13  C   UNL     1      -5.694  -0.620 -33.674  1.00  0.00     0.279 C 
HETATM   14  O   UNL     1      -6.336   0.136 -34.392  1.00  0.00    -0.265 OA
HETATM   15  H   UNL     1      -4.454  -0.963 -32.127  1.00  0.00     0.169 HD
BRANCH  13  16
HETATM   16  C   UNL     1      -5.360  -1.971 -34.095  1.00  0.00     0.142 A 
HETATM   17  O   UNL     1      -4.158  -2.518 -33.721  1.00  0.00    -0.317 OA
HETATM   18  C   UNL     1      -4.108  -3.769 -34.248  1.00  0.00     0.143 A 
HETATM   19  C   UNL     1      -5.254  -4.043 -34.956  1.00  0.00     0.027 A 
HETATM   20  C   UNL     1      -6.062  -2.884 -34.860  1.00  0.00     0.045 A 
ENDBRANCH  13  16
ENDBRANCH   7  12
ENDBRANCH   1   5
BRANCH   2  21
HETATM   21  CA  UNL     1      -2.866   6.558 -32.378  1.00  0.00     0.141 C 
BRANCH  21  22
HETATM   22  C   UNL     1      -1.875   6.850 -31.263  1.00  0.00    -0.033 A 
HETATM   23  C   UNL     1      -0.489   6.804 -31.479  1.00  0.00     0.010 A 
HETATM   24  C   UNL     1       0.402   7.124 -30.450  1.00  0.00     0.017 A 
HETATM   25  C   UNL     1      -0.072   7.494 -29.183  1.00  0.00     0.047 A 
HETATM   26  C   UNL     1      -1.456   7.535 -28.966  1.00  0.00     0.017 A 
HETATM   27  C   UNL     1      -2.347   7.214 -29.993  1.00  0.00     0.010 A 
BRANCH  25  28
HETATM   28  C   UNL     1       0.880   7.884 -28.077  1.00  0.00     0.417 C 
HETATM   29  F   UNL     1       1.455   6.817 -27.457  1.00  0.00    -0.166 F 
HETATM   30  F   UNL     1       1.907   8.655 -28.526  1.00  0.00    -0.166 F 
HETATM   31  F   UNL     1       0.274   8.604 -27.091  1.00  0.00    -0.166 F 
ENDBRANCH  25  28
ENDBRANCH  21  22
BRANCH  21  32
HETATM   32  C   UNL     1      -2.126   6.223 -33.699  1.00  0.00     0.194 C 
BRANCH  32  33
HETATM   33  O   UNL     1      -2.981   6.304 -34.841  1.00  0.00    -0.399 OA
HETATM   34  H   UNL     1      -3.908   6.305 -34.514  1.00  0.00     0.209 HD
ENDBRANCH  32  33
ENDBRANCH  21  32
ENDBRANCH   2  21
TORSDOF 8
ENDMDL
MODEL 10
REMARK VINA RESULT:      -8.0      4.631      5.928
REMARK  8 active torsions:
REMARK  status: ('A' for Active; 'I' for Inactive)
REMARK    1  A    between atoms: C_3  and  N_4 
REMARK       I    between atoms: N_4  and  C_5 
REMARK    2  A    between atoms: C_5  and  C_6 
REMARK    3  A    between atoms: C_13  and  C_14 
REMARK       I    between atoms: C_14  and  N_15 
REMARK    4  A    between atoms: N_15  and  CA_16 
REMARK    5  A    between atoms: CA_16  and  C_17 
REMARK    6  A    between atoms: CA_16  and  C_27 
REMARK    7  A    between atoms: C_20  and  C_21 
REMARK    8  A    between atoms: C_27  and  O_28 
ROOT
HETATM    1  C   UNL     1      -7.093   3.816 -33.716  1.00  0.00     0.252 C 
HETATM    2  N   UNL     1      -8.372   3.357 -33.493  1.00  0.00    -0.346 N 
HETATM    3  O   UNL     1      -6.854   4.849 -34.332  1.00  0.00    -0.268 OA
HETATM    4  H   UNL     1      -8.504   2.406 -33.174  1.00  0.00     0.163 HD
ENDROOT
BRANCH   1   5
HETATM    5  C   UNL     1      -5.977   3.008 -33.164  1.00  0.00     0.034 A 
HETATM    6  C   UNL     1      -4.972   3.664 -32.440  1.00  0.00     0.047 A 
HETATM    7  C   UNL     1      -3.913   2.954 -31.846  1.00  0.00     0.042 A 
HETATM    8  C   UNL     1      -3.930   1.549 -31.897  1.00  0.00    -0.035 A 
HETATM    9  C   UNL     1      -2.993   0.652 -31.133  1.00  0.00     0.050 C 
HETATM   10  C   UNL     1      -4.934   0.903 -32.652  1.00  0.00     0.010 A 
HETATM   11  C   UNL     1      -5.948   1.621 -33.284  1.00  0.00     0.017 A 
BRANCH   7  12
HETATM   12  N   UNL     1      -2.949   3.757 -31.202  1.00  0.00    -0.321 N 
HETATM   13  C   UNL     1      -1.920   4.499 -31.756  1.00  0.00     0.279 C 
HETATM   14  O   UNL     1      -1.699   4.630 -32.954  1.00  0.00    -0.265 OA
HETATM   15  H   UNL     1      -3.119   3.980 -30.226  1.00  0.00     0.169 HD
BRANCH  13  16
HETATM   16  C   UNL     1      -1.128   5.192 -30.753  1.00  0.00     0.142 A 
HETATM   17  O   UNL     1      -1.666   6.267 -30.092  1.00  0.00    -0.317 OA
HETATM   18  C   UNL     1      -0.720   6.718 -29.228  1.00  0.00     0.143 A 
HETATM   19  C   UNL     1       0.420   5.956 -29.317  1.00  0.00     0.027 A 
HETATM   20  C   UNL     1       0.160   4.973 -30.301  1.00  0.00     0.045 A 
ENDBRANCH  13  16
ENDBRANCH   7  12
ENDBRANCH   1   5
BRANCH   2  21
HETATM   21  CA  UNL     1      -9.541   4.080 -33.997  1.00  0.00     0.141 C 
BRANCH  21  22
HETATM   22  C   UNL     1     -10.794   3.233 -33.841  1.00  0.00    -0.033 A 
HETATM   23  C   UNL     1     -12.070   3.813 -33.759  1.00  0.00     0.010 A 
HETATM   24  C   UNL     1     -13.211   3.011 -33.665  1.00  0.00     0.017 A 
HETATM   25  C   UNL     1     -13.102   1.613 -33.649  1.00  0.00     0.047 A 
HETATM   26  C   UNL     1     -11.829   1.034 -33.726  1.00  0.00     0.017 A 
HETATM   27  C   UNL     1     -10.688   1.835 -33.818  1.00  0.00     0.010 A 
BRANCH  25  28
HETATM   28  C   UNL     1     -14.330   0.736 -33.592  1.00  0.00     0.417 C 
HETATM   29  F   UNL     1     -15.234   1.129 -32.652  1.00  0.00    -0.166 F 
HETATM   30  F   UNL     1     -15.006   0.713 -34.773  1.00  0.00    -0.166 F 
HETATM   31  F   UNL     1     -14.037  -0.564 -33.304  1.00  0.00    -0.166 F 
ENDBRANCH  25  28
ENDBRANCH  21  22
BRANCH  21  32
HETATM   32  C   UNL     1      -9.718   5.458 -33.308  1.00  0.00     0.194 C 
BRANCH  32  33
HETATM   33  O   UNL     1      -9.328   6.544 -34.149  1.00  0.00    -0.399 OA
HETATM   34  H   UNL     1     -10.145   6.913 -34.552  1.00  0.00     0.209 HD
ENDBRANCH  32  33
ENDBRANCH  21  32
ENDBRANCH   2  21
TORSDOF 8
ENDMDL
