MODEL 1
REMARK VINA RESULT:      -7.9      0.000      0.000
REMARK  6 active torsions:
REMARK  status: ('A' for Active; 'I' for Inactive)
REMARK    1  A    between atoms: C_8  and  N_9 
REMARK       I    between atoms: N_9  and  C_10 
REMARK    2  A    between atoms: C_10  and  C_11 
REMARK    3  A    between atoms: C_11  and  N_12 
REMARK    4  A    between atoms: N_12  and  C_13 
REMARK    5  A    between atoms: C_13  and  C_14 
REMARK    6  A    between atoms: C_13  and  C_17 
ROOT
HETATM    1  C   UNL     1      -3.381   2.323 -31.323  1.00  0.00     0.372 C 
ENDROOT
BRANCH   1   2
HETATM    2  C   UNL     1      -3.335   3.827 -31.616  1.00  0.00     0.250 C 
HETATM    3  N   UNL     1      -2.291   4.150 -32.459  1.00  0.00    -0.322 N 
HETATM    4  H   UNL     1      -1.639   3.394 -32.644  1.00  0.00     0.169 HD
HETATM    5  O   UNL     1      -4.184   4.582 -31.156  1.00  0.00    -0.271 OA
BRANCH   3   6
HETATM    6  C   UNL     1      -2.013   5.378 -33.033  1.00  0.00     0.085 A 
HETATM    7  C   UNL     1      -2.679   5.813 -34.165  1.00  0.00     0.052 A 
HETATM    8  C   UNL     1      -3.741   5.205 -34.999  1.00  0.00     0.072 C 
HETATM    9  N   UNL     1      -2.168   7.047 -34.447  1.00  0.00    -0.280 N 
HETATM   10  H   UNL     1      -2.419   7.671 -35.207  1.00  0.00     0.189 HD
HETATM   11  N   UNL     1      -1.232   7.455 -33.589  1.00  0.00    -0.177 NA
HETATM   12  C   UNL     1      -1.125   6.446 -32.709  1.00  0.00     0.079 A 
HETATM   13  C   UNL     1      -0.154   6.596 -31.596  1.00  0.00     0.075 C 
ENDBRANCH   3   6
ENDBRANCH   1   2
BRANCH   1  14
HETATM   14  N   UNL     1      -3.639   1.573 -32.569  1.00  0.00     0.101 N 
HETATM   15  H   UNL     1      -3.089   0.714 -32.541  1.00  0.00     0.317 HD
BRANCH  14  16
HETATM   16  C   UNL     1      -5.074   1.237 -32.721  1.00  0.00     0.259 C 
BRANCH  16  17
HETATM   17  C   UNL     1      -5.891   1.262 -31.387  1.00  0.00     0.015 C 
HETATM   18  C   UNL     1      -7.106   2.200 -31.391  1.00  0.00     0.012 C 
HETATM   19  C   UNL     1      -6.340  -0.141 -30.963  1.00  0.00     0.012 C 
ENDBRANCH  16  17
BRANCH  16  20
HETATM   20  C   UNL     1      -5.247  -0.100 -33.447  1.00  0.00    -0.003 A 
HETATM   21  C   UNL     1      -6.329  -0.344 -34.316  1.00  0.00     0.042 A 
HETATM   22 CL   UNL     1      -7.528   0.854 -34.663  1.00  0.00    -0.084 Cl
HETATM   23  C   UNL     1      -6.485  -1.590 -34.938  1.00  0.00     0.024 A 
HETATM   24  C   UNL     1      -5.573  -2.616 -34.700  1.00  0.00     0.002 A 
HETATM   25  C   UNL     1      -4.502  -2.400 -33.842  1.00  0.00     0.001 A 
HETATM   26  C   UNL     1      -4.340  -1.158 -33.224  1.00  0.00     0.011 A 
ENDBRANCH  16  20
ENDBRANCH  14  16
ENDBRANCH   1  14
TORSDOF 6
ENDMDL
MODEL 2
REMARK VINA RESULT:      -7.7      0.317      1.708
REMARK  6 active torsions:
REMARK  status: ('A' for Active; 'I' for Inactive)
REMARK    1  A    between atoms: C_8  and  N_9 
REMARK       I    between atoms: N_9  and  C_10 
REMARK    2  A    between atoms: C_10  and  C_11 
REMARK    3  A    between atoms: C_11  and  N_12 
REMARK    4  A    between atoms: N_12  and  C_13 
REMARK    5  A    between atoms: C_13  and  C_14 
REMARK    6  A    between atoms: C_13  and  C_17 
ROOT
HETATM    1  C   UNL     1      -3.473   2.255 -31.218  1.00  0.00     0.372 C 
ENDROOT
BRANCH   1   2
HETATM    2  C   UNL     1      -3.454   3.714 -31.687  1.00  0.00     0.250 C 
HETATM    3  N   UNL     1      -2.257   4.039 -32.292  1.00  0.00    -0.322 N 
HETATM    4  H   UNL     1      -1.532   3.334 -32.214  1.00  0.00     0.169 HD
HETATM    5  O   UNL     1      -4.439   4.431 -31.548  1.00  0.00    -0.271 OA
BRANCH   3   6
HETATM    6  C   UNL     1      -1.925   5.216 -32.940  1.00  0.00     0.085 A 
HETATM    7  C   UNL     1      -0.928   6.047 -32.462  1.00  0.00     0.052 A 
HETATM    8  C   UNL     1      -0.029   5.961 -31.288  1.00  0.00     0.072 C 
HETATM    9  N   UNL     1      -0.862   7.093 -33.336  1.00  0.00    -0.280 N 
HETATM   10  H   UNL     1      -0.244   7.897 -33.307  1.00  0.00     0.189 HD
HETATM   11  N   UNL     1      -1.729   7.009 -34.347  1.00  0.00    -0.177 NA
HETATM   12  C   UNL     1      -2.388   5.860 -34.126  1.00  0.00     0.079 A 
HETATM   13  C   UNL     1      -3.435   5.462 -35.100  1.00  0.00     0.075 C 
ENDBRANCH   3   6
ENDBRANCH   1   2
BRANCH   1  14
HETATM   14  N   UNL     1      -3.653   1.355 -32.373  1.00  0.00     0.101 N 
HETATM   15  H   UNL     1      -3.193   0.469 -32.159  1.00  0.00     0.317 HD
BRANCH  14  16
HETATM   16  C   UNL     1      -5.085   1.111 -32.664  1.00  0.00     0.259 C 
BRANCH  16  17
HETATM   17  C   UNL     1      -6.018   1.163 -31.411  1.00  0.00     0.015 C 
HETATM   18  C   UNL     1      -7.248   2.069 -31.558  1.00  0.00     0.012 C 
HETATM   19  C   UNL     1      -6.474  -0.235 -30.977  1.00  0.00     0.012 C 
ENDBRANCH  16  17
BRANCH  16  20
HETATM   20  C   UNL     1      -5.270  -0.199 -33.434  1.00  0.00    -0.003 A 
HETATM   21  C   UNL     1      -6.293  -0.367 -34.389  1.00  0.00     0.042 A 
HETATM   22 CL   UNL     1      -7.400   0.899 -34.794  1.00  0.00    -0.084 Cl
HETATM   23  C   UNL     1      -6.465  -1.589 -35.051  1.00  0.00     0.024 A 
HETATM   24  C   UNL     1      -5.627  -2.667 -34.772  1.00  0.00     0.002 A 
HETATM   25  C   UNL     1      -4.615  -2.527 -33.830  1.00  0.00     0.001 A 
HETATM   26  C   UNL     1      -4.438  -1.308 -33.170  1.00  0.00     0.011 A 
ENDBRANCH  16  20
ENDBRANCH  14  16
ENDBRANCH   1  14
TORSDOF 6
ENDMDL
MODEL 3
REMARK VINA RESULT:      -7.6      1.447      1.872
REMARK  6 active torsions:
REMARK  status: ('A' for Active; 'I' for Inactive)
REMARK    1  A    between atoms: C_8  and  N_9 
REMARK       I    between atoms: N_9  and  C_10 
REMARK    2  A    between atoms: C_10  and  C_11 
REMARK    3  A    between atoms: C_11  and  N_12 
REMARK    4  A    between atoms: N_12  and  C_13 
REMARK    5  A    between atoms: C_13  and  C_14 
REMARK    6  A    between atoms: C_13  and  C_17 
ROOT
HETATM    1  C   UNL     1      -4.960   2.748 -32.715  1.00  0.00     0.372 C 
ENDROOT
BRANCH   1   2
HETATM    2  C   UNL     1      -3.692   3.607 -32.655  1.00  0.00     0.250 C 
HETATM    3  N   UNL     1      -3.885   4.842 -33.238  1.00  0.00    -0.322 N 
HETATM    4  H   UNL     1      -4.764   4.950 -33.734  1.00  0.00     0.169 HD
HETATM    5  O   UNL     1      -2.680   3.194 -32.099  1.00  0.00    -0.271 OA
BRANCH   3   6
HETATM    6  C   UNL     1      -3.012   5.915 -33.262  1.00  0.00     0.085 A 
HETATM    7  C   UNL     1      -3.192   7.011 -32.435  1.00  0.00     0.052 A 
HETATM    8  C   UNL     1      -4.214   7.339 -31.415  1.00  0.00     0.072 C 
HETATM    9  N   UNL     1      -2.161   7.860 -32.712  1.00  0.00    -0.280 N 
HETATM   10  H   UNL     1      -1.965   8.766 -32.297  1.00  0.00     0.189 HD
HETATM   11  N   UNL     1      -1.320   7.407 -33.644  1.00  0.00    -0.177 NA
HETATM   12  C   UNL     1      -1.822   6.211 -33.991  1.00  0.00     0.079 A 
HETATM   13  C   UNL     1      -1.096   5.426 -35.020  1.00  0.00     0.075 C 
ENDBRANCH   3   6
ENDBRANCH   1   2
BRANCH   1  14
HETATM   14  N   UNL     1      -4.642   1.352 -32.358  1.00  0.00     0.101 N 
HETATM   15  H   UNL     1      -4.379   1.329 -31.372  1.00  0.00     0.317 HD
BRANCH  14  16
HETATM   16  C   UNL     1      -5.796   0.449 -32.582  1.00  0.00     0.259 C 
BRANCH  16  17
HETATM   17  C   UNL     1      -6.646   0.155 -31.303  1.00  0.00     0.015 C 
HETATM   18  C   UNL     1      -6.000   0.595 -29.982  1.00  0.00     0.012 C 
HETATM   19  C   UNL     1      -8.053   0.758 -31.398  1.00  0.00     0.012 C 
ENDBRANCH  16  17
BRANCH  16  20
HETATM   20  C   UNL     1      -5.348  -0.851 -33.256  1.00  0.00    -0.003 A 
HETATM   21  C   UNL     1      -6.028  -1.390 -34.366  1.00  0.00     0.042 A 
HETATM   22 CL   UNL     1      -7.399  -0.612 -35.081  1.00  0.00    -0.084 Cl
HETATM   23  C   UNL     1      -5.622  -2.601 -34.940  1.00  0.00     0.024 A 
HETATM   24  C   UNL     1      -4.537  -3.301 -34.417  1.00  0.00     0.002 A 
HETATM   25  C   UNL     1      -3.855  -2.792 -33.318  1.00  0.00     0.001 A 
HETATM   26  C   UNL     1      -4.254  -1.582 -32.746  1.00  0.00     0.011 A 
ENDBRANCH  16  20
ENDBRANCH  14  16
ENDBRANCH   1  14
TORSDOF 6
ENDMDL
MODEL 4
REMARK VINA RESULT:      -7.5      4.810      7.731
REMARK  6 active torsions:
REMARK  status: ('A' for Active; 'I' for Inactive)
REMARK    1  A    between atoms: C_8  and  N_9 
REMARK       I    between atoms: N_9  and  C_10 
REMARK    2  A    between atoms: C_10  and  C_11 
REMARK    3  A    between atoms: C_11  and  N_12 
REMARK    4  A    between atoms: N_12  and  C_13 
REMARK    5  A    between atoms: C_13  and  C_14 
REMARK    6  A    between atoms: C_13  and  C_17 
ROOT
HETATM    1  C   UNL     1      -8.712   0.943 -31.519  1.00  0.00     0.372 C 
ENDROOT
BRANCH   1   2
HETATM    2  C   UNL     1      -9.793   0.610 -32.553  1.00  0.00     0.250 C 
HETATM    3  N   UNL     1     -10.553   1.717 -32.872  1.00  0.00    -0.322 N 
HETATM    4  H   UNL     1     -10.387   2.532 -32.291  1.00  0.00     0.169 HD
HETATM    5  O   UNL     1      -9.882  -0.518 -33.027  1.00  0.00    -0.271 OA
BRANCH   3   6
HETATM    6  C   UNL     1     -11.530   1.824 -33.845  1.00  0.00     0.085 A 
HETATM    7  C   UNL     1     -11.496   2.831 -34.794  1.00  0.00     0.052 A 
HETATM    8  C   UNL     1     -10.551   3.945 -35.040  1.00  0.00     0.072 C 
HETATM    9  N   UNL     1     -12.588   2.633 -35.588  1.00  0.00    -0.280 N 
HETATM   10  H   UNL     1     -12.888   3.177 -36.390  1.00  0.00     0.189 HD
HETATM   11  N   UNL     1     -13.326   1.578 -35.240  1.00  0.00    -0.177 NA
HETATM   12  C   UNL     1     -12.691   1.063 -34.175  1.00  0.00     0.079 A 
HETATM   13  C   UNL     1     -13.263  -0.153 -33.546  1.00  0.00     0.075 C 
ENDBRANCH   3   6
ENDBRANCH   1   2
BRANCH   1  14
HETATM   14  N   UNL     1      -7.446   0.275 -31.879  1.00  0.00     0.101 N 
HETATM   15  H   UNL     1      -7.658  -0.693 -32.124  1.00  0.00     0.317 HD
BRANCH  14  16
HETATM   16  C   UNL     1      -6.778   0.939 -33.022  1.00  0.00     0.259 C 
BRANCH  16  17
HETATM   17  C   UNL     1      -6.455  -0.009 -34.224  1.00  0.00     0.015 C 
HETATM   18  C   UNL     1      -6.546  -1.507 -33.906  1.00  0.00     0.012 C 
HETATM   19  C   UNL     1      -7.325   0.299 -35.447  1.00  0.00     0.012 C 
ENDBRANCH  16  17
BRANCH  16  20
HETATM   20  C   UNL     1      -5.525   1.689 -32.561  1.00  0.00    -0.003 A 
HETATM   21  C   UNL     1      -5.222   2.988 -33.016  1.00  0.00     0.042 A 
HETATM   22 CL   UNL     1      -6.254   3.855 -34.102  1.00  0.00    -0.084 Cl
HETATM   23  C   UNL     1      -4.050   3.638 -32.608  1.00  0.00     0.024 A 
HETATM   24  C   UNL     1      -3.156   3.005 -31.748  1.00  0.00     0.002 A 
HETATM   25  C   UNL     1      -3.430   1.722 -31.291  1.00  0.00     0.001 A 
HETATM   26  C   UNL     1      -4.601   1.072 -31.691  1.00  0.00     0.011 A 
ENDBRANCH  16  20
ENDBRANCH  14  16
ENDBRANCH   1  14
TORSDOF 6
ENDMDL
MODEL 5
REMARK VINA RESULT:      -7.5      4.066      6.617
REMARK  6 active torsions:
REMARK  status: ('A' for Active; 'I' for Inactive)
REMARK    1  A    between atoms: C_8  and  N_9 
REMARK       I    between atoms: N_9  and  C_10 
REMARK    2  A    between atoms: C_10  and  C_11 
REMARK    3  A    between atoms: C_11  and  N_12 
REMARK    4  A    between atoms: N_12  and  C_13 
REMARK    5  A    between atoms: C_13  and  C_14 
REMARK    6  A    between atoms: C_13  and  C_17 
ROOT
HETATM    1  C   UNL     1      -6.550   2.014 -34.525  1.00  0.00     0.372 C 
ENDROOT
BRANCH   1   2
HETATM    2  C   UNL     1      -7.915   2.372 -33.927  1.00  0.00     0.250 C 
HETATM    3  N   UNL     1      -8.945   1.744 -34.596  1.00  0.00    -0.322 N 
HETATM    4  H   UNL     1      -8.674   1.264 -35.448  1.00  0.00     0.169 HD
HETATM    5  O   UNL     1      -7.998   3.101 -32.944  1.00  0.00    -0.271 OA
BRANCH   3   6
HETATM    6  C   UNL     1     -10.289   1.733 -34.267  1.00  0.00     0.085 A 
HETATM    7  C   UNL     1     -10.811   0.795 -33.394  1.00  0.00     0.052 A 
HETATM    8  C   UNL     1     -10.198  -0.325 -32.642  1.00  0.00     0.072 C 
HETATM    9  N   UNL     1     -12.142   1.079 -33.292  1.00  0.00    -0.280 N 
HETATM   10  H   UNL     1     -12.845   0.602 -32.737  1.00  0.00     0.189 HD
HETATM   11  N   UNL     1     -12.529   2.128 -34.020  1.00  0.00    -0.177 NA
HETATM   12  C   UNL     1     -11.405   2.548 -34.622  1.00  0.00     0.079 A 
HETATM   13  C   UNL     1     -11.495   3.732 -35.513  1.00  0.00     0.075 C 
ENDBRANCH   3   6
ENDBRANCH   1   2
BRANCH   1  14
HETATM   14  N   UNL     1      -5.627   1.587 -33.455  1.00  0.00     0.101 N 
HETATM   15  H   UNL     1      -5.477   2.381 -32.831  1.00  0.00     0.317 HD
BRANCH  14  16
HETATM   16  C   UNL     1      -6.169   0.445 -32.682  1.00  0.00     0.259 C 
BRANCH  16  17
HETATM   17  C   UNL     1      -5.673   0.372 -31.201  1.00  0.00     0.015 C 
HETATM   18  C   UNL     1      -5.092   1.680 -30.649  1.00  0.00     0.012 C 
HETATM   19  C   UNL     1      -6.768  -0.130 -30.253  1.00  0.00     0.012 C 
ENDBRANCH  16  17
BRANCH  16  20
HETATM   20  C   UNL     1      -5.917  -0.877 -33.413  1.00  0.00    -0.003 A 
HETATM   21  C   UNL     1      -4.616  -1.365 -33.648  1.00  0.00     0.042 A 
HETATM   22 CL   UNL     1      -3.201  -0.533 -33.101  1.00  0.00    -0.084 Cl
HETATM   23  C   UNL     1      -4.412  -2.558 -34.353  1.00  0.00     0.024 A 
HETATM   24  C   UNL     1      -5.496  -3.281 -34.843  1.00  0.00     0.002 A 
HETATM   25  C   UNL     1      -6.788  -2.817 -34.629  1.00  0.00     0.001 A 
HETATM   26  C   UNL     1      -6.996  -1.630 -33.922  1.00  0.00     0.011 A 
ENDBRANCH  16  20
ENDBRANCH  14  16
ENDBRANCH   1  14
TORSDOF 6
ENDMDL
MODEL 6
REMARK VINA RESULT:      -7.5      4.797      7.339
REMARK  6 active torsions:
REMARK  status: ('A' for Active; 'I' for Inactive)
REMARK    1  A    between atoms: C_8  and  N_9 
REMARK       I    between atoms: N_9  and  C_10 
REMARK    2  A    between atoms: C_10  and  C_11 
REMARK    3  A    between atoms: C_11  and  N_12 
REMARK    4  A    between atoms: N_12  and  C_13 
REMARK    5  A    between atoms: C_13  and  C_14 
REMARK    6  A    between atoms: C_13  and  C_17 
ROOT
HETATM    1  C   UNL     1      -8.580   0.843 -31.715  1.00  0.00     0.372 C 
ENDROOT
BRANCH   1   2
HETATM    2  C   UNL     1      -9.741   1.691 -32.246  1.00  0.00     0.250 C 
HETATM    3  N   UNL     1     -10.316   1.125 -33.365  1.00  0.00    -0.322 N 
HETATM    4  H   UNL     1      -9.815   0.330 -33.749  1.00  0.00     0.169 HD
HETATM    5  O   UNL     1     -10.087   2.715 -31.666  1.00  0.00    -0.271 OA
BRANCH   3   6
HETATM    6  C   UNL     1     -11.452   1.539 -34.038  1.00  0.00     0.085 A 
HETATM    7  C   UNL     1     -11.467   2.710 -34.775  1.00  0.00     0.052 A 
HETATM    8  C   UNL     1     -10.436   3.739 -35.044  1.00  0.00     0.072 C 
HETATM    9  N   UNL     1     -12.723   2.803 -35.301  1.00  0.00    -0.280 N 
HETATM   10  H   UNL     1     -13.100   3.531 -35.899  1.00  0.00     0.189 HD
HETATM   11  N   UNL     1     -13.524   1.787 -34.975  1.00  0.00    -0.177 NA
HETATM   12  C   UNL     1     -12.761   0.996 -34.204  1.00  0.00     0.079 A 
HETATM   13  C   UNL     1     -13.366  -0.252 -33.676  1.00  0.00     0.075 C 
ENDBRANCH   3   6
ENDBRANCH   1   2
BRANCH   1  14
HETATM   14  N   UNL     1      -7.980   0.062 -32.815  1.00  0.00     0.101 N 
HETATM   15  H   UNL     1      -8.290   0.470 -33.698  1.00  0.00     0.317 HD
BRANCH  14  16
HETATM   16  C   UNL     1      -6.500   0.076 -32.757  1.00  0.00     0.259 C 
BRANCH  16  17
HETATM   17  C   UNL     1      -5.838   1.337 -33.404  1.00  0.00     0.015 C 
HETATM   18  C   UNL     1      -6.717   2.078 -34.420  1.00  0.00     0.012 C 
HETATM   19  C   UNL     1      -5.345   2.332 -32.347  1.00  0.00     0.012 C 
ENDBRANCH  16  17
BRANCH  16  20
HETATM   20  C   UNL     1      -5.919  -1.213 -33.345  1.00  0.00    -0.003 A 
HETATM   21  C   UNL     1      -4.647  -1.695 -32.977  1.00  0.00     0.042 A 
HETATM   22 CL   UNL     1      -3.654  -0.894 -31.807  1.00  0.00    -0.084 Cl
HETATM   23  C   UNL     1      -4.122  -2.856 -33.558  1.00  0.00     0.024 A 
HETATM   24  C   UNL     1      -4.849  -3.554 -34.520  1.00  0.00     0.002 A 
HETATM   25  C   UNL     1      -6.103  -3.094 -34.903  1.00  0.00     0.001 A 
HETATM   26  C   UNL     1      -6.632  -1.938 -34.322  1.00  0.00     0.011 A 
ENDBRANCH  16  20
ENDBRANCH  14  16
ENDBRANCH   1  14
TORSDOF 6
ENDMDL
MODEL 7
REMARK VINA RESULT:      -7.5      1.162      1.261
REMARK  6 active torsions:
REMARK  status: ('A' for Active; 'I' for Inactive)
REMARK    1  A    between atoms: C_8  and  N_9 
REMARK       I    between atoms: N_9  and  C_10 
REMARK    2  A    between atoms: C_10  and  C_11 
REMARK    3  A    between atoms: C_11  and  N_12 
REMARK    4  A    between atoms: N_12  and  C_13 
REMARK    5  A    between atoms: C_13  and  C_14 
REMARK    6  A    between atoms: C_13  and  C_17 
ROOT
HETATM    1  C   UNL     1      -4.088   2.844 -31.382  1.00  0.00     0.372 C 
ENDROOT
BRANCH   1   2
HETATM    2  C   UNL     1      -2.985   3.873 -31.653  1.00  0.00     0.250 C 
HETATM    3  N   UNL     1      -3.455   4.941 -32.390  1.00  0.00    -0.322 N 
HETATM    4  H   UNL     1      -4.395   4.828 -32.757  1.00  0.00     0.169 HD
HETATM    5  O   UNL     1      -1.857   3.719 -31.200  1.00  0.00    -0.271 OA
BRANCH   3   6
HETATM    6  C   UNL     1      -2.786   6.107 -32.718  1.00  0.00     0.085 A 
HETATM    7  C   UNL     1      -1.977   6.184 -33.838  1.00  0.00     0.052 A 
HETATM    8  C   UNL     1      -1.622   5.201 -34.887  1.00  0.00     0.072 C 
HETATM    9  N   UNL     1      -1.491   7.459 -33.860  1.00  0.00    -0.280 N 
HETATM   10  H   UNL     1      -0.865   7.880 -34.538  1.00  0.00     0.189 HD
HETATM   11  N   UNL     1      -1.921   8.221 -32.852  1.00  0.00    -0.177 NA
HETATM   12  C   UNL     1      -2.723   7.411 -32.142  1.00  0.00     0.079 A 
HETATM   13  C   UNL     1      -3.383   7.970 -30.936  1.00  0.00     0.075 C 
ENDBRANCH   3   6
ENDBRANCH   1   2
BRANCH   1  14
HETATM   14  N   UNL     1      -4.090   1.815 -32.440  1.00  0.00     0.101 N 
HETATM   15  H   UNL     1      -3.484   1.050 -32.139  1.00  0.00     0.317 HD
BRANCH  14  16
HETATM   16  C   UNL     1      -5.453   1.294 -32.698  1.00  0.00     0.259 C 
BRANCH  16  17
HETATM   17  C   UNL     1      -6.383   1.262 -31.441  1.00  0.00     0.015 C 
HETATM   18  C   UNL     1      -7.793   1.824 -31.668  1.00  0.00     0.012 C 
HETATM   19  C   UNL     1      -6.493  -0.145 -30.844  1.00  0.00     0.012 C 
ENDBRANCH  16  17
BRANCH  16  20
HETATM   20  C   UNL     1      -5.392  -0.080 -33.373  1.00  0.00    -0.003 A 
HETATM   21  C   UNL     1      -6.343  -0.484 -34.332  1.00  0.00     0.042 A 
HETATM   22 CL   UNL     1      -7.631   0.548 -34.852  1.00  0.00    -0.084 Cl
HETATM   23  C   UNL     1      -6.287  -1.760 -34.906  1.00  0.00     0.024 A 
HETATM   24  C   UNL     1      -5.292  -2.659 -34.531  1.00  0.00     0.002 A 
HETATM   25  C   UNL     1      -4.348  -2.286 -33.582  1.00  0.00     0.001 A 
HETATM   26  C   UNL     1      -4.397  -1.012 -33.011  1.00  0.00     0.011 A 
ENDBRANCH  16  20
ENDBRANCH  14  16
ENDBRANCH   1  14
TORSDOF 6
ENDMDL
MODEL 8
REMARK VINA RESULT:      -7.3      1.372      2.450
REMARK  6 active torsions:
REMARK  status: ('A' for Active; 'I' for Inactive)
REMARK    1  A    between atoms: C_8  and  N_9 
REMARK       I    between atoms: N_9  and  C_10 
REMARK    2  A    between atoms: C_10  and  C_11 
REMARK    3  A    between atoms: C_11  and  N_12 
REMARK    4  A    between atoms: N_12  and  C_13 
REMARK    5  A    between atoms: C_13  and  C_14 
REMARK    6  A    between atoms: C_13  and  C_17 
ROOT
HETATM    1  C   UNL     1      -3.480   2.344 -31.388  1.00  0.00     0.372 C 
ENDROOT
BRANCH   1   2
HETATM    2  C   UNL     1      -3.339   3.853 -31.621  1.00  0.00     0.250 C 
HETATM    3  N   UNL     1      -2.376   4.134 -32.568  1.00  0.00    -0.322 N 
HETATM    4  H   UNL     1      -1.817   3.340 -32.861  1.00  0.00     0.169 HD
HETATM    5  O   UNL     1      -4.061   4.649 -31.031  1.00  0.00    -0.271 OA
BRANCH   3   6
HETATM    6  C   UNL     1      -2.062   5.364 -33.119  1.00  0.00     0.085 A 
HETATM    7  C   UNL     1      -2.688   5.823 -34.264  1.00  0.00     0.052 A 
HETATM    8  C   UNL     1      -3.736   5.242 -35.135  1.00  0.00     0.072 C 
HETATM    9  N   UNL     1      -2.150   7.052 -34.517  1.00  0.00    -0.280 N 
HETATM   10  H   UNL     1      -2.369   7.688 -35.277  1.00  0.00     0.189 HD
HETATM   11  N   UNL     1      -1.232   7.434 -33.629  1.00  0.00    -0.177 NA
HETATM   12  C   UNL     1      -1.166   6.414 -32.758  1.00  0.00     0.079 A 
HETATM   13  C   UNL     1      -0.225   6.535 -31.616  1.00  0.00     0.075 C 
ENDBRANCH   3   6
ENDBRANCH   1   2
BRANCH   1  14
HETATM   14  N   UNL     1      -3.795   1.664 -32.659  1.00  0.00     0.101 N 
HETATM   15  H   UNL     1      -2.920   1.508 -33.160  1.00  0.00     0.317 HD
BRANCH  14  16
HETATM   16  C   UNL     1      -4.474   0.366 -32.435  1.00  0.00     0.259 C 
BRANCH  16  17
HETATM   17  C   UNL     1      -3.677  -0.879 -32.946  1.00  0.00     0.015 C 
HETATM   18  C   UNL     1      -2.667  -1.454 -31.943  1.00  0.00     0.012 C 
HETATM   19  C   UNL     1      -4.607  -2.001 -33.421  1.00  0.00     0.012 C 
ENDBRANCH  16  17
BRANCH  16  20
HETATM   20  C   UNL     1      -5.892   0.386 -33.013  1.00  0.00    -0.003 A 
HETATM   21  C   UNL     1      -7.031   0.199 -32.204  1.00  0.00     0.042 A 
HETATM   22 CL   UNL     1      -6.926  -0.032 -30.493  1.00  0.00    -0.084 Cl
HETATM   23  C   UNL     1      -8.315   0.183 -32.764  1.00  0.00     0.024 A 
HETATM   24  C   UNL     1      -8.489   0.345 -34.136  1.00  0.00     0.002 A 
HETATM   25  C   UNL     1      -7.380   0.525 -34.954  1.00  0.00     0.001 A 
HETATM   26  C   UNL     1      -6.098   0.547 -34.400  1.00  0.00     0.011 A 
ENDBRANCH  16  20
ENDBRANCH  14  16
ENDBRANCH   1  14
TORSDOF 6
ENDMDL
MODEL 9
REMARK VINA RESULT:      -7.2      4.238      7.010
REMARK  6 active torsions:
REMARK  status: ('A' for Active; 'I' for Inactive)
REMARK    1  A    between atoms: C_8  and  N_9 
REMARK       I    between atoms: N_9  and  C_10 
REMARK    2  A    between atoms: C_10  and  C_11 
REMARK    3  A    between atoms: C_11  and  N_12 
REMARK    4  A    between atoms: N_12  and  C_13 
REMARK    5  A    between atoms: C_13  and  C_14 
REMARK    6  A    between atoms: C_13  and  C_17 
ROOT
HETATM    1  C   UNL     1      -7.818   3.912 -31.586  1.00  0.00     0.372 C 
ENDROOT
BRANCH   1   2
HETATM    2  C   UNL     1      -9.196   3.243 -31.538  1.00  0.00     0.250 C 
HETATM    3  N   UNL     1      -9.651   2.923 -32.801  1.00  0.00    -0.322 N 
HETATM    4  H   UNL     1      -9.094   3.293 -33.564  1.00  0.00     0.169 HD
HETATM    5  O   UNL     1      -9.744   3.011 -30.466  1.00  0.00    -0.271 OA
BRANCH   3   6
HETATM    6  C   UNL     1     -10.786   2.207 -33.138  1.00  0.00     0.085 A 
HETATM    7  C   UNL     1     -10.808   0.824 -33.090  1.00  0.00     0.052 A 
HETATM    8  C   UNL     1      -9.787  -0.182 -32.719  1.00  0.00     0.072 C 
HETATM    9  N   UNL     1     -12.066   0.458 -33.472  1.00  0.00    -0.280 N 
HETATM   10  H   UNL     1     -12.449  -0.479 -33.553  1.00  0.00     0.189 HD
HETATM   11  N   UNL     1     -12.867   1.486 -33.756  1.00  0.00    -0.177 NA
HETATM   12  C   UNL     1     -12.102   2.570 -33.552  1.00  0.00     0.079 A 
HETATM   13  C   UNL     1     -12.714   3.904 -33.774  1.00  0.00     0.075 C 
ENDBRANCH   3   6
ENDBRANCH   1   2
BRANCH   1  14
HETATM   14  N   UNL     1      -7.086   3.477 -32.791  1.00  0.00     0.101 N 
HETATM   15  H   UNL     1      -6.619   4.292 -33.189  1.00  0.00     0.317 HD
BRANCH  14  16
HETATM   16  C   UNL     1      -6.081   2.434 -32.479  1.00  0.00     0.259 C 
BRANCH  16  17
HETATM   17  C   UNL     1      -4.596   2.897 -32.641  1.00  0.00     0.015 C 
HETATM   18  C   UNL     1      -4.407   4.192 -33.441  1.00  0.00     0.012 C 
HETATM   19  C   UNL     1      -3.887   3.035 -31.288  1.00  0.00     0.012 C 
ENDBRANCH  16  17
BRANCH  16  20
HETATM   20  C   UNL     1      -6.350   1.158 -33.282  1.00  0.00    -0.003 A 
HETATM   21  C   UNL     1      -6.026  -0.120 -32.785  1.00  0.00     0.042 A 
HETATM   22 CL   UNL     1      -5.331  -0.357 -31.217  1.00  0.00    -0.084 Cl
HETATM   23  C   UNL     1      -6.248  -1.268 -33.555  1.00  0.00     0.024 A 
HETATM   24  C   UNL     1      -6.788  -1.165 -34.835  1.00  0.00     0.002 A 
HETATM   25  C   UNL     1      -7.110   0.085 -35.348  1.00  0.00     0.001 A 
HETATM   26  C   UNL     1      -6.895   1.233 -34.581  1.00  0.00     0.011 A 
ENDBRANCH  16  20
ENDBRANCH  14  16
ENDBRANCH   1  14
TORSDOF 6
ENDMDL
MODEL 10
REMARK VINA RESULT:      -7.2      5.097      8.081
REMARK  6 active torsions:
REMARK  status: ('A' for Active; 'I' for Inactive)
REMARK    1  A    between atoms: C_8  and  N_9 
REMARK       I    between atoms: N_9  and  C_10 
REMARK    2  A    between atoms: C_10  and  C_11 
REMARK    3  A    between atoms: C_11  and  N_12 
REMARK    4  A    between atoms: N_12  and  C_13 
REMARK    5  A    between atoms: C_13  and  C_14 
REMARK    6  A    between atoms: C_13  and  C_17 
ROOT
HETATM    1  C   UNL     1      -8.465   0.844 -34.513  1.00  0.00     0.372 C 
ENDROOT
BRANCH   1   2
HETATM    2  C   UNL     1      -9.722   1.366 -33.808  1.00  0.00     0.250 C 
HETATM    3  N   UNL     1     -10.807   1.401 -34.660  1.00  0.00    -0.322 N 
HETATM    4  H   UNL     1     -10.592   1.219 -35.635  1.00  0.00     0.169 HD
HETATM    5  O   UNL     1      -9.698   1.656 -32.617  1.00  0.00    -0.271 OA
BRANCH   3   6
HETATM    6  C   UNL     1     -12.122   1.696 -34.348  1.00  0.00     0.085 A 
HETATM    7  C   UNL     1     -12.621   2.981 -34.468  1.00  0.00     0.052 A 
HETATM    8  C   UNL     1     -12.010   4.257 -34.905  1.00  0.00     0.072 C 
HETATM    9  N   UNL     1     -13.931   2.909 -34.092  1.00  0.00    -0.280 N 
HETATM   10  H   UNL     1     -14.616   3.658 -34.056  1.00  0.00     0.189 HD
HETATM   11  N   UNL     1     -14.329   1.684 -33.744  1.00  0.00    -0.177 NA
HETATM   12  C   UNL     1     -13.234   0.922 -33.899  1.00  0.00     0.079 A 
HETATM   13  C   UNL     1     -13.347  -0.527 -33.599  1.00  0.00     0.075 C 
ENDBRANCH   3   6
ENDBRANCH   1   2
BRANCH   1  14
HETATM   14  N   UNL     1      -7.957  -0.355 -33.819  1.00  0.00     0.101 N 
HETATM   15  H   UNL     1      -8.143  -1.166 -34.411  1.00  0.00     0.317 HD
BRANCH  14  16
HETATM   16  C   UNL     1      -6.503  -0.262 -33.550  1.00  0.00     0.259 C 
BRANCH  16  17
HETATM   17  C   UNL     1      -5.747  -1.631 -33.596  1.00  0.00     0.015 C 
HETATM   18  C   UNL     1      -6.303  -2.642 -34.608  1.00  0.00     0.012 C 
HETATM   19  C   UNL     1      -4.245  -1.449 -33.841  1.00  0.00     0.012 C 
ENDBRANCH  16  17
BRANCH  16  20
HETATM   20  C   UNL     1      -6.238   0.469 -32.232  1.00  0.00    -0.003 A 
HETATM   21  C   UNL     1      -5.831   1.818 -32.194  1.00  0.00     0.042 A 
HETATM   22 CL   UNL     1      -5.633   2.767 -33.628  1.00  0.00    -0.084 Cl
HETATM   23  C   UNL     1      -5.558   2.453 -30.976  1.00  0.00     0.024 A 
HETATM   24  C   UNL     1      -5.676   1.757 -29.776  1.00  0.00     0.002 A 
HETATM   25  C   UNL     1      -6.070   0.425 -29.788  1.00  0.00     0.001 A 
HETATM   26  C   UNL     1      -6.348  -0.211 -31.001  1.00  0.00     0.011 A 
ENDBRANCH  16  20
ENDBRANCH  14  16
ENDBRANCH   1  14
TORSDOF 6
ENDMDL
