MODEL 1
REMARK VINA RESULT:      -7.5      0.000      0.000
REMARK  4 active torsions:
REMARK  status: ('A' for Active; 'I' for Inactive)
REMARK    1  A    between atoms: C_2  and  N_3 
REMARK       I    between atoms: N_3  and  C_4 
REMARK    2  A    between atoms: C_4  and  C_5 
REMARK    3  A    between atoms: C_5  and  N_6 
REMARK    4  A    between atoms: N_6  and  C_7 
ROOT
HETATM    1  C   UNL     1      -5.130   0.611 -32.702  1.00  0.00     0.022 A 
HETATM    2  C   UNL     1      -5.357  -0.647 -33.341  1.00  0.00     0.012 A 
HETATM    3  C   UNL     1      -6.695  -1.048 -33.607  1.00  0.00     0.045 A 
HETATM    4  C   UNL     1      -6.981  -2.248 -34.274  1.00  0.00     0.054 A 
HETATM    5  C   UNL     1      -5.942  -3.080 -34.678  1.00  0.00     0.036 A 
HETATM    6 CL   UNL     1      -6.299  -4.544 -35.501  1.00  0.00    -0.084 Cl
HETATM    7  C   UNL     1      -4.624  -2.735 -34.413  1.00  0.00     0.025 A 
HETATM    8  C   UNL     1      -4.334  -1.537 -33.751  1.00  0.00     0.017 A 
HETATM    9  N   UNL     1      -7.710  -0.260 -33.207  1.00  0.00    -0.365 N 
HETATM   10  H   UNL     1      -8.667  -0.559 -33.396  1.00  0.00     0.165 HD
HETATM   11  C   UNL     1      -7.527   0.889 -32.550  1.00  0.00     0.090 A 
HETATM   12  C   UNL     1      -6.247   1.340 -32.276  1.00  0.00     0.041 A 
ENDROOT
BRANCH   1  13
HETATM   13  N   UNL     1      -3.822   1.031 -32.386  1.00  0.00    -0.283 NA
HETATM   14  H   UNL     1      -3.283   1.270 -33.216  1.00  0.00     0.128 HD
BRANCH  13  15
HETATM   15  C   UNL     1      -3.636   2.110 -31.380  1.00  0.00     0.195 C 
BRANCH  15  16
HETATM   16  C   UNL     1      -2.949   3.352 -31.953  1.00  0.00     0.231 C 
HETATM   17  N   UNL     1      -3.513   3.814 -33.121  1.00  0.00    -0.352 N 
HETATM   18  H   UNL     1      -4.235   3.224 -33.523  1.00  0.00     0.163 HD
HETATM   19  O   UNL     1      -1.997   3.875 -31.381  1.00  0.00    -0.272 OA
BRANCH  17  20
HETATM   20  C   UNL     1      -3.133   5.051 -33.821  1.00  0.00     0.022 C 
HETATM   21  C   UNL     1      -1.645   5.038 -34.204  1.00  0.00     0.037 C 
HETATM   22  C   UNL     1      -3.442   6.279 -32.949  1.00  0.00     0.037 C 
HETATM   23  C   UNL     1      -3.966   5.147 -35.111  1.00  0.00     0.037 C 
ENDBRANCH  17  20
ENDBRANCH  15  16
ENDBRANCH  13  15
ENDBRANCH   1  13
TORSDOF 4
ENDMDL
MODEL 2
REMARK VINA RESULT:      -7.3      1.338      1.896
REMARK  4 active torsions:
REMARK  status: ('A' for Active; 'I' for Inactive)
REMARK    1  A    between atoms: C_2  and  N_3 
REMARK       I    between atoms: N_3  and  C_4 
REMARK    2  A    between atoms: C_4  and  C_5 
REMARK    3  A    between atoms: C_5  and  N_6 
REMARK    4  A    between atoms: N_6  and  C_7 
ROOT
HETATM    1  C   UNL     1      -5.182   0.563 -32.763  1.00  0.00     0.022 A 
HETATM    2  C   UNL     1      -5.377  -0.701 -33.400  1.00  0.00     0.012 A 
HETATM    3  C   UNL     1      -6.703  -1.129 -33.679  1.00  0.00     0.045 A 
HETATM    4  C   UNL     1      -6.958  -2.339 -34.344  1.00  0.00     0.054 A 
HETATM    5  C   UNL     1      -5.898  -3.152 -34.731  1.00  0.00     0.036 A 
HETATM    6 CL   UNL     1      -6.216  -4.626 -35.551  1.00  0.00    -0.084 Cl
HETATM    7  C   UNL     1      -4.590  -2.779 -34.453  1.00  0.00     0.025 A 
HETATM    8  C   UNL     1      -4.332  -1.573 -33.793  1.00  0.00     0.017 A 
HETATM    9  N   UNL     1      -7.738  -0.360 -33.294  1.00  0.00    -0.365 N 
HETATM   10  H   UNL     1      -8.687  -0.679 -33.494  1.00  0.00     0.165 HD
HETATM   11  C   UNL     1      -7.586   0.795 -32.641  1.00  0.00     0.090 A 
HETATM   12  C   UNL     1      -6.318   1.273 -32.355  1.00  0.00     0.041 A 
ENDROOT
BRANCH   1  13
HETATM   13  N   UNL     1      -3.886   1.011 -32.434  1.00  0.00    -0.283 NA
HETATM   14  H   UNL     1      -3.385   1.370 -33.244  1.00  0.00     0.128 HD
BRANCH  13  15
HETATM   15  C   UNL     1      -3.721   1.976 -31.316  1.00  0.00     0.195 C 
BRANCH  15  16
HETATM   16  C   UNL     1      -3.320   3.377 -31.786  1.00  0.00     0.231 C 
HETATM   17  N   UNL     1      -2.243   3.906 -31.112  1.00  0.00    -0.352 N 
HETATM   18  H   UNL     1      -1.914   3.365 -30.318  1.00  0.00     0.163 HD
HETATM   19  O   UNL     1      -3.916   3.936 -32.701  1.00  0.00    -0.272 OA
BRANCH  17  20
HETATM   20  C   UNL     1      -1.575   5.176 -31.434  1.00  0.00     0.022 C 
HETATM   21  C   UNL     1      -2.470   6.377 -31.092  1.00  0.00     0.037 C 
HETATM   22  C   UNL     1      -1.185   5.216 -32.921  1.00  0.00     0.037 C 
HETATM   23  C   UNL     1      -0.292   5.271 -30.590  1.00  0.00     0.037 C 
ENDBRANCH  17  20
ENDBRANCH  15  16
ENDBRANCH  13  15
ENDBRANCH   1  13
TORSDOF 4
ENDMDL
MODEL 3
REMARK VINA RESULT:      -7.1      1.449      2.358
REMARK  4 active torsions:
REMARK  status: ('A' for Active; 'I' for Inactive)
REMARK    1  A    between atoms: C_2  and  N_3 
REMARK       I    between atoms: N_3  and  C_4 
REMARK    2  A    between atoms: C_4  and  C_5 
REMARK    3  A    between atoms: C_5  and  N_6 
REMARK    4  A    between atoms: N_6  and  C_7 
ROOT
HETATM    1  C   UNL     1      -4.804   0.383 -32.165  1.00  0.00     0.022 A 
HETATM    2  C   UNL     1      -5.169  -0.699 -33.024  1.00  0.00     0.012 A 
HETATM    3  C   UNL     1      -4.307  -1.826 -33.110  1.00  0.00     0.045 A 
HETATM    4  C   UNL     1      -4.632  -2.939 -33.899  1.00  0.00     0.054 A 
HETATM    5  C   UNL     1      -5.816  -2.947 -34.630  1.00  0.00     0.036 A 
HETATM    6 CL   UNL     1      -6.212  -4.316 -35.587  1.00  0.00    -0.084 Cl
HETATM    7  C   UNL     1      -6.671  -1.854 -34.591  1.00  0.00     0.025 A 
HETATM    8  C   UNL     1      -6.351  -0.743 -33.804  1.00  0.00     0.017 A 
HETATM    9  N   UNL     1      -3.150  -1.824 -32.421  1.00  0.00    -0.365 N 
HETATM   10  H   UNL     1      -2.535  -2.634 -32.494  1.00  0.00     0.165 HD
HETATM   11  C   UNL     1      -2.755  -0.798 -31.661  1.00  0.00     0.090 A 
HETATM   12  C   UNL     1      -3.560   0.320 -31.526  1.00  0.00     0.041 A 
ENDROOT
BRANCH   1  13
HETATM   13  N   UNL     1      -5.611   1.536 -32.078  1.00  0.00    -0.283 NA
HETATM   14  H   UNL     1      -5.625   1.926 -31.137  1.00  0.00     0.128 HD
BRANCH  13  15
HETATM   15  C   UNL     1      -5.387   2.645 -33.041  1.00  0.00     0.195 C 
BRANCH  15  16
HETATM   16  C   UNL     1      -4.386   3.687 -32.534  1.00  0.00     0.231 C 
HETATM   17  N   UNL     1      -3.461   4.078 -33.476  1.00  0.00    -0.352 N 
HETATM   18  H   UNL     1      -3.476   3.558 -34.348  1.00  0.00     0.163 HD
HETATM   19  O   UNL     1      -4.449   4.128 -31.391  1.00  0.00    -0.272 OA
BRANCH  17  20
HETATM   20  C   UNL     1      -2.464   5.145 -33.301  1.00  0.00     0.022 C 
HETATM   21  C   UNL     1      -1.478   4.804 -32.173  1.00  0.00     0.037 C 
HETATM   22  C   UNL     1      -3.157   6.486 -33.007  1.00  0.00     0.037 C 
HETATM   23  C   UNL     1      -1.672   5.283 -34.613  1.00  0.00     0.037 C 
ENDBRANCH  17  20
ENDBRANCH  15  16
ENDBRANCH  13  15
ENDBRANCH   1  13
TORSDOF 4
ENDMDL
MODEL 4
REMARK VINA RESULT:      -7.1      3.978      6.521
REMARK  4 active torsions:
REMARK  status: ('A' for Active; 'I' for Inactive)
REMARK    1  A    between atoms: C_2  and  N_3 
REMARK       I    between atoms: N_3  and  C_4 
REMARK    2  A    between atoms: C_4  and  C_5 
REMARK    3  A    between atoms: C_5  and  N_6 
REMARK    4  A    between atoms: N_6  and  C_7 
ROOT
HETATM    1  C   UNL     1      -7.851   0.827 -31.499  1.00  0.00     0.022 A 
HETATM    2  C   UNL     1      -7.169  -0.062 -32.386  1.00  0.00     0.012 A 
HETATM    3  C   UNL     1      -5.787  -0.318 -32.169  1.00  0.00     0.045 A 
HETATM    4  C   UNL     1      -5.074  -1.216 -32.976  1.00  0.00     0.054 A 
HETATM    5  C   UNL     1      -5.717  -1.867 -34.024  1.00  0.00     0.036 A 
HETATM    6 CL   UNL     1      -4.839  -2.971 -35.002  1.00  0.00    -0.084 Cl
HETATM    7  C   UNL     1      -7.059  -1.623 -34.282  1.00  0.00     0.025 A 
HETATM    8  C   UNL     1      -7.775  -0.730 -33.478  1.00  0.00     0.017 A 
HETATM    9  N   UNL     1      -5.149   0.319 -31.170  1.00  0.00    -0.365 N 
HETATM   10  H   UNL     1      -4.156   0.134 -31.026  1.00  0.00     0.165 HD
HETATM   11  C   UNL     1      -5.748   1.203 -30.367  1.00  0.00     0.090 A 
HETATM   12  C   UNL     1      -7.096   1.482 -30.518  1.00  0.00     0.041 A 
ENDROOT
BRANCH   1  13
HETATM   13  N   UNL     1      -9.212   1.138 -31.698  1.00  0.00    -0.283 NA
HETATM   14  H   UNL     1      -9.791   0.857 -30.909  1.00  0.00     0.128 HD
BRANCH  13  15
HETATM   15  C   UNL     1      -9.584   2.525 -32.082  1.00  0.00     0.195 C 
BRANCH  15  16
HETATM   16  C   UNL     1     -10.860   2.592 -32.925  1.00  0.00     0.231 C 
HETATM   17  N   UNL     1     -11.495   1.380 -33.077  1.00  0.00    -0.352 N 
HETATM   18  H   UNL     1     -10.993   0.574 -32.714  1.00  0.00     0.163 HD
HETATM   19  O   UNL     1     -11.262   3.655 -33.388  1.00  0.00    -0.272 OA
BRANCH  17  20
HETATM   20  C   UNL     1     -12.795   1.174 -33.732  1.00  0.00     0.022 C 
HETATM   21  C   UNL     1     -12.725   1.523 -35.227  1.00  0.00     0.037 C 
HETATM   22  C   UNL     1     -13.883   2.015 -33.045  1.00  0.00     0.037 C 
HETATM   23  C   UNL     1     -13.170  -0.313 -33.597  1.00  0.00     0.037 C 
ENDBRANCH  17  20
ENDBRANCH  15  16
ENDBRANCH  13  15
ENDBRANCH   1  13
TORSDOF 4
ENDMDL
MODEL 5
REMARK VINA RESULT:      -6.8      3.297      4.731
REMARK  4 active torsions:
REMARK  status: ('A' for Active; 'I' for Inactive)
REMARK    1  A    between atoms: C_2  and  N_3 
REMARK       I    between atoms: N_3  and  C_4 
REMARK    2  A    between atoms: C_4  and  C_5 
REMARK    3  A    between atoms: C_5  and  N_6 
REMARK    4  A    between atoms: N_6  and  C_7 
ROOT
HETATM    1  C   UNL     1      -4.894   0.395 -32.458  1.00  0.00     0.022 A 
HETATM    2  C   UNL     1      -5.241  -0.741 -33.252  1.00  0.00     0.012 A 
HETATM    3  C   UNL     1      -4.405  -1.890 -33.206  1.00  0.00     0.045 A 
HETATM    4  C   UNL     1      -4.717  -3.053 -33.926  1.00  0.00     0.054 A 
HETATM    5  C   UNL     1      -5.861  -3.091 -34.717  1.00  0.00     0.036 A 
HETATM    6 CL   UNL     1      -6.241  -4.520 -35.589  1.00  0.00    -0.084 Cl
HETATM    7  C   UNL     1      -6.688  -1.980 -34.808  1.00  0.00     0.025 A 
HETATM    8  C   UNL     1      -6.381  -0.819 -34.089  1.00  0.00     0.017 A 
HETATM    9  N   UNL     1      -3.287  -1.860 -32.458  1.00  0.00    -0.365 N 
HETATM   10  H   UNL     1      -2.690  -2.687 -32.436  1.00  0.00     0.165 HD
HETATM   11  C   UNL     1      -2.906  -0.789 -31.756  1.00  0.00     0.090 A 
HETATM   12  C   UNL     1      -3.687   0.354 -31.749  1.00  0.00     0.041 A 
ENDROOT
BRANCH   1  13
HETATM   13  N   UNL     1      -5.674   1.568 -32.502  1.00  0.00    -0.283 NA
HETATM   14  H   UNL     1      -6.133   1.693 -33.402  1.00  0.00     0.128 HD
BRANCH  13  15
HETATM   15  C   UNL     1      -6.674   1.807 -31.429  1.00  0.00     0.195 C 
BRANCH  15  16
HETATM   16  C   UNL     1      -8.119   1.659 -31.912  1.00  0.00     0.231 C 
HETATM   17  N   UNL     1      -8.512   2.627 -32.808  1.00  0.00    -0.352 N 
HETATM   18  H   UNL     1      -7.847   3.381 -32.958  1.00  0.00     0.163 HD
HETATM   19  O   UNL     1      -8.827   0.733 -31.528  1.00  0.00    -0.272 OA
BRANCH  17  20
HETATM   20  C   UNL     1      -9.798   2.660 -33.520  1.00  0.00     0.022 C 
HETATM   21  C   UNL     1     -10.080   1.321 -34.218  1.00  0.00     0.037 C 
HETATM   22  C   UNL     1      -9.815   3.804 -34.547  1.00  0.00     0.037 C 
HETATM   23  C   UNL     1     -10.911   2.914 -32.488  1.00  0.00     0.037 C 
ENDBRANCH  17  20
ENDBRANCH  15  16
ENDBRANCH  13  15
ENDBRANCH   1  13
TORSDOF 4
ENDMDL
MODEL 6
REMARK VINA RESULT:      -6.8      3.677      5.878
REMARK  4 active torsions:
REMARK  status: ('A' for Active; 'I' for Inactive)
REMARK    1  A    between atoms: C_2  and  N_3 
REMARK       I    between atoms: N_3  and  C_4 
REMARK    2  A    between atoms: C_4  and  C_5 
REMARK    3  A    between atoms: C_5  and  N_6 
REMARK    4  A    between atoms: N_6  and  C_7 
ROOT
HETATM    1  C   UNL     1      -6.407   0.422 -33.839  1.00  0.00     0.022 A 
HETATM    2  C   UNL     1      -5.753  -0.844 -33.950  1.00  0.00     0.012 A 
HETATM    3  C   UNL     1      -4.533  -1.048 -33.249  1.00  0.00     0.045 A 
HETATM    4  C   UNL     1      -3.868  -2.283 -33.281  1.00  0.00     0.054 A 
HETATM    5  C   UNL     1      -4.397  -3.336 -34.021  1.00  0.00     0.036 A 
HETATM    6 CL   UNL     1      -3.582  -4.846 -34.048  1.00  0.00    -0.084 Cl
HETATM    7  C   UNL     1      -5.573  -3.166 -34.739  1.00  0.00     0.025 A 
HETATM    8  C   UNL     1      -6.241  -1.937 -34.708  1.00  0.00     0.017 A 
HETATM    9  N   UNL     1      -4.002  -0.033 -32.543  1.00  0.00    -0.365 N 
HETATM   10  H   UNL     1      -3.123  -0.187 -32.049  1.00  0.00     0.165 HD
HETATM   11  C   UNL     1      -4.560   1.179 -32.475  1.00  0.00     0.090 A 
HETATM   12  C   UNL     1      -5.757   1.434 -33.123  1.00  0.00     0.041 A 
ENDROOT
BRANCH   1  13
HETATM   13  N   UNL     1      -7.599   0.680 -34.546  1.00  0.00    -0.283 NA
HETATM   14  H   UNL     1      -8.295  -0.051 -34.410  1.00  0.00     0.128 HD
BRANCH  13  15
HETATM   15  C   UNL     1      -8.266   1.997 -34.375  1.00  0.00     0.195 C 
BRANCH  15  16
HETATM   16  C   UNL     1      -9.767   1.878 -34.096  1.00  0.00     0.231 C 
HETATM   17  N   UNL     1     -10.538   2.777 -34.799  1.00  0.00    -0.352 N 
HETATM   18  H   UNL     1     -10.025   3.478 -35.326  1.00  0.00     0.163 HD
HETATM   19  O   UNL     1     -10.207   1.031 -33.326  1.00  0.00    -0.272 OA
BRANCH  17  20
HETATM   20  C   UNL     1     -12.009   2.808 -34.815  1.00  0.00     0.022 C 
HETATM   21  C   UNL     1     -12.589   1.436 -35.190  1.00  0.00     0.037 C 
HETATM   22  C   UNL     1     -12.513   3.879 -35.796  1.00  0.00     0.037 C 
HETATM   23  C   UNL     1     -12.497   3.172 -33.402  1.00  0.00     0.037 C 
ENDBRANCH  17  20
ENDBRANCH  15  16
ENDBRANCH  13  15
ENDBRANCH   1  13
TORSDOF 4
ENDMDL
MODEL 7
REMARK VINA RESULT:      -6.7     15.004     16.211
REMARK  4 active torsions:
REMARK  status: ('A' for Active; 'I' for Inactive)
REMARK    1  A    between atoms: C_2  and  N_3 
REMARK       I    between atoms: N_3  and  C_4 
REMARK    2  A    between atoms: C_4  and  C_5 
REMARK    3  A    between atoms: C_5  and  N_6 
REMARK    4  A    between atoms: N_6  and  C_7 
ROOT
HETATM    1  C   UNL     1      -4.266 -12.522 -38.180  1.00  0.00     0.022 A 
HETATM    2  C   UNL     1      -5.577 -12.509 -38.749  1.00  0.00     0.012 A 
HETATM    3  C   UNL     1      -6.679 -12.889 -37.936  1.00  0.00     0.045 A 
HETATM    4  C   UNL     1      -7.995 -12.853 -38.423  1.00  0.00     0.054 A 
HETATM    5  C   UNL     1      -8.238 -12.450 -39.732  1.00  0.00     0.036 A 
HETATM    6 CL   UNL     1      -9.851 -12.400 -40.318  1.00  0.00    -0.084 Cl
HETATM    7  C   UNL     1      -7.184 -12.096 -40.563  1.00  0.00     0.025 A 
HETATM    8  C   UNL     1      -5.871 -12.128 -40.082  1.00  0.00     0.017 A 
HETATM    9  N   UNL     1      -6.456 -13.297 -36.673  1.00  0.00    -0.365 N 
HETATM   10  H   UNL     1      -7.254 -13.574 -36.100  1.00  0.00     0.165 HD
HETATM   11  C   UNL     1      -5.235 -13.379 -36.137  1.00  0.00     0.090 A 
HETATM   12  C   UNL     1      -4.124 -13.007 -36.874  1.00  0.00     0.041 A 
ENDROOT
BRANCH   1  13
HETATM   13  N   UNL     1      -3.140 -12.188 -38.960  1.00  0.00    -0.283 NA
HETATM   14  H   UNL     1      -3.244 -11.286 -39.422  1.00  0.00     0.128 HD
BRANCH  13  15
HETATM   15  C   UNL     1      -1.792 -12.241 -38.336  1.00  0.00     0.195 C 
BRANCH  15  16
HETATM   16  C   UNL     1      -0.917 -13.366 -38.894  1.00  0.00     0.231 C 
HETATM   17  N   UNL     1      -0.292 -14.120 -37.926  1.00  0.00    -0.352 N 
HETATM   18  H   UNL     1      -0.390 -13.780 -36.974  1.00  0.00     0.163 HD
HETATM   19  O   UNL     1      -0.823 -13.562 -40.102  1.00  0.00    -0.272 OA
BRANCH  17  20
HETATM   20  C   UNL     1       0.507 -15.330 -38.171  1.00  0.00     0.022 C 
HETATM   21  C   UNL     1       0.881 -16.025 -36.853  1.00  0.00     0.037 C 
HETATM   22  C   UNL     1       1.779 -14.984 -38.963  1.00  0.00     0.037 C 
HETATM   23  C   UNL     1      -0.340 -16.303 -39.010  1.00  0.00     0.037 C 
ENDBRANCH  17  20
ENDBRANCH  15  16
ENDBRANCH  13  15
ENDBRANCH   1  13
TORSDOF 4
ENDMDL
MODEL 8
REMARK VINA RESULT:      -6.7     14.973     16.486
REMARK  4 active torsions:
REMARK  status: ('A' for Active; 'I' for Inactive)
REMARK    1  A    between atoms: C_2  and  N_3 
REMARK       I    between atoms: N_3  and  C_4 
REMARK    2  A    between atoms: C_4  and  C_5 
REMARK    3  A    between atoms: C_5  and  N_6 
REMARK    4  A    between atoms: N_6  and  C_7 
ROOT
HETATM    1  C   UNL     1      -4.156 -12.378 -37.939  1.00  0.00     0.022 A 
HETATM    2  C   UNL     1      -5.428 -12.446 -38.586  1.00  0.00     0.012 A 
HETATM    3  C   UNL     1      -6.542 -12.944 -37.857  1.00  0.00     0.045 A 
HETATM    4  C   UNL     1      -7.825 -12.992 -38.422  1.00  0.00     0.054 A 
HETATM    5  C   UNL     1      -8.023 -12.557 -39.728  1.00  0.00     0.036 A 
HETATM    6 CL   UNL     1      -9.598 -12.610 -40.409  1.00  0.00    -0.084 Cl
HETATM    7  C   UNL     1      -6.955 -12.087 -40.480  1.00  0.00     0.025 A 
HETATM    8  C   UNL     1      -5.674 -12.036 -39.920  1.00  0.00     0.017 A 
HETATM    9  N   UNL     1      -6.360 -13.384 -36.598  1.00  0.00    -0.365 N 
HETATM   10  H   UNL     1      -7.164 -13.746 -36.085  1.00  0.00     0.165 HD
HETATM   11  C   UNL     1      -5.170 -13.391 -35.992  1.00  0.00     0.090 A 
HETATM   12  C   UNL     1      -4.051 -12.904 -36.645  1.00  0.00     0.041 A 
ENDROOT
BRANCH   1  13
HETATM   13  N   UNL     1      -3.017 -11.925 -38.636  1.00  0.00    -0.283 NA
HETATM   14  H   UNL     1      -2.656 -11.051 -38.259  1.00  0.00     0.128 HD
BRANCH  13  15
HETATM   15  C   UNL     1      -1.876 -12.857 -38.832  1.00  0.00     0.195 C 
BRANCH  15  16
HETATM   16  C   UNL     1      -2.286 -14.179 -39.487  1.00  0.00     0.231 C 
HETATM   17  N   UNL     1      -2.872 -14.032 -40.724  1.00  0.00    -0.352 N 
HETATM   18  H   UNL     1      -3.065 -13.075 -41.007  1.00  0.00     0.163 HD
HETATM   19  O   UNL     1      -2.074 -15.255 -38.937  1.00  0.00    -0.272 OA
BRANCH  17  20
HETATM   20  C   UNL     1      -3.252 -15.131 -41.624  1.00  0.00     0.022 C 
HETATM   21  C   UNL     1      -4.287 -16.056 -40.965  1.00  0.00     0.037 C 
HETATM   22  C   UNL     1      -2.012 -15.939 -42.039  1.00  0.00     0.037 C 
HETATM   23  C   UNL     1      -3.882 -14.520 -42.888  1.00  0.00     0.037 C 
ENDBRANCH  17  20
ENDBRANCH  15  16
ENDBRANCH  13  15
ENDBRANCH   1  13
TORSDOF 4
ENDMDL
MODEL 9
REMARK VINA RESULT:      -6.5      3.123      4.135
REMARK  4 active torsions:
REMARK  status: ('A' for Active; 'I' for Inactive)
REMARK    1  A    between atoms: C_2  and  N_3 
REMARK       I    between atoms: N_3  and  C_4 
REMARK    2  A    between atoms: C_4  and  C_5 
REMARK    3  A    between atoms: C_5  and  N_6 
REMARK    4  A    between atoms: N_6  and  C_7 
ROOT
HETATM    1  C   UNL     1      -5.200   0.114 -31.809  1.00  0.00     0.022 A 
HETATM    2  C   UNL     1      -5.458  -0.920 -32.762  1.00  0.00     0.012 A 
HETATM    3  C   UNL     1      -4.424  -1.847 -33.062  1.00  0.00     0.045 A 
HETATM    4  C   UNL     1      -4.630  -2.911 -33.953  1.00  0.00     0.054 A 
HETATM    5  C   UNL     1      -5.866  -3.066 -34.572  1.00  0.00     0.036 A 
HETATM    6 CL   UNL     1      -6.114  -4.375 -35.655  1.00  0.00    -0.084 Cl
HETATM    7  C   UNL     1      -6.892  -2.165 -34.323  1.00  0.00     0.025 A 
HETATM    8  C   UNL     1      -6.692  -1.104 -33.433  1.00  0.00     0.017 A 
HETATM    9  N   UNL     1      -3.218  -1.698 -32.483  1.00  0.00    -0.365 N 
HETATM   10  H   UNL     1      -2.480  -2.365 -32.710  1.00  0.00     0.165 HD
HETATM   11  C   UNL     1      -2.931  -0.704 -31.639  1.00  0.00     0.090 A 
HETATM   12  C   UNL     1      -3.902   0.221 -31.294  1.00  0.00     0.041 A 
ENDROOT
BRANCH   1  13
HETATM   13  N   UNL     1      -6.185   1.077 -31.508  1.00  0.00    -0.283 NA
HETATM   14  H   UNL     1      -7.119   0.770 -31.775  1.00  0.00     0.128 HD
BRANCH  13  15
HETATM   15  C   UNL     1      -6.251   1.632 -30.131  1.00  0.00     0.195 C 
BRANCH  15  16
HETATM   16  C   UNL     1      -6.701   3.095 -30.094  1.00  0.00     0.231 C 
HETATM   17  N   UNL     1      -6.140   3.827 -29.072  1.00  0.00    -0.352 N 
HETATM   18  H   UNL     1      -5.589   3.296 -28.403  1.00  0.00     0.163 HD
HETATM   19  O   UNL     1      -7.477   3.544 -30.932  1.00  0.00    -0.272 OA
BRANCH  17  20
HETATM   20  C   UNL     1      -6.300   5.275 -28.872  1.00  0.00     0.022 C 
HETATM   21  C   UNL     1      -7.777   5.648 -28.674  1.00  0.00     0.037 C 
HETATM   22  C   UNL     1      -5.717   6.051 -30.064  1.00  0.00     0.037 C 
HETATM   23  C   UNL     1      -5.524   5.674 -27.604  1.00  0.00     0.037 C 
ENDBRANCH  17  20
ENDBRANCH  15  16
ENDBRANCH  13  15
ENDBRANCH   1  13
TORSDOF 4
ENDMDL
MODEL 10
REMARK VINA RESULT:      -6.5     15.643     16.350
REMARK  4 active torsions:
REMARK  status: ('A' for Active; 'I' for Inactive)
REMARK    1  A    between atoms: C_2  and  N_3 
REMARK       I    between atoms: N_3  and  C_4 
REMARK    2  A    between atoms: C_4  and  C_5 
REMARK    3  A    between atoms: C_5  and  N_6 
REMARK    4  A    between atoms: N_6  and  C_7 
ROOT
HETATM    1  C   UNL     1      -6.310 -12.612 -40.012  1.00  0.00     0.022 A 
HETATM    2  C   UNL     1      -6.309 -12.950 -38.623  1.00  0.00     0.012 A 
HETATM    3  C   UNL     1      -7.554 -13.089 -37.952  1.00  0.00     0.045 A 
HETATM    4  C   UNL     1      -7.621 -13.464 -36.602  1.00  0.00     0.054 A 
HETATM    5  C   UNL     1      -6.449 -13.696 -35.889  1.00  0.00     0.036 A 
HETATM    6 CL   UNL     1      -6.538 -14.163 -34.240  1.00  0.00    -0.084 Cl
HETATM    7  C   UNL     1      -5.213 -13.546 -36.504  1.00  0.00     0.025 A 
HETATM    8  C   UNL     1      -5.143 -13.174 -37.851  1.00  0.00     0.017 A 
HETATM    9  N   UNL     1      -8.695 -12.850 -38.625  1.00  0.00    -0.365 N 
HETATM   10  H   UNL     1      -9.584 -12.946 -38.133  1.00  0.00     0.165 HD
HETATM   11  C   UNL     1      -8.721 -12.471 -39.906  1.00  0.00     0.090 A 
HETATM   12  C   UNL     1      -7.541 -12.334 -40.617  1.00  0.00     0.041 A 
ENDROOT
BRANCH   1  13
HETATM   13  N   UNL     1      -5.098 -12.428 -40.708  1.00  0.00    -0.283 NA
HETATM   14  H   UNL     1      -4.333 -12.165 -40.089  1.00  0.00     0.128 HD
BRANCH  13  15
HETATM   15  C   UNL     1      -4.617 -13.505 -41.612  1.00  0.00     0.195 C 
BRANCH  15  16
HETATM   16  C   UNL     1      -3.399 -14.252 -41.062  1.00  0.00     0.231 C 
HETATM   17  N   UNL     1      -2.639 -13.512 -40.184  1.00  0.00    -0.352 N 
HETATM   18  H   UNL     1      -2.904 -12.536 -40.090  1.00  0.00     0.163 HD
HETATM   19  O   UNL     1      -3.167 -15.414 -41.381  1.00  0.00    -0.272 OA
BRANCH  17  20
HETATM   20  C   UNL     1      -1.489 -14.015 -39.418  1.00  0.00     0.022 C 
HETATM   21  C   UNL     1      -1.834 -15.326 -38.695  1.00  0.00     0.037 C 
HETATM   22  C   UNL     1      -1.017 -12.962 -38.403  1.00  0.00     0.037 C 
HETATM   23  C   UNL     1      -0.340 -14.292 -40.404  1.00  0.00     0.037 C 
ENDBRANCH  17  20
ENDBRANCH  15  16
ENDBRANCH  13  15
ENDBRANCH   1  13
TORSDOF 4
ENDMDL
