MODEL 1
REMARK VINA RESULT:     -11.3      0.000      0.000
REMARK  7 active torsions:
REMARK  status: ('A' for Active; 'I' for Inactive)
REMARK    1  A    between atoms: C_2  and  C_3 
REMARK    2  A    between atoms: N_16  and  C_17 
REMARK    3  A    between atoms: C_17  and  C_18 
REMARK       I    between atoms: C_18  and  N_19 
REMARK    4  A    between atoms: N_19  and  C_20 
REMARK    5  A    between atoms: C_21  and  C_22 
REMARK       I    between atoms: C_22  and  N_23 
REMARK    6  A    between atoms: N_23  and  C_24 
REMARK    7  A    between atoms: C_24  and  C_25 
ROOT
HETATM    1  C   UNL     1      -4.950   3.256 -30.329  1.00  0.00     0.240 C 
ENDROOT
BRANCH   1   2
HETATM    2  N   UNL     1      -5.742   2.625 -31.355  1.00  0.00    -0.259 N 
HETATM    3  C   UNL     1      -6.988   2.124 -31.156  1.00  0.00     0.326 A 
HETATM    4  N   UNL     1      -7.354   1.388 -32.259  1.00  0.00    -0.321 N 
HETATM    5  O   UNL     1      -7.666   2.214 -30.146  1.00  0.00    -0.247 OA
HETATM    6  C   UNL     1      -6.289   1.293 -33.240  1.00  0.00     0.140 A 
HETATM    7  H   UNL     1      -8.195   0.828 -32.262  1.00  0.00     0.165 HD
HETATM    8  C   UNL     1      -6.734   1.989 -34.527  1.00  0.00     0.054 C 
HETATM    9  C   UNL     1      -5.222   2.171 -32.537  1.00  0.00     0.261 A 
HETATM   10  O   UNL     1      -4.083   2.373 -32.939  1.00  0.00    -0.270 OA
BRANCH   6  11
HETATM   11  C   UNL     1      -5.788  -0.148 -33.372  1.00  0.00    -0.020 A 
HETATM   12  C   UNL     1      -6.527  -1.144 -34.037  1.00  0.00     0.022 A 
HETATM   13  C   UNL     1      -6.014  -2.443 -34.236  1.00  0.00    -0.025 A 
HETATM   14  C   UNL     1      -4.728  -2.763 -33.753  1.00  0.00    -0.026 A 
HETATM   15  C   UNL     1      -6.748  -3.424 -34.922  1.00  0.00     0.012 A 
HETATM   16  C   UNL     1      -3.995  -1.787 -33.069  1.00  0.00     0.013 A 
HETATM   17  C   UNL     1      -4.204  -4.047 -33.977  1.00  0.00     0.012 A 
HETATM   18  C   UNL     1      -4.518  -0.504 -32.880  1.00  0.00     0.011 A 
HETATM   19  C   UNL     1      -4.943  -5.008 -34.667  1.00  0.00     0.001 A 
HETATM   20  C   UNL     1      -6.217  -4.698 -35.137  1.00  0.00     0.001 A 
ENDBRANCH   6  11
ENDBRANCH   1   2
BRANCH   1  21
HETATM   21  C   UNL     1      -4.325   4.590 -30.741  1.00  0.00     0.240 C 
HETATM   22  N   UNL     1      -3.034   4.402 -31.219  1.00  0.00    -0.325 N 
HETATM   23  H   UNL     1      -2.543   3.593 -30.855  1.00  0.00     0.169 HD
HETATM   24  O   UNL     1      -4.870   5.680 -30.592  1.00  0.00    -0.271 OA
BRANCH  22  25
HETATM   25  C   UNL     1      -2.229   5.371 -31.856  1.00  0.00     0.050 A 
HETATM   26  C   UNL     1      -0.971   5.809 -31.421  1.00  0.00     0.058 A 
HETATM   27  C   UNL     1      -0.282   6.810 -32.130  1.00  0.00     0.019 A 
HETATM   28  C   UNL     1      -0.842   7.379 -33.273  1.00  0.00     0.001 A 
HETATM   29  C   UNL     1      -2.101   6.968 -33.698  1.00  0.00     0.002 A 
HETATM   30  C   UNL     1      -2.792   5.981 -32.989  1.00  0.00     0.030 A 
BRANCH  26  31
HETATM   31  C   UNL     1      -0.387   5.477 -30.106  1.00  0.00     0.254 C 
HETATM   32  N   UNL     1      -0.824   6.265 -29.071  1.00  0.00    -0.351 N 
HETATM   33  H   UNL     1      -1.001   7.234 -29.326  1.00  0.00     0.163 HD
HETATM   34  O   UNL     1       0.345   4.502 -29.997  1.00  0.00    -0.268 OA
BRANCH  32  35
HETATM   35  C   UNL     1      -0.305   6.057 -27.740  1.00  0.00     0.187 C 
BRANCH  35  36
HETATM   36  C   UNL     1       0.602   7.186 -27.414  1.00  0.00     0.070 A 
HETATM   37  O   UNL     1       1.115   7.225 -26.150  1.00  0.00    -0.325 OA
HETATM   38  C   UNL     1       1.919   8.317 -26.081  1.00  0.00     0.142 A 
HETATM   39  C   UNL     1       1.933   8.983 -27.283  1.00  0.00     0.027 A 
HETATM   40  C   UNL     1       1.079   8.257 -28.146  1.00  0.00     0.036 A 
ENDBRANCH  35  36
ENDBRANCH  32  35
ENDBRANCH  26  31
ENDBRANCH  22  25
ENDBRANCH   1  21
TORSDOF 7
ENDMDL
MODEL 2
REMARK VINA RESULT:     -11.0      1.700      2.056
REMARK  7 active torsions:
REMARK  status: ('A' for Active; 'I' for Inactive)
REMARK    1  A    between atoms: C_2  and  C_3 
REMARK    2  A    between atoms: N_16  and  C_17 
REMARK    3  A    between atoms: C_17  and  C_18 
REMARK       I    between atoms: C_18  and  N_19 
REMARK    4  A    between atoms: N_19  and  C_20 
REMARK    5  A    between atoms: C_21  and  C_22 
REMARK       I    between atoms: C_22  and  N_23 
REMARK    6  A    between atoms: N_23  and  C_24 
REMARK    7  A    between atoms: C_24  and  C_25 
ROOT
HETATM    1  C   UNL     1      -6.702   4.854 -31.514  1.00  0.00     0.240 C 
ENDROOT
BRANCH   1   2
HETATM    2  N   UNL     1      -7.466   3.636 -31.613  1.00  0.00    -0.259 N 
HETATM    3  C   UNL     1      -7.897   2.916 -30.545  1.00  0.00     0.326 A 
HETATM    4  N   UNL     1      -8.377   1.706 -30.988  1.00  0.00    -0.321 N 
HETATM    5  O   UNL     1      -7.807   3.219 -29.367  1.00  0.00    -0.247 OA
HETATM    6  C   UNL     1      -8.199   1.528 -32.417  1.00  0.00     0.140 A 
HETATM    7  H   UNL     1      -8.631   0.972 -30.341  1.00  0.00     0.165 HD
HETATM    8  C   UNL     1      -9.573   1.432 -33.081  1.00  0.00     0.054 C 
HETATM    9  C   UNL     1      -7.568   2.901 -32.763  1.00  0.00     0.261 A 
HETATM   10  O   UNL     1      -7.167   3.247 -33.867  1.00  0.00    -0.270 OA
BRANCH   6  11
HETATM   11  C   UNL     1      -7.209   0.398 -32.712  1.00  0.00    -0.020 A 
HETATM   12  C   UNL     1      -7.543  -0.703 -33.522  1.00  0.00     0.022 A 
HETATM   13  C   UNL     1      -6.595  -1.689 -33.866  1.00  0.00    -0.025 A 
HETATM   14  C   UNL     1      -5.274  -1.579 -33.384  1.00  0.00    -0.026 A 
HETATM   15  C   UNL     1      -6.930  -2.772 -34.695  1.00  0.00     0.012 A 
HETATM   16  C   UNL     1      -4.937  -0.501 -32.559  1.00  0.00     0.013 A 
HETATM   17  C   UNL     1      -4.320  -2.545 -33.751  1.00  0.00     0.012 A 
HETATM   18  C   UNL     1      -5.889   0.468 -32.227  1.00  0.00     0.011 A 
HETATM   19  C   UNL     1      -4.668  -3.610 -34.581  1.00  0.00     0.001 A 
HETATM   20  C   UNL     1      -5.974  -3.726 -35.050  1.00  0.00     0.001 A 
ENDBRANCH   6  11
ENDBRANCH   1   2
BRANCH   1  21
HETATM   21  C   UNL     1      -5.195   4.674 -31.699  1.00  0.00     0.240 C 
HETATM   22  N   UNL     1      -4.756   5.335 -32.840  1.00  0.00    -0.325 N 
HETATM   23  H   UNL     1      -5.446   5.446 -33.575  1.00  0.00     0.169 HD
HETATM   24  O   UNL     1      -4.491   3.975 -30.975  1.00  0.00    -0.271 OA
BRANCH  22  25
HETATM   25  C   UNL     1      -3.414   5.542 -33.222  1.00  0.00     0.050 A 
HETATM   26  C   UNL     1      -2.430   6.179 -32.453  1.00  0.00     0.058 A 
HETATM   27  C   UNL     1      -1.131   6.354 -32.965  1.00  0.00     0.019 A 
HETATM   28  C   UNL     1      -0.807   5.898 -34.242  1.00  0.00     0.001 A 
HETATM   29  C   UNL     1      -1.783   5.287 -35.021  1.00  0.00     0.002 A 
HETATM   30  C   UNL     1      -3.078   5.122 -34.519  1.00  0.00     0.030 A 
BRANCH  26  31
HETATM   31  C   UNL     1      -2.703   6.923 -31.208  1.00  0.00     0.254 C 
HETATM   32  N   UNL     1      -2.012   6.475 -30.110  1.00  0.00    -0.351 N 
HETATM   33  H   UNL     1      -1.868   5.468 -30.088  1.00  0.00     0.163 HD
HETATM   34  O   UNL     1      -3.421   7.914 -31.239  1.00  0.00    -0.268 OA
BRANCH  32  35
HETATM   35  C   UNL     1      -2.214   7.104 -28.826  1.00  0.00     0.187 C 
BRANCH  35  36
HETATM   36  C   UNL     1      -0.883   7.364 -28.223  1.00  0.00     0.070 A 
HETATM   37  O   UNL     1      -0.712   7.003 -26.919  1.00  0.00    -0.325 OA
HETATM   38  C   UNL     1       0.567   7.313 -26.584  1.00  0.00     0.142 A 
HETATM   39  C   UNL     1       1.225   7.869 -27.656  1.00  0.00     0.027 A 
HETATM   40  C   UNL     1       0.288   7.908 -28.716  1.00  0.00     0.036 A 
ENDBRANCH  35  36
ENDBRANCH  32  35
ENDBRANCH  26  31
ENDBRANCH  22  25
ENDBRANCH   1  21
TORSDOF 7
ENDMDL
MODEL 3
REMARK VINA RESULT:     -10.8      5.266      9.381
REMARK  7 active torsions:
REMARK  status: ('A' for Active; 'I' for Inactive)
REMARK    1  A    between atoms: C_2  and  C_3 
REMARK    2  A    between atoms: N_16  and  C_17 
REMARK    3  A    between atoms: C_17  and  C_18 
REMARK       I    between atoms: C_18  and  N_19 
REMARK    4  A    between atoms: N_19  and  C_20 
REMARK    5  A    between atoms: C_21  and  C_22 
REMARK       I    between atoms: C_22  and  N_23 
REMARK    6  A    between atoms: N_23  and  C_24 
REMARK    7  A    between atoms: C_24  and  C_25 
ROOT
HETATM    1  C   UNL     1      -8.640   3.537 -32.498  1.00  0.00     0.240 C 
ENDROOT
BRANCH   1   2
HETATM    2  N   UNL     1      -7.323   2.961 -32.600  1.00  0.00    -0.259 N 
HETATM    3  C   UNL     1      -6.406   3.315 -33.538  1.00  0.00     0.326 A 
HETATM    4  N   UNL     1      -5.366   2.417 -33.505  1.00  0.00    -0.321 N 
HETATM    5  O   UNL     1      -6.497   4.219 -34.352  1.00  0.00    -0.247 OA
HETATM    6  C   UNL     1      -5.597   1.334 -32.567  1.00  0.00     0.140 A 
HETATM    7  H   UNL     1      -4.638   2.429 -34.207  1.00  0.00     0.165 HD
HETATM    8  C   UNL     1      -4.544   1.403 -31.460  1.00  0.00     0.054 C 
HETATM    9  C   UNL     1      -6.962   1.789 -31.991  1.00  0.00     0.261 A 
HETATM   10  O   UNL     1      -7.637   1.173 -31.176  1.00  0.00    -0.270 OA
BRANCH   6  11
HETATM   11  C   UNL     1      -5.747  -0.004 -33.295  1.00  0.00    -0.020 A 
HETATM   12  C   UNL     1      -4.804  -1.041 -33.167  1.00  0.00     0.022 A 
HETATM   13  C   UNL     1      -5.000  -2.303 -33.765  1.00  0.00    -0.025 A 
HETATM   14  C   UNL     1      -6.167  -2.539 -34.521  1.00  0.00    -0.026 A 
HETATM   15  C   UNL     1      -4.065  -3.340 -33.612  1.00  0.00     0.012 A 
HETATM   16  C   UNL     1      -7.099  -1.507 -34.675  1.00  0.00     0.013 A 
HETATM   17  C   UNL     1      -6.378  -3.806 -35.092  1.00  0.00     0.012 A 
HETATM   18  C   UNL     1      -6.890  -0.262 -34.075  1.00  0.00     0.011 A 
HETATM   19  C   UNL     1      -5.443  -4.827 -34.924  1.00  0.00     0.001 A 
HETATM   20  C   UNL     1      -4.285  -4.594 -34.188  1.00  0.00     0.001 A 
ENDBRANCH   6  11
ENDBRANCH   1   2
BRANCH   1  21
HETATM   21  C   UNL     1      -9.673   2.934 -33.451  1.00  0.00     0.240 C 
HETATM   22  N   UNL     1     -10.621   2.198 -32.749  1.00  0.00    -0.325 N 
HETATM   23  H   UNL     1     -10.306   1.802 -31.870  1.00  0.00     0.169 HD
HETATM   24  O   UNL     1      -9.618   3.028 -34.674  1.00  0.00    -0.271 OA
BRANCH  22  25
HETATM   25  C   UNL     1     -11.815   1.660 -33.271  1.00  0.00     0.050 A 
HETATM   26  C   UNL     1     -12.932   2.395 -33.694  1.00  0.00     0.058 A 
HETATM   27  C   UNL     1     -14.081   1.734 -34.166  1.00  0.00     0.019 A 
HETATM   28  C   UNL     1     -14.124   0.341 -34.218  1.00  0.00     0.001 A 
HETATM   29  C   UNL     1     -13.031  -0.396 -33.777  1.00  0.00     0.002 A 
HETATM   30  C   UNL     1     -11.892   0.258 -33.298  1.00  0.00     0.030 A 
BRANCH  26  31
HETATM   31  C   UNL     1     -13.111   3.841 -33.457  1.00  0.00     0.254 C 
HETATM   32  N   UNL     1     -13.419   4.570 -34.578  1.00  0.00    -0.351 N 
HETATM   33  H   UNL     1     -12.973   4.239 -35.430  1.00  0.00     0.163 HD
HETATM   34  O   UNL     1     -13.073   4.277 -32.314  1.00  0.00    -0.268 OA
BRANCH  32  35
HETATM   35  C   UNL     1     -13.592   6.001 -34.481  1.00  0.00     0.187 C 
BRANCH  35  36
HETATM   36  C   UNL     1     -12.408   6.653 -35.094  1.00  0.00     0.070 A 
HETATM   37  O   UNL     1     -11.246   5.939 -35.110  1.00  0.00    -0.325 OA
HETATM   38  C   UNL     1     -10.313   6.711 -35.724  1.00  0.00     0.142 A 
HETATM   39  C   UNL     1     -10.858   7.914 -36.106  1.00  0.00     0.027 A 
HETATM   40  C   UNL     1     -12.211   7.881 -35.696  1.00  0.00     0.036 A 
ENDBRANCH  35  36
ENDBRANCH  32  35
ENDBRANCH  26  31
ENDBRANCH  22  25
ENDBRANCH   1  21
TORSDOF 7
ENDMDL
MODEL 4
REMARK VINA RESULT:     -10.7      2.811      3.652
REMARK  7 active torsions:
REMARK  status: ('A' for Active; 'I' for Inactive)
REMARK    1  A    between atoms: C_2  and  C_3 
REMARK    2  A    between atoms: N_16  and  C_17 
REMARK    3  A    between atoms: C_17  and  C_18 
REMARK       I    between atoms: C_18  and  N_19 
REMARK    4  A    between atoms: N_19  and  C_20 
REMARK    5  A    between atoms: C_21  and  C_22 
REMARK       I    between atoms: C_22  and  N_23 
REMARK    6  A    between atoms: N_23  and  C_24 
REMARK    7  A    between atoms: C_24  and  C_25 
ROOT
HETATM    1  C   UNL     1      -6.918   4.919 -31.684  1.00  0.00     0.240 C 
ENDROOT
BRANCH   1   2
HETATM    2  N   UNL     1      -7.609   3.655 -31.647  1.00  0.00    -0.259 N 
HETATM    3  C   UNL     1      -7.881   2.967 -30.507  1.00  0.00     0.326 A 
HETATM    4  N   UNL     1      -8.325   1.710 -30.842  1.00  0.00    -0.321 N 
HETATM    5  O   UNL     1      -7.691   3.336 -29.361  1.00  0.00    -0.247 OA
HETATM    6  C   UNL     1      -8.284   1.468 -32.272  1.00  0.00     0.140 A 
HETATM    7  H   UNL     1      -8.465   0.997 -30.139  1.00  0.00     0.165 HD
HETATM    8  C   UNL     1      -9.709   1.257 -32.783  1.00  0.00     0.054 C 
HETATM    9  C   UNL     1      -7.781   2.856 -32.745  1.00  0.00     0.261 A 
HETATM   10  O   UNL     1      -7.518   3.168 -33.900  1.00  0.00    -0.270 OA
BRANCH   6  11
HETATM   11  C   UNL     1      -7.259   0.385 -32.619  1.00  0.00    -0.020 A 
HETATM   12  C   UNL     1      -7.578  -0.722 -33.426  1.00  0.00     0.022 A 
HETATM   13  C   UNL     1      -6.603  -1.663 -33.818  1.00  0.00    -0.025 A 
HETATM   14  C   UNL     1      -5.269  -1.501 -33.388  1.00  0.00    -0.026 A 
HETATM   15  C   UNL     1      -6.925  -2.753 -34.644  1.00  0.00     0.012 A 
HETATM   16  C   UNL     1      -4.947  -0.416 -32.565  1.00  0.00     0.013 A 
HETATM   17  C   UNL     1      -4.291  -2.420 -33.803  1.00  0.00     0.012 A 
HETATM   18  C   UNL     1      -5.925   0.507 -32.186  1.00  0.00     0.011 A 
HETATM   19  C   UNL     1      -4.626  -3.493 -34.629  1.00  0.00     0.001 A 
HETATM   20  C   UNL     1      -5.943  -3.661 -35.047  1.00  0.00     0.001 A 
ENDBRANCH   6  11
ENDBRANCH   1   2
BRANCH   1  21
HETATM   21  C   UNL     1      -5.398   4.808 -31.809  1.00  0.00     0.240 C 
HETATM   22  N   UNL     1      -4.952   5.435 -32.966  1.00  0.00    -0.325 N 
HETATM   23  H   UNL     1      -5.619   5.476 -33.729  1.00  0.00     0.169 HD
HETATM   24  O   UNL     1      -4.688   4.181 -31.028  1.00  0.00    -0.271 OA
BRANCH  22  25
HETATM   25  C   UNL     1      -3.609   5.693 -33.313  1.00  0.00     0.050 A 
HETATM   26  C   UNL     1      -2.721   6.516 -32.606  1.00  0.00     0.058 A 
HETATM   27  C   UNL     1      -1.411   6.718 -33.078  1.00  0.00     0.019 A 
HETATM   28  C   UNL     1      -0.980   6.104 -34.253  1.00  0.00     0.001 A 
HETATM   29  C   UNL     1      -1.861   5.306 -34.973  1.00  0.00     0.002 A 
HETATM   30  C   UNL     1      -3.167   5.112 -34.513  1.00  0.00     0.030 A 
BRANCH  26  31
HETATM   31  C   UNL     1      -3.121   7.413 -31.504  1.00  0.00     0.254 C 
HETATM   32  N   UNL     1      -3.080   6.840 -30.257  1.00  0.00    -0.351 N 
HETATM   33  H   UNL     1      -3.336   5.856 -30.239  1.00  0.00     0.163 HD
HETATM   34  O   UNL     1      -3.361   8.590 -31.738  1.00  0.00    -0.268 OA
BRANCH  32  35
HETATM   35  C   UNL     1      -3.475   7.608 -29.100  1.00  0.00     0.187 C 
BRANCH  35  36
HETATM   36  C   UNL     1      -4.899   7.307 -28.808  1.00  0.00     0.070 A 
HETATM   37  O   UNL     1      -5.828   8.187 -29.281  1.00  0.00    -0.325 OA
HETATM   38  C   UNL     1      -7.047   7.712 -28.918  1.00  0.00     0.142 A 
HETATM   39  C   UNL     1      -6.918   6.537 -28.216  1.00  0.00     0.027 A 
HETATM   40  C   UNL     1      -5.529   6.275 -28.140  1.00  0.00     0.036 A 
ENDBRANCH  35  36
ENDBRANCH  32  35
ENDBRANCH  26  31
ENDBRANCH  22  25
ENDBRANCH   1  21
TORSDOF 7
ENDMDL
MODEL 5
REMARK VINA RESULT:     -10.6      2.898     11.083
REMARK  7 active torsions:
REMARK  status: ('A' for Active; 'I' for Inactive)
REMARK    1  A    between atoms: C_2  and  C_3 
REMARK    2  A    between atoms: N_16  and  C_17 
REMARK    3  A    between atoms: C_17  and  C_18 
REMARK       I    between atoms: C_18  and  N_19 
REMARK    4  A    between atoms: N_19  and  C_20 
REMARK    5  A    between atoms: C_21  and  C_22 
REMARK       I    between atoms: C_22  and  N_23 
REMARK    6  A    between atoms: N_23  and  C_24 
REMARK    7  A    between atoms: C_24  and  C_25 
ROOT
HETATM    1  C   UNL     1      -5.040   4.301 -32.060  1.00  0.00     0.240 C 
ENDROOT
BRANCH   1   2
HETATM    2  N   UNL     1      -3.666   4.734 -32.107  1.00  0.00    -0.259 N 
HETATM    3  C   UNL     1      -2.615   3.980 -31.692  1.00  0.00     0.326 A 
HETATM    4  N   UNL     1      -1.490   4.770 -31.648  1.00  0.00    -0.321 N 
HETATM    5  O   UNL     1      -2.641   2.818 -31.323  1.00  0.00    -0.247 OA
HETATM    6  C   UNL     1      -1.775   6.158 -31.961  1.00  0.00     0.140 A 
HETATM    7  H   UNL     1      -0.626   4.434 -31.247  1.00  0.00     0.165 HD
HETATM    8  C   UNL     1      -1.041   6.539 -33.248  1.00  0.00     0.054 C 
HETATM    9  C   UNL     1      -3.291   6.040 -32.264  1.00  0.00     0.261 A 
HETATM   10  O   UNL     1      -4.042   6.969 -32.534  1.00  0.00    -0.270 OA
BRANCH   6  11
HETATM   11  C   UNL     1      -1.545   7.057 -30.744  1.00  0.00    -0.020 A 
HETATM   12  C   UNL     1      -0.321   7.085 -30.049  1.00  0.00     0.022 A 
HETATM   13  C   UNL     1      -0.087   7.985 -28.989  1.00  0.00    -0.025 A 
HETATM   14  C   UNL     1      -1.105   8.882 -28.603  1.00  0.00    -0.026 A 
HETATM   15  C   UNL     1       1.145   8.024 -28.317  1.00  0.00     0.012 A 
HETATM   16  C   UNL     1      -2.334   8.846 -29.271  1.00  0.00     0.013 A 
HETATM   17  C   UNL     1      -0.863   9.800 -27.567  1.00  0.00     0.012 A 
HETATM   18  C   UNL     1      -2.549   7.947 -30.320  1.00  0.00     0.011 A 
HETATM   19  C   UNL     1       0.369   9.830 -26.915  1.00  0.00     0.001 A 
HETATM   20  C   UNL     1       1.373   8.939 -27.287  1.00  0.00     0.001 A 
ENDBRANCH   6  11
ENDBRANCH   1   2
BRANCH   1  21
HETATM   21  C   UNL     1      -5.433   3.316 -33.161  1.00  0.00     0.240 C 
HETATM   22  N   UNL     1      -5.485   2.018 -32.667  1.00  0.00    -0.325 N 
HETATM   23  H   UNL     1      -4.884   1.827 -31.872  1.00  0.00     0.169 HD
HETATM   24  O   UNL     1      -5.603   3.630 -34.336  1.00  0.00    -0.271 OA
BRANCH  22  25
HETATM   25  C   UNL     1      -5.988   0.886 -33.340  1.00  0.00     0.050 A 
HETATM   26  C   UNL     1      -7.292   0.734 -33.832  1.00  0.00     0.058 A 
HETATM   27  C   UNL     1      -7.680  -0.465 -34.459  1.00  0.00     0.019 A 
HETATM   28  C   UNL     1      -6.774  -1.515 -34.598  1.00  0.00     0.001 A 
HETATM   29  C   UNL     1      -5.486  -1.382 -34.092  1.00  0.00     0.002 A 
HETATM   30  C   UNL     1      -5.101  -0.197 -33.459  1.00  0.00     0.030 A 
BRANCH  26  31
HETATM   31  C   UNL     1      -8.405   1.655 -33.530  1.00  0.00     0.254 C 
HETATM   32  N   UNL     1      -9.286   1.848 -34.564  1.00  0.00    -0.351 N 
HETATM   33  H   UNL     1      -8.857   1.844 -35.486  1.00  0.00     0.163 HD
HETATM   34  O   UNL     1      -8.532   2.100 -32.396  1.00  0.00    -0.268 OA
BRANCH  32  35
HETATM   35  C   UNL     1     -10.402   2.749 -34.400  1.00  0.00     0.187 C 
BRANCH  35  36
HETATM   36  C   UNL     1     -11.633   1.936 -34.234  1.00  0.00     0.070 A 
HETATM   37  O   UNL     1     -12.775   2.418 -34.803  1.00  0.00    -0.325 OA
HETATM   38  C   UNL     1     -13.759   1.518 -34.543  1.00  0.00     0.142 A 
HETATM   39  C   UNL     1     -13.266   0.461 -33.815  1.00  0.00     0.027 A 
HETATM   40  C   UNL     1     -11.893   0.731 -33.609  1.00  0.00     0.036 A 
ENDBRANCH  35  36
ENDBRANCH  32  35
ENDBRANCH  26  31
ENDBRANCH  22  25
ENDBRANCH   1  21
TORSDOF 7
ENDMDL
MODEL 6
REMARK VINA RESULT:     -10.4      2.517      4.383
REMARK  7 active torsions:
REMARK  status: ('A' for Active; 'I' for Inactive)
REMARK    1  A    between atoms: C_2  and  C_3 
REMARK    2  A    between atoms: N_16  and  C_17 
REMARK    3  A    between atoms: C_17  and  C_18 
REMARK       I    between atoms: C_18  and  N_19 
REMARK    4  A    between atoms: N_19  and  C_20 
REMARK    5  A    between atoms: C_21  and  C_22 
REMARK       I    between atoms: C_22  and  N_23 
REMARK    6  A    between atoms: N_23  and  C_24 
REMARK    7  A    between atoms: C_24  and  C_25 
ROOT
HETATM    1  C   UNL     1      -4.713   3.416 -31.616  1.00  0.00     0.240 C 
ENDROOT
BRANCH   1   2
HETATM    2  N   UNL     1      -5.819   2.519 -31.836  1.00  0.00    -0.259 N 
HETATM    3  C   UNL     1      -6.427   1.803 -30.855  1.00  0.00     0.326 A 
HETATM    4  N   UNL     1      -7.268   0.881 -31.432  1.00  0.00    -0.321 N 
HETATM    5  O   UNL     1      -6.220   1.874 -29.655  1.00  0.00    -0.247 OA
HETATM    6  C   UNL     1      -7.186   0.886 -32.881  1.00  0.00     0.140 A 
HETATM    7  H   UNL     1      -7.722   0.166 -30.881  1.00  0.00     0.165 HD
HETATM    8  C   UNL     1      -8.537   1.317 -33.454  1.00  0.00     0.054 C 
HETATM    9  C   UNL     1      -6.169   2.041 -33.070  1.00  0.00     0.261 A 
HETATM   10  O   UNL     1      -5.706   2.420 -34.138  1.00  0.00    -0.270 OA
BRANCH   6  11
HETATM   11  C   UNL     1      -6.601  -0.428 -33.405  1.00  0.00    -0.020 A 
HETATM   12  C   UNL     1      -5.420  -0.988 -32.883  1.00  0.00     0.022 A 
HETATM   13  C   UNL     1      -4.943  -2.246 -33.307  1.00  0.00    -0.025 A 
HETATM   14  C   UNL     1      -5.659  -2.967 -34.285  1.00  0.00    -0.026 A 
HETATM   15  C   UNL     1      -3.777  -2.809 -32.764  1.00  0.00     0.012 A 
HETATM   16  C   UNL     1      -6.821  -2.408 -34.828  1.00  0.00     0.013 A 
HETATM   17  C   UNL     1      -5.201  -4.233 -34.686  1.00  0.00     0.012 A 
HETATM   18  C   UNL     1      -7.281  -1.160 -34.397  1.00  0.00     0.011 A 
HETATM   19  C   UNL     1      -4.045  -4.781 -34.131  1.00  0.00     0.001 A 
HETATM   20  C   UNL     1      -3.330  -4.068 -33.172  1.00  0.00     0.001 A 
ENDBRANCH   6  11
ENDBRANCH   1   2
BRANCH   1  21
HETATM   21  C   UNL     1      -5.116   4.825 -31.178  1.00  0.00     0.240 C 
HETATM   22  N   UNL     1      -4.599   5.117 -29.922  1.00  0.00    -0.325 N 
HETATM   23  H   UNL     1      -4.438   4.319 -29.316  1.00  0.00     0.169 HD
HETATM   24  O   UNL     1      -5.860   5.559 -31.822  1.00  0.00    -0.271 OA
BRANCH  22  25
HETATM   25  C   UNL     1      -4.608   6.376 -29.286  1.00  0.00     0.050 A 
HETATM   26  C   UNL     1      -3.785   7.465 -29.606  1.00  0.00     0.058 A 
HETATM   27  C   UNL     1      -3.870   8.661 -28.870  1.00  0.00     0.019 A 
HETATM   28  C   UNL     1      -4.772   8.778 -27.813  1.00  0.00     0.001 A 
HETATM   29  C   UNL     1      -5.575   7.695 -27.473  1.00  0.00     0.002 A 
HETATM   30  C   UNL     1      -5.485   6.502 -28.196  1.00  0.00     0.030 A 
BRANCH  26  31
HETATM   31  C   UNL     1      -2.629   7.389 -30.521  1.00  0.00     0.254 C 
HETATM   32  N   UNL     1      -2.850   7.921 -31.767  1.00  0.00    -0.351 N 
HETATM   33  H   UNL     1      -3.795   7.787 -32.119  1.00  0.00     0.163 HD
HETATM   34  O   UNL     1      -1.557   6.967 -30.108  1.00  0.00    -0.268 OA
BRANCH  32  35
HETATM   35  C   UNL     1      -1.804   7.882 -32.761  1.00  0.00     0.187 C 
BRANCH  35  36
HETATM   36  C   UNL     1      -2.055   6.723 -33.653  1.00  0.00     0.070 A 
HETATM   37  O   UNL     1      -3.353   6.469 -33.989  1.00  0.00    -0.325 OA
HETATM   38  C   UNL     1      -3.346   5.390 -34.813  1.00  0.00     0.142 A 
HETATM   39  C   UNL     1      -2.062   4.943 -35.014  1.00  0.00     0.027 A 
HETATM   40  C   UNL     1      -1.225   5.801 -34.261  1.00  0.00     0.036 A 
ENDBRANCH  35  36
ENDBRANCH  32  35
ENDBRANCH  26  31
ENDBRANCH  22  25
ENDBRANCH   1  21
TORSDOF 7
ENDMDL
MODEL 7
REMARK VINA RESULT:     -10.3      1.962     10.691
REMARK  7 active torsions:
REMARK  status: ('A' for Active; 'I' for Inactive)
REMARK    1  A    between atoms: C_2  and  C_3 
REMARK    2  A    between atoms: N_16  and  C_17 
REMARK    3  A    between atoms: C_17  and  C_18 
REMARK       I    between atoms: C_18  and  N_19 
REMARK    4  A    between atoms: N_19  and  C_20 
REMARK    5  A    between atoms: C_21  and  C_22 
REMARK       I    between atoms: C_22  and  N_23 
REMARK    6  A    between atoms: N_23  and  C_24 
REMARK    7  A    between atoms: C_24  and  C_25 
ROOT
HETATM    1  C   UNL     1      -4.597   3.929 -30.635  1.00  0.00     0.240 C 
ENDROOT
BRANCH   1   2
HETATM    2  N   UNL     1      -3.587   4.820 -31.149  1.00  0.00    -0.259 N 
HETATM    3  C   UNL     1      -2.536   4.421 -31.913  1.00  0.00     0.326 A 
HETATM    4  N   UNL     1      -1.648   5.464 -32.027  1.00  0.00    -0.321 N 
HETATM    5  O   UNL     1      -2.335   3.307 -32.366  1.00  0.00    -0.247 OA
HETATM    6  C   UNL     1      -2.043   6.618 -31.240  1.00  0.00     0.140 A 
HETATM    7  H   UNL     1      -0.740   5.338 -32.452  1.00  0.00     0.165 HD
HETATM    8  C   UNL     1      -2.332   7.787 -32.181  1.00  0.00     0.054 C 
HETATM    9  C   UNL     1      -3.384   6.086 -30.672  1.00  0.00     0.261 A 
HETATM   10  O   UNL     1      -4.110   6.673 -29.880  1.00  0.00    -0.270 OA
BRANCH   6  11
HETATM   11  C   UNL     1      -1.050   6.876 -30.103  1.00  0.00    -0.020 A 
HETATM   12  C   UNL     1      -0.997   8.102 -29.414  1.00  0.00     0.022 A 
HETATM   13  C   UNL     1      -0.145   8.296 -28.307  1.00  0.00    -0.025 A 
HETATM   14  C   UNL     1       0.684   7.241 -27.875  1.00  0.00    -0.026 A 
HETATM   15  C   UNL     1      -0.115   9.515 -27.609  1.00  0.00     0.012 A 
HETATM   16  C   UNL     1       0.657   6.026 -28.568  1.00  0.00     0.013 A 
HETATM   17  C   UNL     1       1.511   7.423 -26.753  1.00  0.00     0.012 A 
HETATM   18  C   UNL     1      -0.194   5.849 -29.664  1.00  0.00     0.011 A 
HETATM   19  C   UNL     1       1.523   8.638 -26.067  1.00  0.00     0.001 A 
HETATM   20  C   UNL     1       0.713   9.685 -26.497  1.00  0.00     0.001 A 
ENDBRANCH   6  11
ENDBRANCH   1   2
BRANCH   1  21
HETATM   21  C   UNL     1      -5.524   3.340 -31.699  1.00  0.00     0.240 C 
HETATM   22  N   UNL     1      -6.188   2.221 -31.209  1.00  0.00    -0.325 N 
HETATM   23  H   UNL     1      -5.706   1.710 -30.478  1.00  0.00     0.169 HD
HETATM   24  O   UNL     1      -5.605   3.759 -32.850  1.00  0.00    -0.271 OA
BRANCH  22  25
HETATM   25  C   UNL     1      -7.249   1.537 -31.838  1.00  0.00     0.050 A 
HETATM   26  C   UNL     1      -7.185   0.251 -32.393  1.00  0.00     0.058 A 
HETATM   27  C   UNL     1      -8.311  -0.307 -33.024  1.00  0.00     0.019 A 
HETATM   28  C   UNL     1      -9.504   0.409 -33.107  1.00  0.00     0.001 A 
HETATM   29  C   UNL     1      -9.570   1.694 -32.581  1.00  0.00     0.002 A 
HETATM   30  C   UNL     1      -8.449   2.257 -31.962  1.00  0.00     0.030 A 
BRANCH  26  31
HETATM   31  C   UNL     1      -5.931  -0.502 -32.596  1.00  0.00     0.254 C 
HETATM   32  N   UNL     1      -5.599  -0.717 -33.910  1.00  0.00    -0.351 N 
HETATM   33  H   UNL     1      -6.396  -0.867 -34.524  1.00  0.00     0.163 HD
HETATM   34  O   UNL     1      -5.238  -0.794 -31.631  1.00  0.00    -0.268 OA
BRANCH  32  35
HETATM   35  C   UNL     1      -4.409  -1.465 -34.238  1.00  0.00     0.187 C 
BRANCH  35  36
HETATM   36  C   UNL     1      -4.791  -2.889 -34.413  1.00  0.00     0.070 A 
HETATM   37  O   UNL     1      -5.930  -3.143 -35.120  1.00  0.00    -0.325 OA
HETATM   38  C   UNL     1      -6.076  -4.492 -35.170  1.00  0.00     0.142 A 
HETATM   39  C   UNL     1      -5.045  -5.113 -34.505  1.00  0.00     0.027 A 
HETATM   40  C   UNL     1      -4.215  -4.079 -34.011  1.00  0.00     0.036 A 
ENDBRANCH  35  36
ENDBRANCH  32  35
ENDBRANCH  26  31
ENDBRANCH  22  25
ENDBRANCH   1  21
TORSDOF 7
ENDMDL
MODEL 8
REMARK VINA RESULT:     -10.3      4.442      8.520
REMARK  7 active torsions:
REMARK  status: ('A' for Active; 'I' for Inactive)
REMARK    1  A    between atoms: C_2  and  C_3 
REMARK    2  A    between atoms: N_16  and  C_17 
REMARK    3  A    between atoms: C_17  and  C_18 
REMARK       I    between atoms: C_18  and  N_19 
REMARK    4  A    between atoms: N_19  and  C_20 
REMARK    5  A    between atoms: C_21  and  C_22 
REMARK       I    between atoms: C_22  and  N_23 
REMARK    6  A    between atoms: N_23  and  C_24 
REMARK    7  A    between atoms: C_24  and  C_25 
ROOT
HETATM    1  C   UNL     1      -6.125   3.445 -30.493  1.00  0.00     0.240 C 
ENDROOT
BRANCH   1   2
HETATM    2  N   UNL     1      -5.104   2.605 -31.067  1.00  0.00    -0.259 N 
HETATM    3  C   UNL     1      -4.338   2.956 -32.133  1.00  0.00     0.326 A 
HETATM    4  N   UNL     1      -3.647   1.850 -32.568  1.00  0.00    -0.321 N 
HETATM    5  O   UNL     1      -4.310   4.037 -32.696  1.00  0.00    -0.247 OA
HETATM    6  C   UNL     1      -4.003   0.649 -31.834  1.00  0.00     0.140 A 
HETATM    7  H   UNL     1      -3.114   1.866 -33.426  1.00  0.00     0.165 HD
HETATM    8  C   UNL     1      -2.776   0.150 -31.071  1.00  0.00     0.054 C 
HETATM    9  C   UNL     1      -5.008   1.261 -30.825  1.00  0.00     0.261 A 
HETATM   10  O   UNL     1      -5.656   0.640 -29.993  1.00  0.00    -0.270 OA
BRANCH   6  11
HETATM   11  C   UNL     1      -4.710  -0.361 -32.741  1.00  0.00    -0.020 A 
HETATM   12  C   UNL     1      -4.187  -1.644 -32.992  1.00  0.00     0.022 A 
HETATM   13  C   UNL     1      -4.892  -2.600 -33.751  1.00  0.00    -0.025 A 
HETATM   14  C   UNL     1      -6.156  -2.269 -34.283  1.00  0.00    -0.026 A 
HETATM   15  C   UNL     1      -4.374  -3.886 -33.976  1.00  0.00     0.012 A 
HETATM   16  C   UNL     1      -6.675  -0.989 -34.060  1.00  0.00     0.013 A 
HETATM   17  C   UNL     1      -6.874  -3.231 -35.014  1.00  0.00     0.012 A 
HETATM   18  C   UNL     1      -5.962  -0.052 -33.305  1.00  0.00     0.011 A 
HETATM   19  C   UNL     1      -6.347  -4.506 -35.222  1.00  0.00     0.001 A 
HETATM   20  C   UNL     1      -5.096  -4.833 -34.706  1.00  0.00     0.001 A 
ENDBRANCH   6  11
ENDBRANCH   1   2
BRANCH   1  21
HETATM   21  C   UNL     1      -7.556   3.008 -30.805  1.00  0.00     0.240 C 
HETATM   22  N   UNL     1      -7.744   2.881 -32.177  1.00  0.00    -0.325 N 
HETATM   23  H   UNL     1      -7.150   3.464 -32.757  1.00  0.00     0.169 HD
HETATM   24  O   UNL     1      -8.433   2.867 -29.958  1.00  0.00    -0.271 OA
BRANCH  22  25
HETATM   25  C   UNL     1      -8.870   2.323 -32.818  1.00  0.00     0.050 A 
HETATM   26  C   UNL     1      -9.745   2.999 -33.680  1.00  0.00     0.058 A 
HETATM   27  C   UNL     1     -10.855   2.334 -34.231  1.00  0.00     0.019 A 
HETATM   28  C   UNL     1     -11.100   0.995 -33.927  1.00  0.00     0.001 A 
HETATM   29  C   UNL     1     -10.251   0.324 -33.054  1.00  0.00     0.002 A 
HETATM   30  C   UNL     1      -9.153   0.986 -32.496  1.00  0.00     0.030 A 
BRANCH  26  31
HETATM   31  C   UNL     1      -9.745   4.462 -33.880  1.00  0.00     0.254 C 
HETATM   32  N   UNL     1     -10.142   4.868 -35.129  1.00  0.00    -0.351 N 
HETATM   33  H   UNL     1      -9.860   4.246 -35.882  1.00  0.00     0.163 HD
HETATM   34  O   UNL     1      -9.499   5.202 -32.937  1.00  0.00    -0.268 OA
BRANCH  32  35
HETATM   35  C   UNL     1     -10.159   6.274 -35.457  1.00  0.00     0.187 C 
BRANCH  35  36
HETATM   36  C   UNL     1     -11.573   6.697 -35.614  1.00  0.00     0.070 A 
HETATM   37  O   UNL     1     -12.509   5.708 -35.703  1.00  0.00    -0.325 OA
HETATM   38  C   UNL     1     -13.718   6.314 -35.824  1.00  0.00     0.142 A 
HETATM   39  C   UNL     1     -13.575   7.682 -35.814  1.00  0.00     0.027 A 
HETATM   40  C   UNL     1     -12.189   7.932 -35.683  1.00  0.00     0.036 A 
ENDBRANCH  35  36
ENDBRANCH  32  35
ENDBRANCH  26  31
ENDBRANCH  22  25
ENDBRANCH   1  21
TORSDOF 7
ENDMDL
MODEL 9
REMARK VINA RESULT:     -10.2      2.148      3.019
REMARK  7 active torsions:
REMARK  status: ('A' for Active; 'I' for Inactive)
REMARK    1  A    between atoms: C_2  and  C_3 
REMARK    2  A    between atoms: N_16  and  C_17 
REMARK    3  A    between atoms: C_17  and  C_18 
REMARK       I    between atoms: C_18  and  N_19 
REMARK    4  A    between atoms: N_19  and  C_20 
REMARK    5  A    between atoms: C_21  and  C_22 
REMARK       I    between atoms: C_22  and  N_23 
REMARK    6  A    between atoms: N_23  and  C_24 
REMARK    7  A    between atoms: C_24  and  C_25 
ROOT
HETATM    1  C   UNL     1      -6.094   3.546 -30.926  1.00  0.00     0.240 C 
ENDROOT
BRANCH   1   2
HETATM    2  N   UNL     1      -5.071   2.634 -31.373  1.00  0.00    -0.259 N 
HETATM    3  C   UNL     1      -4.223   2.885 -32.404  1.00  0.00     0.326 A 
HETATM    4  N   UNL     1      -3.548   1.729 -32.716  1.00  0.00    -0.321 N 
HETATM    5  O   UNL     1      -4.116   3.924 -33.034  1.00  0.00    -0.247 OA
HETATM    6  C   UNL     1      -3.998   0.594 -31.932  1.00  0.00     0.140 A 
HETATM    7  H   UNL     1      -2.959   1.668 -33.536  1.00  0.00     0.165 HD
HETATM    8  C   UNL     1      -2.844   0.106 -31.055  1.00  0.00     0.054 C 
HETATM    9  C   UNL     1      -5.043   1.308 -31.037  1.00  0.00     0.261 A 
HETATM   10  O   UNL     1      -5.769   0.767 -30.212  1.00  0.00    -0.270 OA
BRANCH   6  11
HETATM   11  C   UNL     1      -4.682  -0.451 -32.817  1.00  0.00    -0.020 A 
HETATM   12  C   UNL     1      -4.121  -1.721 -33.054  1.00  0.00     0.022 A 
HETATM   13  C   UNL     1      -4.804  -2.710 -33.791  1.00  0.00    -0.025 A 
HETATM   14  C   UNL     1      -6.082  -2.426 -34.316  1.00  0.00    -0.026 A 
HETATM   15  C   UNL     1      -4.248  -3.982 -34.003  1.00  0.00     0.012 A 
HETATM   16  C   UNL     1      -6.638  -1.159 -34.106  1.00  0.00     0.013 A 
HETATM   17  C   UNL     1      -6.777  -3.421 -35.025  1.00  0.00     0.012 A 
HETATM   18  C   UNL     1      -5.948  -0.190 -33.372  1.00  0.00     0.011 A 
HETATM   19  C   UNL     1      -6.213  -4.682 -35.220  1.00  0.00     0.001 A 
HETATM   20  C   UNL     1      -4.947  -4.961 -34.712  1.00  0.00     0.001 A 
ENDBRANCH   6  11
ENDBRANCH   1   2
BRANCH   1  21
HETATM   21  C   UNL     1      -5.566   4.865 -30.361  1.00  0.00     0.240 C 
HETATM   22  N   UNL     1      -5.489   5.832 -31.356  1.00  0.00    -0.325 N 
HETATM   23  H   UNL     1      -5.355   5.482 -32.299  1.00  0.00     0.169 HD
HETATM   24  O   UNL     1      -5.191   5.015 -29.201  1.00  0.00    -0.271 OA
BRANCH  22  25
HETATM   25  C   UNL     1      -5.227   7.205 -31.169  1.00  0.00     0.050 A 
HETATM   26  C   UNL     1      -3.961   7.808 -31.173  1.00  0.00     0.058 A 
HETATM   27  C   UNL     1      -3.832   9.190 -30.939  1.00  0.00     0.019 A 
HETATM   28  C   UNL     1      -4.959   9.975 -30.702  1.00  0.00     0.001 A 
HETATM   29  C   UNL     1      -6.215   9.381 -30.672  1.00  0.00     0.002 A 
HETATM   30  C   UNL     1      -6.346   8.007 -30.892  1.00  0.00     0.030 A 
BRANCH  26  31
HETATM   31  C   UNL     1      -2.687   7.062 -31.159  1.00  0.00     0.254 C 
HETATM   32  N   UNL     1      -2.340   6.545 -29.936  1.00  0.00    -0.351 N 
HETATM   33  H   UNL     1      -2.605   7.127 -29.145  1.00  0.00     0.163 HD
HETATM   34  O   UNL     1      -2.088   6.869 -32.209  1.00  0.00    -0.268 OA
BRANCH  32  35
HETATM   35  C   UNL     1      -1.102   5.818 -29.789  1.00  0.00     0.187 C 
BRANCH  35  36
HETATM   36  C   UNL     1      -0.203   6.608 -28.910  1.00  0.00     0.070 A 
HETATM   37  O   UNL     1      -0.037   6.162 -27.631  1.00  0.00    -0.325 OA
HETATM   38  C   UNL     1       0.826   7.014 -27.022  1.00  0.00     0.142 A 
HETATM   39  C   UNL     1       1.222   8.004 -27.890  1.00  0.00     0.027 A 
HETATM   40  C   UNL     1       0.554   7.746 -29.111  1.00  0.00     0.036 A 
ENDBRANCH  35  36
ENDBRANCH  32  35
ENDBRANCH  26  31
ENDBRANCH  22  25
ENDBRANCH   1  21
TORSDOF 7
ENDMDL
MODEL 10
REMARK VINA RESULT:     -10.2      2.361      9.718
REMARK  7 active torsions:
REMARK  status: ('A' for Active; 'I' for Inactive)
REMARK    1  A    between atoms: C_2  and  C_3 
REMARK    2  A    between atoms: N_16  and  C_17 
REMARK    3  A    between atoms: C_17  and  C_18 
REMARK       I    between atoms: C_18  and  N_19 
REMARK    4  A    between atoms: N_19  and  C_20 
REMARK    5  A    between atoms: C_21  and  C_22 
REMARK       I    between atoms: C_22  and  N_23 
REMARK    6  A    between atoms: N_23  and  C_24 
REMARK    7  A    between atoms: C_24  and  C_25 
ROOT
HETATM    1  C   UNL     1      -6.389   5.314 -31.050  1.00  0.00     0.240 C 
ENDROOT
BRANCH   1   2
HETATM    2  N   UNL     1      -5.062   4.854 -31.377  1.00  0.00    -0.259 N 
HETATM    3  C   UNL     1      -4.477   3.759 -30.825  1.00  0.00     0.326 A 
HETATM    4  N   UNL     1      -3.146   3.745 -31.169  1.00  0.00    -0.321 N 
HETATM    5  O   UNL     1      -4.991   2.950 -30.072  1.00  0.00    -0.247 OA
HETATM    6  C   UNL     1      -2.755   4.923 -31.921  1.00  0.00     0.140 A 
HETATM    7  H   UNL     1      -2.504   3.081 -30.759  1.00  0.00     0.165 HD
HETATM    8  C   UNL     1      -2.317   4.496 -33.323  1.00  0.00     0.054 C 
HETATM    9  C   UNL     1      -4.132   5.628 -32.017  1.00  0.00     0.261 A 
HETATM   10  O   UNL     1      -4.343   6.723 -32.523  1.00  0.00    -0.270 OA
BRANCH   6  11
HETATM   11  C   UNL     1      -1.772   5.785 -31.124  1.00  0.00    -0.020 A 
HETATM   12  C   UNL     1      -2.171   6.552 -30.014  1.00  0.00     0.022 A 
HETATM   13  C   UNL     1      -1.241   7.266 -29.229  1.00  0.00    -0.025 A 
HETATM   14  C   UNL     1       0.128   7.221 -29.563  1.00  0.00    -0.026 A 
HETATM   15  C   UNL     1      -1.645   8.009 -28.108  1.00  0.00     0.012 A 
HETATM   16  C   UNL     1       0.533   6.481 -30.680  1.00  0.00     0.013 A 
HETATM   17  C   UNL     1       1.059   7.907 -28.765  1.00  0.00     0.012 A 
HETATM   18  C   UNL     1      -0.402   5.778 -31.447  1.00  0.00     0.011 A 
HETATM   19  C   UNL     1       0.642   8.635 -27.651  1.00  0.00     0.001 A 
HETATM   20  C   UNL     1      -0.710   8.689 -27.324  1.00  0.00     0.001 A 
ENDBRANCH   6  11
ENDBRANCH   1   2
BRANCH   1  21
HETATM   21  C   UNL     1      -7.447   4.211 -31.000  1.00  0.00     0.240 C 
HETATM   22  N   UNL     1      -7.584   3.602 -32.241  1.00  0.00    -0.325 N 
HETATM   23  H   UNL     1      -7.352   4.180 -33.042  1.00  0.00     0.169 HD
HETATM   24  O   UNL     1      -8.131   3.959 -30.012  1.00  0.00    -0.271 OA
BRANCH  22  25
HETATM   25  C   UNL     1      -8.323   2.434 -32.523  1.00  0.00     0.050 A 
HETATM   26  C   UNL     1      -7.804   1.135 -32.618  1.00  0.00     0.058 A 
HETATM   27  C   UNL     1      -8.646   0.055 -32.939  1.00  0.00     0.019 A 
HETATM   28  C   UNL     1     -10.006   0.262 -33.167  1.00  0.00     0.001 A 
HETATM   29  C   UNL     1     -10.525   1.549 -33.099  1.00  0.00     0.002 A 
HETATM   30  C   UNL     1      -9.688   2.627 -32.791  1.00  0.00     0.030 A 
BRANCH  26  31
HETATM   31  C   UNL     1      -6.362   0.820 -32.649  1.00  0.00     0.254 C 
HETATM   32  N   UNL     1      -6.026  -0.379 -32.071  1.00  0.00    -0.351 N 
HETATM   33  H   UNL     1      -6.590  -0.626 -31.261  1.00  0.00     0.163 HD
HETATM   34  O   UNL     1      -5.593   1.560 -33.248  1.00  0.00    -0.268 OA
BRANCH  32  35
HETATM   35  C   UNL     1      -4.643  -0.788 -32.015  1.00  0.00     0.187 C 
BRANCH  35  36
HETATM   36  C   UNL     1      -4.466  -1.950 -32.921  1.00  0.00     0.070 A 
HETATM   37  O   UNL     1      -3.574  -2.908 -32.534  1.00  0.00    -0.325 OA
HETATM   38  C   UNL     1      -3.586  -3.872 -33.490  1.00  0.00     0.142 A 
HETATM   39  C   UNL     1      -4.475  -3.550 -34.489  1.00  0.00     0.027 A 
HETATM   40  C   UNL     1      -5.042  -2.306 -34.125  1.00  0.00     0.036 A 
ENDBRANCH  35  36
ENDBRANCH  32  35
ENDBRANCH  26  31
ENDBRANCH  22  25
ENDBRANCH   1  21
TORSDOF 7
ENDMDL
