MODEL 1
REMARK VINA RESULT:      -8.6      0.000      0.000
REMARK  4 active torsions:
REMARK  status: ('A' for Active; 'I' for Inactive)
REMARK    1  A    between atoms: C_3  and  N_4 
REMARK       I    between atoms: N_4  and  C_5 
REMARK       I    between atoms: C_5  and  N_6 
REMARK    2  A    between atoms: N_6  and  C_7 
REMARK    3  A    between atoms: C_7  and  C_8 
REMARK    4  A    between atoms: C_11  and  C_12 
ROOT
HETATM    1  N   UNL     1      -2.267   4.043 -32.481  1.00  0.00    -0.309 N 
HETATM    2  C   UNL     1      -3.607   3.979 -32.158  1.00  0.00     0.321 C 
HETATM    3  N   UNL     1      -4.188   2.870 -32.734  1.00  0.00    -0.335 N 
HETATM    4  O   UNL     1      -4.218   4.725 -31.407  1.00  0.00    -0.247 OA
HETATM    5  H   UNL     1      -1.861   3.124 -32.583  1.00  0.00     0.170 HD
HETATM    6  H   UNL     1      -3.816   2.585 -33.630  1.00  0.00     0.164 HD
ENDROOT
BRANCH   3   7
HETATM    7  C   UNL     1      -5.564   2.525 -32.428  1.00  0.00     0.213 C 
BRANCH   7   8
HETATM    8  C   UNL     1      -6.006   1.251 -33.052  1.00  0.00     0.190 A 
HETATM    9  O   UNL     1      -7.271   1.172 -33.556  1.00  0.00    -0.194 OA
HETATM   10  N   UNL     1      -7.414  -0.116 -34.072  1.00  0.00    -0.106 NA
HETATM   11  C   UNL     1      -6.233  -0.701 -33.812  1.00  0.00     0.189 A 
HETATM   12  N   UNL     1      -5.325   0.136 -33.196  1.00  0.00    -0.202 NA
BRANCH  11  13
HETATM   13  C   UNL     1      -5.910  -2.089 -34.129  1.00  0.00     0.014 A 
HETATM   14  C   UNL     1      -4.611  -2.591 -33.962  1.00  0.00     0.015 A 
HETATM   15  C   UNL     1      -4.315  -3.920 -34.282  1.00  0.00     0.001 A 
HETATM   16  C   UNL     1      -5.313  -4.760 -34.772  1.00  0.00     0.000 A 
HETATM   17  C   UNL     1      -6.608  -4.275 -34.942  1.00  0.00     0.001 A 
HETATM   18  C   UNL     1      -6.904  -2.948 -34.622  1.00  0.00     0.015 A 
ENDBRANCH  11  13
ENDBRANCH   7   8
ENDBRANCH   3   7
BRANCH   1  19
HETATM   19  C   UNL     1      -1.381   5.044 -32.014  1.00  0.00     0.042 A 
HETATM   20  C   UNL     1      -1.152   6.271 -32.660  1.00  0.00    -0.035 A 
HETATM   21  C   UNL     1      -1.748   6.648 -33.988  1.00  0.00     0.050 C 
HETATM   22  C   UNL     1      -0.293   7.206 -32.049  1.00  0.00     0.009 A 
HETATM   23  C   UNL     1       0.368   6.912 -30.858  1.00  0.00     0.001 A 
HETATM   24  C   UNL     1       0.190   5.672 -30.260  1.00  0.00     0.002 A 
HETATM   25  C   UNL     1      -0.671   4.740 -30.841  1.00  0.00     0.030 A 
ENDBRANCH   1  19
TORSDOF 4
ENDMDL
MODEL 2
REMARK VINA RESULT:      -8.5      2.071      8.277
REMARK  4 active torsions:
REMARK  status: ('A' for Active; 'I' for Inactive)
REMARK    1  A    between atoms: C_3  and  N_4 
REMARK       I    between atoms: N_4  and  C_5 
REMARK       I    between atoms: C_5  and  N_6 
REMARK    2  A    between atoms: N_6  and  C_7 
REMARK    3  A    between atoms: C_7  and  C_8 
REMARK    4  A    between atoms: C_11  and  C_12 
ROOT
HETATM    1  N   UNL     1      -6.942  -0.928 -33.358  1.00  0.00    -0.309 N 
HETATM    2  C   UNL     1      -7.358   0.141 -34.124  1.00  0.00     0.321 C 
HETATM    3  N   UNL     1      -7.911   1.119 -33.325  1.00  0.00    -0.335 N 
HETATM    4  O   UNL     1      -7.206   0.285 -35.328  1.00  0.00    -0.247 OA
HETATM    5  H   UNL     1      -6.628  -0.636 -32.444  1.00  0.00     0.170 HD
HETATM    6  H   UNL     1      -8.402   0.799 -32.502  1.00  0.00     0.164 HD
ENDROOT
BRANCH   3   7
HETATM    7  C   UNL     1      -8.303   2.393 -33.897  1.00  0.00     0.213 C 
BRANCH   7   8
HETATM    8  C   UNL     1      -7.209   3.399 -33.903  1.00  0.00     0.190 A 
HETATM    9  O   UNL     1      -7.520   4.705 -34.143  1.00  0.00    -0.194 OA
HETATM   10  N   UNL     1      -6.321   5.416 -34.089  1.00  0.00    -0.106 NA
HETATM   11  C   UNL     1      -5.397   4.472 -33.846  1.00  0.00     0.189 A 
HETATM   12  N   UNL     1      -5.925   3.205 -33.701  1.00  0.00    -0.202 NA
BRANCH  11  13
HETATM   13  C   UNL     1      -3.962   4.725 -33.746  1.00  0.00     0.014 A 
HETATM   14  C   UNL     1      -3.235   4.355 -32.605  1.00  0.00     0.015 A 
HETATM   15  C   UNL     1      -1.864   4.616 -32.520  1.00  0.00     0.001 A 
HETATM   16  C   UNL     1      -1.205   5.249 -33.573  1.00  0.00     0.000 A 
HETATM   17  C   UNL     1      -1.915   5.621 -34.713  1.00  0.00     0.001 A 
HETATM   18  C   UNL     1      -3.285   5.360 -34.798  1.00  0.00     0.015 A 
ENDBRANCH  11  13
ENDBRANCH   7   8
ENDBRANCH   3   7
BRANCH   1  19
HETATM   19  C   UNL     1      -6.299  -2.078 -33.876  1.00  0.00     0.042 A 
HETATM   20  C   UNL     1      -4.906  -2.269 -33.906  1.00  0.00    -0.035 A 
HETATM   21  C   UNL     1      -3.905  -1.233 -33.474  1.00  0.00     0.050 C 
HETATM   22  C   UNL     1      -4.402  -3.493 -34.389  1.00  0.00     0.009 A 
HETATM   23  C   UNL     1      -5.251  -4.481 -34.885  1.00  0.00     0.001 A 
HETATM   24  C   UNL     1      -6.621  -4.259 -34.917  1.00  0.00     0.002 A 
HETATM   25  C   UNL     1      -7.140  -3.060 -34.425  1.00  0.00     0.030 A 
ENDBRANCH   1  19
TORSDOF 4
ENDMDL
MODEL 3
REMARK VINA RESULT:      -8.5      1.762      2.337
REMARK  4 active torsions:
REMARK  status: ('A' for Active; 'I' for Inactive)
REMARK    1  A    between atoms: C_3  and  N_4 
REMARK       I    between atoms: N_4  and  C_5 
REMARK       I    between atoms: C_5  and  N_6 
REMARK    2  A    between atoms: N_6  and  C_7 
REMARK    3  A    between atoms: C_7  and  C_8 
REMARK    4  A    between atoms: C_11  and  C_12 
ROOT
HETATM    1  N   UNL     1      -4.756   4.977 -33.744  1.00  0.00    -0.309 N 
HETATM    2  C   UNL     1      -5.102   3.903 -32.951  1.00  0.00     0.321 C 
HETATM    3  N   UNL     1      -6.357   3.442 -33.286  1.00  0.00    -0.335 N 
HETATM    4  O   UNL     1      -4.402   3.350 -32.115  1.00  0.00    -0.247 OA
HETATM    5  H   UNL     1      -5.153   4.904 -34.669  1.00  0.00     0.170 HD
HETATM    6  H   UNL     1      -7.019   4.137 -33.602  1.00  0.00     0.164 HD
ENDROOT
BRANCH   3   7
HETATM    7  C   UNL     1      -6.880   2.236 -32.672  1.00  0.00     0.213 C 
BRANCH   7   8
HETATM    8  C   UNL     1      -6.715   1.024 -33.515  1.00  0.00     0.190 A 
HETATM    9  O   UNL     1      -7.165   1.053 -34.802  1.00  0.00    -0.194 OA
HETATM   10  N   UNL     1      -6.884  -0.198 -35.350  1.00  0.00    -0.106 NA
HETATM   11  C   UNL     1      -6.314  -0.873 -34.338  1.00  0.00     0.189 A 
HETATM   12  N   UNL     1      -6.173  -0.128 -33.185  1.00  0.00    -0.202 NA
BRANCH  11  13
HETATM   13  C   UNL     1      -5.879  -2.266 -34.414  1.00  0.00     0.014 A 
HETATM   14  C   UNL     1      -6.749  -3.278 -34.843  1.00  0.00     0.015 A 
HETATM   15  C   UNL     1      -6.322  -4.608 -34.898  1.00  0.00     0.001 A 
HETATM   16  C   UNL     1      -5.021  -4.941 -34.524  1.00  0.00     0.000 A 
HETATM   17  C   UNL     1      -4.145  -3.945 -34.097  1.00  0.00     0.001 A 
HETATM   18  C   UNL     1      -4.572  -2.616 -34.043  1.00  0.00     0.015 A 
ENDBRANCH  11  13
ENDBRANCH   7   8
ENDBRANCH   3   7
BRANCH   1  19
HETATM   19  C   UNL     1      -3.514   5.653 -33.673  1.00  0.00     0.042 A 
HETATM   20  C   UNL     1      -3.215   6.680 -32.761  1.00  0.00    -0.035 A 
HETATM   21  C   UNL     1      -4.210   7.266 -31.796  1.00  0.00     0.050 C 
HETATM   22  C   UNL     1      -1.915   7.222 -32.755  1.00  0.00     0.009 A 
HETATM   23  C   UNL     1      -0.949   6.798 -33.667  1.00  0.00     0.001 A 
HETATM   24  C   UNL     1      -1.271   5.831 -34.610  1.00  0.00     0.002 A 
HETATM   25  C   UNL     1      -2.549   5.271 -34.619  1.00  0.00     0.030 A 
ENDBRANCH   1  19
TORSDOF 4
ENDMDL
MODEL 4
REMARK VINA RESULT:      -8.4      1.534      2.266
REMARK  4 active torsions:
REMARK  status: ('A' for Active; 'I' for Inactive)
REMARK    1  A    between atoms: C_3  and  N_4 
REMARK       I    between atoms: N_4  and  C_5 
REMARK       I    between atoms: C_5  and  N_6 
REMARK    2  A    between atoms: N_6  and  C_7 
REMARK    3  A    between atoms: C_7  and  C_8 
REMARK    4  A    between atoms: C_11  and  C_12 
ROOT
HETATM    1  N   UNL     1      -2.840   4.200 -31.200  1.00  0.00    -0.309 N 
HETATM    2  C   UNL     1      -4.188   3.913 -31.262  1.00  0.00     0.321 C 
HETATM    3  N   UNL     1      -4.507   2.904 -30.379  1.00  0.00    -0.335 N 
HETATM    4  O   UNL     1      -5.033   4.496 -31.925  1.00  0.00    -0.247 OA
HETATM    5  H   UNL     1      -2.469   4.061 -30.271  1.00  0.00     0.170 HD
HETATM    6  H   UNL     1      -3.794   2.204 -30.225  1.00  0.00     0.164 HD
ENDROOT
BRANCH   3   7
HETATM    7  C   UNL     1      -5.892   2.521 -30.177  1.00  0.00     0.213 C 
BRANCH   7   8
HETATM    8  C   UNL     1      -6.345   1.441 -31.091  1.00  0.00     0.190 A 
HETATM    9  O   UNL     1      -7.684   1.223 -31.235  1.00  0.00    -0.194 OA
HETATM   10  N   UNL     1      -7.819   0.169 -32.138  1.00  0.00    -0.106 NA
HETATM   11  C   UNL     1      -6.553  -0.167 -32.435  1.00  0.00     0.189 A 
HETATM   12  N   UNL     1      -5.610   0.626 -31.815  1.00  0.00    -0.202 NA
BRANCH  11  13
HETATM   13  C   UNL     1      -6.175  -1.265 -33.321  1.00  0.00     0.014 A 
HETATM   14  C   UNL     1      -7.140  -1.998 -34.026  1.00  0.00     0.015 A 
HETATM   15  C   UNL     1      -6.762  -3.054 -34.860  1.00  0.00     0.001 A 
HETATM   16  C   UNL     1      -5.416  -3.390 -34.999  1.00  0.00     0.000 A 
HETATM   17  C   UNL     1      -4.446  -2.669 -34.305  1.00  0.00     0.001 A 
HETATM   18  C   UNL     1      -4.823  -1.612 -33.473  1.00  0.00     0.015 A 
ENDBRANCH  11  13
ENDBRANCH   7   8
ENDBRANCH   3   7
BRANCH   1  19
HETATM   19  C   UNL     1      -2.205   5.214 -31.957  1.00  0.00     0.042 A 
HETATM   20  C   UNL     1      -1.890   6.495 -31.470  1.00  0.00    -0.035 A 
HETATM   21  C   UNL     1      -2.271   6.993 -30.103  1.00  0.00     0.050 C 
HETATM   22  C   UNL     1      -1.195   7.386 -32.312  1.00  0.00     0.009 A 
HETATM   23  C   UNL     1      -0.871   7.040 -33.623  1.00  0.00     0.001 A 
HETATM   24  C   UNL     1      -1.245   5.799 -34.120  1.00  0.00     0.002 A 
HETATM   25  C   UNL     1      -1.917   4.897 -33.295  1.00  0.00     0.030 A 
ENDBRANCH   1  19
TORSDOF 4
ENDMDL
MODEL 5
REMARK VINA RESULT:      -8.4      1.747      8.506
REMARK  4 active torsions:
REMARK  status: ('A' for Active; 'I' for Inactive)
REMARK    1  A    between atoms: C_3  and  N_4 
REMARK       I    between atoms: N_4  and  C_5 
REMARK       I    between atoms: C_5  and  N_6 
REMARK    2  A    between atoms: N_6  and  C_7 
REMARK    3  A    between atoms: C_7  and  C_8 
REMARK    4  A    between atoms: C_11  and  C_12 
ROOT
HETATM    1  N   UNL     1      -6.427   0.209 -32.910  1.00  0.00    -0.309 N 
HETATM    2  C   UNL     1      -6.649   1.386 -33.595  1.00  0.00     0.321 C 
HETATM    3  N   UNL     1      -6.968   2.401 -32.717  1.00  0.00    -0.335 N 
HETATM    4  O   UNL     1      -6.515   1.576 -34.794  1.00  0.00    -0.247 OA
HETATM    5  H   UNL     1      -6.029   0.375 -31.997  1.00  0.00     0.170 HD
HETATM    6  H   UNL     1      -7.483   2.131 -31.890  1.00  0.00     0.164 HD
ENDROOT
BRANCH   3   7
HETATM    7  C   UNL     1      -7.118   3.762 -33.197  1.00  0.00     0.213 C 
BRANCH   7   8
HETATM    8  C   UNL     1      -5.823   4.445 -33.448  1.00  0.00     0.190 A 
HETATM    9  O   UNL     1      -5.489   4.768 -34.731  1.00  0.00    -0.194 OA
HETATM   10  N   UNL     1      -4.242   5.390 -34.672  1.00  0.00    -0.106 NA
HETATM   11  C   UNL     1      -3.929   5.364 -33.366  1.00  0.00     0.189 A 
HETATM   12  N   UNL     1      -4.908   4.801 -32.574  1.00  0.00    -0.202 NA
BRANCH  11  13
HETATM   13  C   UNL     1      -2.678   5.867 -32.805  1.00  0.00     0.014 A 
HETATM   14  C   UNL     1      -2.448   7.241 -32.654  1.00  0.00     0.015 A 
HETATM   15  C   UNL     1      -1.240   7.707 -32.126  1.00  0.00     0.001 A 
HETATM   16  C   UNL     1      -0.248   6.805 -31.745  1.00  0.00     0.000 A 
HETATM   17  C   UNL     1      -0.463   5.435 -31.889  1.00  0.00     0.001 A 
HETATM   18  C   UNL     1      -1.671   4.970 -32.415  1.00  0.00     0.015 A 
ENDBRANCH  11  13
ENDBRANCH   7   8
ENDBRANCH   3   7
BRANCH   1  19
HETATM   19  C   UNL     1      -6.045  -1.009 -33.522  1.00  0.00     0.042 A 
HETATM   20  C   UNL     1      -4.720  -1.467 -33.629  1.00  0.00    -0.035 A 
HETATM   21  C   UNL     1      -3.518  -0.678 -33.189  1.00  0.00     0.050 C 
HETATM   22  C   UNL     1      -4.487  -2.732 -34.204  1.00  0.00     0.009 A 
HETATM   23  C   UNL     1      -5.532  -3.500 -34.713  1.00  0.00     0.001 A 
HETATM   24  C   UNL     1      -6.831  -3.012 -34.667  1.00  0.00     0.002 A 
HETATM   25  C   UNL     1      -7.083  -1.769 -34.085  1.00  0.00     0.030 A 
ENDBRANCH   1  19
TORSDOF 4
ENDMDL
MODEL 6
REMARK VINA RESULT:      -8.3      2.072      9.001
REMARK  4 active torsions:
REMARK  status: ('A' for Active; 'I' for Inactive)
REMARK    1  A    between atoms: C_3  and  N_4 
REMARK       I    between atoms: N_4  and  C_5 
REMARK       I    between atoms: C_5  and  N_6 
REMARK    2  A    between atoms: N_6  and  C_7 
REMARK    3  A    between atoms: C_7  and  C_8 
REMARK    4  A    between atoms: C_11  and  C_12 
ROOT
HETATM    1  N   UNL     1      -4.013  -1.610 -33.633  1.00  0.00    -0.309 N 
HETATM    2  C   UNL     1      -4.178  -1.063 -32.378  1.00  0.00     0.321 C 
HETATM    3  N   UNL     1      -3.268  -0.048 -32.171  1.00  0.00    -0.335 N 
HETATM    4  O   UNL     1      -5.043  -1.344 -31.561  1.00  0.00    -0.247 OA
HETATM    5  H   UNL     1      -3.701  -0.922 -34.304  1.00  0.00     0.170 HD
HETATM    6  H   UNL     1      -2.368  -0.157 -32.617  1.00  0.00     0.164 HD
ENDROOT
BRANCH   3   7
HETATM    7  C   UNL     1      -3.337   0.761 -30.968  1.00  0.00     0.213 C 
BRANCH   7   8
HETATM    8  C   UNL     1      -3.506   2.211 -31.240  1.00  0.00     0.190 A 
HETATM    9  O   UNL     1      -4.729   2.779 -31.038  1.00  0.00    -0.194 OA
HETATM   10  N   UNL     1      -4.601   4.128 -31.368  1.00  0.00    -0.106 NA
HETATM   11  C   UNL     1      -3.321   4.244 -31.760  1.00  0.00     0.189 A 
HETATM   12  N   UNL     1      -2.605   3.068 -31.669  1.00  0.00    -0.202 NA
BRANCH  11  13
HETATM   13  C   UNL     1      -2.715   5.480 -32.249  1.00  0.00     0.014 A 
HETATM   14  C   UNL     1      -1.866   5.482 -33.365  1.00  0.00     0.015 A 
HETATM   15  C   UNL     1      -1.284   6.672 -33.813  1.00  0.00     0.001 A 
HETATM   16  C   UNL     1      -1.543   7.871 -33.151  1.00  0.00     0.000 A 
HETATM   17  C   UNL     1      -2.385   7.883 -32.041  1.00  0.00     0.001 A 
HETATM   18  C   UNL     1      -2.968   6.695 -31.594  1.00  0.00     0.015 A 
ENDBRANCH  11  13
ENDBRANCH   7   8
ENDBRANCH   3   7
BRANCH   1  19
HETATM   19  C   UNL     1      -4.817  -2.647 -34.163  1.00  0.00     0.042 A 
HETATM   20  C   UNL     1      -6.089  -2.460 -34.733  1.00  0.00    -0.035 A 
HETATM   21  C   UNL     1      -6.808  -1.140 -34.772  1.00  0.00     0.050 C 
HETATM   22  C   UNL     1      -6.753  -3.573 -35.285  1.00  0.00     0.009 A 
HETATM   23  C   UNL     1      -6.199  -4.851 -35.222  1.00  0.00     0.001 A 
HETATM   24  C   UNL     1      -4.974  -5.041 -34.597  1.00  0.00     0.002 A 
HETATM   25  C   UNL     1      -4.294  -3.947 -34.061  1.00  0.00     0.030 A 
ENDBRANCH   1  19
TORSDOF 4
ENDMDL
MODEL 7
REMARK VINA RESULT:      -8.1      4.993      8.586
REMARK  4 active torsions:
REMARK  status: ('A' for Active; 'I' for Inactive)
REMARK    1  A    between atoms: C_3  and  N_4 
REMARK       I    between atoms: N_4  and  C_5 
REMARK       I    between atoms: C_5  and  N_6 
REMARK    2  A    between atoms: N_6  and  C_7 
REMARK    3  A    between atoms: C_7  and  C_8 
REMARK    4  A    between atoms: C_11  and  C_12 
ROOT
HETATM    1  N   UNL     1      -6.776  -0.481 -33.284  1.00  0.00    -0.309 N 
HETATM    2  C   UNL     1      -7.175   0.595 -34.049  1.00  0.00     0.321 C 
HETATM    3  N   UNL     1      -7.658   1.606 -33.245  1.00  0.00    -0.335 N 
HETATM    4  O   UNL     1      -7.060   0.718 -35.260  1.00  0.00    -0.247 OA
HETATM    5  H   UNL     1      -6.418  -0.191 -32.385  1.00  0.00     0.170 HD
HETATM    6  H   UNL     1      -8.132   1.316 -32.401  1.00  0.00     0.164 HD
ENDROOT
BRANCH   3   7
HETATM    7  C   UNL     1      -8.016   2.888 -33.821  1.00  0.00     0.213 C 
BRANCH   7   8
HETATM    8  C   UNL     1      -9.480   3.066 -34.002  1.00  0.00     0.190 A 
HETATM    9  O   UNL     1      -9.929   4.155 -34.690  1.00  0.00    -0.194 OA
HETATM   10  N   UNL     1     -11.320   4.069 -34.706  1.00  0.00    -0.106 NA
HETATM   11  C   UNL     1     -11.583   2.953 -34.006  1.00  0.00     0.189 A 
HETATM   12  N   UNL     1     -10.452   2.292 -33.573  1.00  0.00    -0.202 NA
BRANCH  11  13
HETATM   13  C   UNL     1     -12.926   2.461 -33.707  1.00  0.00     0.014 A 
HETATM   14  C   UNL     1     -13.662   2.966 -32.626  1.00  0.00     0.015 A 
HETATM   15  C   UNL     1     -14.941   2.476 -32.346  1.00  0.00     0.001 A 
HETATM   16  C   UNL     1     -15.498   1.476 -33.141  1.00  0.00     0.000 A 
HETATM   17  C   UNL     1     -14.777   0.965 -34.220  1.00  0.00     0.001 A 
HETATM   18  C   UNL     1     -13.500   1.456 -34.500  1.00  0.00     0.015 A 
ENDBRANCH  11  13
ENDBRANCH   7   8
ENDBRANCH   3   7
BRANCH   1  19
HETATM   19  C   UNL     1      -6.201  -1.663 -33.808  1.00  0.00     0.042 A 
HETATM   20  C   UNL     1      -4.821  -1.930 -33.846  1.00  0.00    -0.035 A 
HETATM   21  C   UNL     1      -3.762  -0.952 -33.418  1.00  0.00     0.050 C 
HETATM   22  C   UNL     1      -4.387  -3.179 -34.335  1.00  0.00     0.009 A 
HETATM   23  C   UNL     1      -5.292  -4.117 -34.829  1.00  0.00     0.001 A 
HETATM   24  C   UNL     1      -6.648  -3.820 -34.851  1.00  0.00     0.002 A 
HETATM   25  C   UNL     1      -7.098  -2.596 -34.354  1.00  0.00     0.030 A 
ENDBRANCH   1  19
TORSDOF 4
ENDMDL
MODEL 8
REMARK VINA RESULT:      -8.1      4.806      7.702
REMARK  4 active torsions:
REMARK  status: ('A' for Active; 'I' for Inactive)
REMARK    1  A    between atoms: C_3  and  N_4 
REMARK       I    between atoms: N_4  and  C_5 
REMARK       I    between atoms: C_5  and  N_6 
REMARK    2  A    between atoms: N_6  and  C_7 
REMARK    3  A    between atoms: C_7  and  C_8 
REMARK    4  A    between atoms: C_11  and  C_12 
ROOT
HETATM    1  N   UNL     1      -4.848  -0.284 -33.117  1.00  0.00    -0.309 N 
HETATM    2  C   UNL     1      -5.911   0.192 -32.378  1.00  0.00     0.321 C 
HETATM    3  N   UNL     1      -6.131   1.525 -32.655  1.00  0.00    -0.335 N 
HETATM    4  O   UNL     1      -6.637  -0.452 -31.636  1.00  0.00    -0.247 OA
HETATM    5  H   UNL     1      -4.780   0.173 -34.015  1.00  0.00     0.170 HD
HETATM    6  H   UNL     1      -5.313   2.076 -32.874  1.00  0.00     0.164 HD
ENDROOT
BRANCH   3   7
HETATM    7  C   UNL     1      -7.280   2.207 -32.090  1.00  0.00     0.213 C 
BRANCH   7   8
HETATM    8  C   UNL     1      -8.541   1.957 -32.835  1.00  0.00     0.190 A 
HETATM    9  O   UNL     1      -8.481   1.784 -34.187  1.00  0.00    -0.194 OA
HETATM   10  N   UNL     1      -9.790   1.570 -34.618  1.00  0.00    -0.106 NA
HETATM   11  C   UNL     1     -10.519   1.657 -33.493  1.00  0.00     0.189 A 
HETATM   12  N   UNL     1      -9.764   1.875 -32.359  1.00  0.00    -0.202 NA
BRANCH  11  13
HETATM   13  C   UNL     1     -11.974   1.545 -33.440  1.00  0.00     0.014 A 
HETATM   14  C   UNL     1     -12.778   2.642 -33.100  1.00  0.00     0.015 A 
HETATM   15  C   UNL     1     -14.169   2.515 -33.041  1.00  0.00     0.001 A 
HETATM   16  C   UNL     1     -14.772   1.290 -33.322  1.00  0.00     0.000 A 
HETATM   17  C   UNL     1     -13.986   0.191 -33.663  1.00  0.00     0.001 A 
HETATM   18  C   UNL     1     -12.596   0.319 -33.723  1.00  0.00     0.015 A 
ENDBRANCH  11  13
ENDBRANCH   7   8
ENDBRANCH   3   7
BRANCH   1  19
HETATM   19  C   UNL     1      -4.394  -1.624 -33.088  1.00  0.00     0.042 A 
HETATM   20  C   UNL     1      -4.793  -2.623 -33.994  1.00  0.00    -0.035 A 
HETATM   21  C   UNL     1      -5.833  -2.424 -35.062  1.00  0.00     0.050 C 
HETATM   22  C   UNL     1      -4.210  -3.901 -33.891  1.00  0.00     0.009 A 
HETATM   23  C   UNL     1      -3.297  -4.202 -32.881  1.00  0.00     0.001 A 
HETATM   24  C   UNL     1      -2.957  -3.231 -31.949  1.00  0.00     0.002 A 
HETATM   25  C   UNL     1      -3.511  -1.954 -32.046  1.00  0.00     0.030 A 
ENDBRANCH   1  19
TORSDOF 4
ENDMDL
MODEL 9
REMARK VINA RESULT:      -8.0      4.639      7.290
REMARK  4 active torsions:
REMARK  status: ('A' for Active; 'I' for Inactive)
REMARK    1  A    between atoms: C_3  and  N_4 
REMARK       I    between atoms: N_4  and  C_5 
REMARK       I    between atoms: C_5  and  N_6 
REMARK    2  A    between atoms: N_6  and  C_7 
REMARK    3  A    between atoms: C_7  and  C_8 
REMARK    4  A    between atoms: C_11  and  C_12 
ROOT
HETATM    1  N   UNL     1     -10.353   2.080 -32.165  1.00  0.00    -0.309 N 
HETATM    2  C   UNL     1      -9.000   2.346 -32.141  1.00  0.00     0.321 C 
HETATM    3  N   UNL     1      -8.429   1.835 -30.994  1.00  0.00    -0.335 N 
HETATM    4  O   UNL     1      -8.340   2.881 -33.019  1.00  0.00    -0.247 OA
HETATM    5  H   UNL     1     -10.572   1.204 -31.712  1.00  0.00     0.170 HD
HETATM    6  H   UNL     1      -9.012   1.831 -30.169  1.00  0.00     0.164 HD
ENDROOT
BRANCH   3   7
HETATM    7  C   UNL     1      -6.991   1.882 -30.811  1.00  0.00     0.213 C 
BRANCH   7   8
HETATM    8  C   UNL     1      -6.252   0.942 -31.694  1.00  0.00     0.190 A 
HETATM    9  O   UNL     1      -5.032   1.317 -32.176  1.00  0.00    -0.194 OA
HETATM   10  N   UNL     1      -4.575   0.260 -32.963  1.00  0.00    -0.106 NA
HETATM   11  C   UNL     1      -5.569  -0.642 -32.902  1.00  0.00     0.189 A 
HETATM   12  N   UNL     1      -6.620  -0.253 -32.098  1.00  0.00    -0.202 NA
BRANCH  11  13
HETATM   13  C   UNL     1      -5.573  -1.917 -33.613  1.00  0.00     0.014 A 
HETATM   14  C   UNL     1      -4.412  -2.696 -33.719  1.00  0.00     0.015 A 
HETATM   15  C   UNL     1      -4.429  -3.909 -34.413  1.00  0.00     0.001 A 
HETATM   16  C   UNL     1      -5.606  -4.357 -35.011  1.00  0.00     0.000 A 
HETATM   17  C   UNL     1      -6.768  -3.594 -34.914  1.00  0.00     0.001 A 
HETATM   18  C   UNL     1      -6.751  -2.382 -34.218  1.00  0.00     0.015 A 
ENDBRANCH  11  13
ENDBRANCH   7   8
ENDBRANCH   3   7
BRANCH   1  19
HETATM   19  C   UNL     1     -11.217   2.441 -33.227  1.00  0.00     0.042 A 
HETATM   20  C   UNL     1     -11.810   3.707 -33.378  1.00  0.00    -0.035 A 
HETATM   21  C   UNL     1     -11.679   4.823 -32.379  1.00  0.00     0.050 C 
HETATM   22  C   UNL     1     -12.598   3.952 -34.520  1.00  0.00     0.009 A 
HETATM   23  C   UNL     1     -12.842   2.952 -35.460  1.00  0.00     0.001 A 
HETATM   24  C   UNL     1     -12.310   1.684 -35.270  1.00  0.00     0.002 A 
HETATM   25  C   UNL     1     -11.512   1.428 -34.154  1.00  0.00     0.030 A 
ENDBRANCH   1  19
TORSDOF 4
ENDMDL
MODEL 10
REMARK VINA RESULT:      -7.9      2.712      4.480
REMARK  4 active torsions:
REMARK  status: ('A' for Active; 'I' for Inactive)
REMARK    1  A    between atoms: C_3  and  N_4 
REMARK       I    between atoms: N_4  and  C_5 
REMARK       I    between atoms: C_5  and  N_6 
REMARK    2  A    between atoms: N_6  and  C_7 
REMARK    3  A    between atoms: C_7  and  C_8 
REMARK    4  A    between atoms: C_11  and  C_12 
ROOT
HETATM    1  N   UNL     1      -0.621   5.900 -28.976  1.00  0.00    -0.309 N 
HETATM    2  C   UNL     1      -1.442   6.085 -30.069  1.00  0.00     0.321 C 
HETATM    3  N   UNL     1      -1.769   4.872 -30.636  1.00  0.00    -0.335 N 
HETATM    4  O   UNL     1      -1.906   7.142 -30.469  1.00  0.00    -0.247 OA
HETATM    5  H   UNL     1      -0.826   5.036 -28.495  1.00  0.00     0.170 HD
HETATM    6  H   UNL     1      -1.064   4.150 -30.585  1.00  0.00     0.164 HD
ENDROOT
BRANCH   3   7
HETATM    7  C   UNL     1      -2.728   4.809 -31.724  1.00  0.00     0.213 C 
BRANCH   7   8
HETATM    8  C   UNL     1      -3.318   3.459 -31.914  1.00  0.00     0.190 A 
HETATM    9  O   UNL     1      -2.837   2.422 -31.170  1.00  0.00    -0.194 OA
HETATM   10  N   UNL     1      -3.561   1.292 -31.550  1.00  0.00    -0.106 NA
HETATM   11  C   UNL     1      -4.392   1.745 -32.502  1.00  0.00     0.189 A 
HETATM   12  N   UNL     1      -4.280   3.101 -32.735  1.00  0.00    -0.202 NA
BRANCH  11  13
HETATM   13  C   UNL     1      -5.332   0.911 -33.245  1.00  0.00     0.014 A 
HETATM   14  C   UNL     1      -6.378   1.476 -33.989  1.00  0.00     0.015 A 
HETATM   15  C   UNL     1      -7.277   0.663 -34.685  1.00  0.00     0.001 A 
HETATM   16  C   UNL     1      -7.142  -0.724 -34.645  1.00  0.00     0.000 A 
HETATM   17  C   UNL     1      -6.107  -1.300 -33.911  1.00  0.00     0.001 A 
HETATM   18  C   UNL     1      -5.208  -0.487 -33.216  1.00  0.00     0.015 A 
ENDBRANCH  11  13
ENDBRANCH   7   8
ENDBRANCH   3   7
BRANCH   1  19
HETATM   19  C   UNL     1      -0.140   6.947 -28.154  1.00  0.00     0.042 A 
HETATM   20  C   UNL     1      -0.679   7.293 -26.902  1.00  0.00    -0.035 A 
HETATM   21  C   UNL     1      -1.905   6.654 -26.309  1.00  0.00     0.050 C 
HETATM   22  C   UNL     1      -0.059   8.315 -26.158  1.00  0.00     0.009 A 
HETATM   23  C   UNL     1       1.034   9.018 -26.663  1.00  0.00     0.001 A 
HETATM   24  C   UNL     1       1.520   8.718 -27.928  1.00  0.00     0.002 A 
HETATM   25  C   UNL     1       0.929   7.697 -28.673  1.00  0.00     0.030 A 
ENDBRANCH   1  19
TORSDOF 4
ENDMDL
