MODEL 1
REMARK VINA RESULT:      -9.6      0.000      0.000
REMARK  4 active torsions:
REMARK  status: ('A' for Active; 'I' for Inactive)
REMARK    1  A    between atoms: O_2  and  C_3 
REMARK    2  A    between atoms: C_9  and  C_13 
REMARK    3  A    between atoms: C_19  and  C_24 
REMARK    4  A    between atoms: C_28  and  N_29 
ROOT
HETATM    1  C   UNL     1      -9.845   2.852 -34.101  1.00  0.00     0.112 A 
HETATM    2  N   UNL     1      -9.300   2.767 -32.904  1.00  0.00    -0.230 NA
HETATM    3  C   UNL     1      -8.473   1.665 -32.940  1.00  0.00     0.124 A 
HETATM    4  C   UNL     1      -7.649   1.092 -31.962  1.00  0.00     0.148 A 
HETATM    5  F   UNL     1      -7.562   1.619 -30.731  1.00  0.00    -0.203 F 
HETATM    6  C   UNL     1      -6.900  -0.052 -32.264  1.00  0.00     0.058 A 
HETATM    7  C   UNL     1      -6.949  -0.654 -33.535  1.00  0.00    -0.002 A 
HETATM    8  C   UNL     1      -7.774  -0.073 -34.525  1.00  0.00     0.046 A 
HETATM    9  C   UNL     1      -8.514   1.068 -34.194  1.00  0.00     0.066 A 
HETATM   10  N   UNL     1      -9.391   1.837 -34.912  1.00  0.00    -0.342 N 
HETATM   11  H   UNL     1      -9.668   1.686 -35.873  1.00  0.00     0.167 HD
ENDROOT
BRANCH   1  12
HETATM   12  C   UNL     1     -10.850   3.883 -34.537  1.00  0.00     0.084 C 
HETATM   13  C   UNL     1     -11.544   3.533 -35.853  1.00  0.00     0.188 C 
HETATM   14  O   UNL     1     -12.383   2.372 -35.767  1.00  0.00    -0.350 OA
HETATM   15  C   UNL     1     -13.215   2.338 -34.679  1.00  0.00     0.075 A 
HETATM   16  C   UNL     1     -14.243   1.401 -34.727  1.00  0.00     0.040 A 
HETATM   17  C   UNL     1     -13.031   3.126 -33.540  1.00  0.00    -0.021 A 
HETATM   18  C   UNL     1     -15.115   1.268 -33.644  1.00  0.00     0.039 A 
HETATM   19  C   UNL     1     -14.964   2.067 -32.510  1.00  0.00     0.068 A 
HETATM   20  C   UNL     1     -13.922   2.994 -32.460  1.00  0.00     0.046 A 
HETATM   21  C   UNL     1     -11.909   4.125 -33.461  1.00  0.00     0.056 C 
BRANCH  19  22
HETATM   22  O   UNL     1     -15.887   1.840 -31.526  1.00  0.00    -0.356 OA
HETATM   23  C   UNL     1     -17.124   2.535 -31.630  1.00  0.00     0.210 C 
ENDBRANCH  19  22
ENDBRANCH   1  12
BRANCH   7  24
HETATM   24  C   UNL     1      -6.156  -1.861 -33.855  1.00  0.00     0.072 A 
HETATM   25  C   UNL     1      -4.823  -1.995 -33.520  1.00  0.00     0.052 A 
HETATM   26  C   UNL     1      -4.225  -3.177 -33.883  1.00  0.00     0.122 A 
HETATM   27  N   UNL     1      -4.867  -4.167 -34.526  1.00  0.00    -0.231 NA
HETATM   28  C   UNL     1      -6.159  -3.960 -34.789  1.00  0.00     0.199 A 
HETATM   29  N   UNL     1      -6.829  -2.845 -34.493  1.00  0.00    -0.218 NA
BRANCH  28  30
HETATM   30  N   UNL     1      -6.838  -4.953 -35.464  1.00  0.00    -0.271 NA
HETATM   31  H   UNL     1      -6.696  -4.839 -36.457  1.00  0.00     0.127 HD
HETATM   32  H   UNL     1      -7.792  -4.990 -35.135  1.00  0.00     0.127 HD
ENDBRANCH  28  30
ENDBRANCH   7  24
TORSDOF 4
ENDMDL
MODEL 2
REMARK VINA RESULT:      -9.3      1.825      2.834
REMARK  4 active torsions:
REMARK  status: ('A' for Active; 'I' for Inactive)
REMARK    1  A    between atoms: O_2  and  C_3 
REMARK    2  A    between atoms: C_9  and  C_13 
REMARK    3  A    between atoms: C_19  and  C_24 
REMARK    4  A    between atoms: C_28  and  N_29 
ROOT
HETATM    1  C   UNL     1      -8.014   2.546 -32.525  1.00  0.00     0.112 A 
HETATM    2  N   UNL     1      -6.699   2.577 -32.441  1.00  0.00    -0.230 NA
HETATM    3  C   UNL     1      -6.265   1.329 -32.836  1.00  0.00     0.124 A 
HETATM    4  C   UNL     1      -4.977   0.787 -32.942  1.00  0.00     0.148 A 
HETATM    5  F   UNL     1      -3.891   1.512 -32.635  1.00  0.00    -0.203 F 
HETATM    6  C   UNL     1      -4.810  -0.534 -33.376  1.00  0.00     0.058 A 
HETATM    7  C   UNL     1      -5.909  -1.347 -33.712  1.00  0.00    -0.002 A 
HETATM    8  C   UNL     1      -7.208  -0.799 -33.612  1.00  0.00     0.046 A 
HETATM    9  C   UNL     1      -7.345   0.523 -33.172  1.00  0.00     0.066 A 
HETATM   10  N   UNL     1      -8.442   1.315 -32.965  1.00  0.00    -0.342 N 
HETATM   11  H   UNL     1      -9.408   1.045 -33.104  1.00  0.00     0.167 HD
ENDROOT
BRANCH   1  12
HETATM   12  C   UNL     1      -8.943   3.673 -32.162  1.00  0.00     0.084 C 
HETATM   13  C   UNL     1      -8.918   4.824 -33.168  1.00  0.00     0.188 C 
HETATM   14  O   UNL     1      -9.433   4.468 -34.458  1.00  0.00    -0.350 OA
HETATM   15  C   UNL     1     -10.616   3.778 -34.440  1.00  0.00     0.075 A 
HETATM   16  C   UNL     1     -11.291   3.691 -35.654  1.00  0.00     0.040 A 
HETATM   17  C   UNL     1     -11.112   3.123 -33.309  1.00  0.00    -0.021 A 
HETATM   18  C   UNL     1     -12.485   2.973 -35.737  1.00  0.00     0.039 A 
HETATM   19  C   UNL     1     -13.011   2.337 -34.611  1.00  0.00     0.068 A 
HETATM   20  C   UNL     1     -12.322   2.413 -33.400  1.00  0.00     0.046 A 
HETATM   21  C   UNL     1     -10.382   3.185 -31.995  1.00  0.00     0.056 C 
BRANCH  19  22
HETATM   22  O   UNL     1     -14.187   1.673 -34.828  1.00  0.00    -0.356 OA
HETATM   23  C   UNL     1     -14.547   0.673 -33.883  1.00  0.00     0.210 C 
ENDBRANCH  19  22
ENDBRANCH   1  12
BRANCH   7  24
HETATM   24  C   UNL     1      -5.732  -2.742 -34.170  1.00  0.00     0.072 A 
HETATM   25  C   UNL     1      -6.706  -3.434 -34.863  1.00  0.00     0.052 A 
HETATM   26  C   UNL     1      -6.392  -4.721 -35.223  1.00  0.00     0.122 A 
HETATM   27  N   UNL     1      -5.216  -5.306 -34.936  1.00  0.00    -0.231 NA
HETATM   28  C   UNL     1      -4.327  -4.555 -34.285  1.00  0.00     0.199 A 
HETATM   29  N   UNL     1      -4.537  -3.302 -33.878  1.00  0.00    -0.218 NA
BRANCH  28  30
HETATM   30  N   UNL     1      -3.118  -5.136 -33.962  1.00  0.00    -0.271 NA
HETATM   31  H   UNL     1      -2.420  -4.850 -34.634  1.00  0.00     0.127 HD
HETATM   32  H   UNL     1      -3.248  -6.128 -33.824  1.00  0.00     0.127 HD
ENDBRANCH  28  30
ENDBRANCH   7  24
TORSDOF 4
ENDMDL
MODEL 3
REMARK VINA RESULT:      -8.7      7.402     10.266
REMARK  4 active torsions:
REMARK  status: ('A' for Active; 'I' for Inactive)
REMARK    1  A    between atoms: O_2  and  C_3 
REMARK    2  A    between atoms: C_9  and  C_13 
REMARK    3  A    between atoms: C_19  and  C_24 
REMARK    4  A    between atoms: C_28  and  N_29 
ROOT
HETATM    1  C   UNL     1      -2.272   4.942 -33.142  1.00  0.00     0.112 A 
HETATM    2  N   UNL     1      -2.078   3.890 -32.370  1.00  0.00    -0.230 NA
HETATM    3  C   UNL     1      -3.288   3.231 -32.318  1.00  0.00     0.124 A 
HETATM    4  C   UNL     1      -3.678   2.062 -31.650  1.00  0.00     0.148 A 
HETATM    5  F   UNL     1      -2.809   1.368 -30.899  1.00  0.00    -0.203 F 
HETATM    6  C   UNL     1      -4.996   1.601 -31.764  1.00  0.00     0.058 A 
HETATM    7  C   UNL     1      -5.954   2.283 -32.535  1.00  0.00    -0.002 A 
HETATM    8  C   UNL     1      -5.560   3.459 -33.214  1.00  0.00     0.046 A 
HETATM    9  C   UNL     1      -4.239   3.898 -33.080  1.00  0.00     0.066 A 
HETATM   10  N   UNL     1      -3.571   4.980 -33.591  1.00  0.00    -0.342 N 
HETATM   11  H   UNL     1      -3.964   5.694 -34.192  1.00  0.00     0.167 HD
ENDROOT
BRANCH   1  12
HETATM   12  C   UNL     1      -1.242   5.988 -33.472  1.00  0.00     0.084 C 
HETATM   13  C   UNL     1      -1.849   7.354 -33.793  1.00  0.00     0.188 C 
HETATM   14  O   UNL     1      -2.497   7.971 -32.671  1.00  0.00    -0.350 OA
HETATM   15  C   UNL     1      -1.780   7.947 -31.505  1.00  0.00     0.075 A 
HETATM   16  C   UNL     1      -2.230   8.794 -30.495  1.00  0.00     0.040 A 
HETATM   17  C   UNL     1      -0.703   7.087 -31.275  1.00  0.00    -0.021 A 
HETATM   18  C   UNL     1      -1.585   8.806 -29.257  1.00  0.00     0.039 A 
HETATM   19  C   UNL     1      -0.489   7.974 -29.020  1.00  0.00     0.068 A 
HETATM   20  C   UNL     1      -0.051   7.116 -30.030  1.00  0.00     0.046 A 
HETATM   21  C   UNL     1      -0.220   6.147 -32.346  1.00  0.00     0.056 C 
BRANCH  19  22
HETATM   22  O   UNL     1       0.053   8.089 -27.770  1.00  0.00    -0.356 OA
HETATM   23  C   UNL     1       1.424   8.464 -27.694  1.00  0.00     0.210 C 
ENDBRANCH  19  22
ENDBRANCH   1  12
BRANCH   7  24
HETATM   24  C   UNL     1      -7.345   1.796 -32.656  1.00  0.00     0.072 A 
HETATM   25  C   UNL     1      -7.881   0.837 -31.819  1.00  0.00     0.052 A 
HETATM   26  C   UNL     1      -9.189   0.490 -32.056  1.00  0.00     0.122 A 
HETATM   27  N   UNL     1      -9.934   1.031 -33.035  1.00  0.00    -0.231 NA
HETATM   28  C   UNL     1      -9.342   1.966 -33.780  1.00  0.00     0.199 A 
HETATM   29  N   UNL     1      -8.076   2.364 -33.642  1.00  0.00    -0.218 NA
BRANCH  28  30
HETATM   30  N   UNL     1     -10.079   2.525 -34.803  1.00  0.00    -0.271 NA
HETATM   31  H   UNL     1     -11.055   2.534 -34.546  1.00  0.00     0.127 HD
HETATM   32  H   UNL     1      -9.834   2.079 -35.676  1.00  0.00     0.127 HD
ENDBRANCH  28  30
ENDBRANCH   7  24
TORSDOF 4
ENDMDL
MODEL 4
REMARK VINA RESULT:      -8.7      2.268      3.603
REMARK  4 active torsions:
REMARK  status: ('A' for Active; 'I' for Inactive)
REMARK    1  A    between atoms: O_2  and  C_3 
REMARK    2  A    between atoms: C_9  and  C_13 
REMARK    3  A    between atoms: C_19  and  C_24 
REMARK    4  A    between atoms: C_28  and  N_29 
ROOT
HETATM    1  C   UNL     1      -7.134   2.454 -31.560  1.00  0.00     0.112 A 
HETATM    2  N   UNL     1      -5.839   2.578 -31.775  1.00  0.00    -0.230 NA
HETATM    3  C   UNL     1      -5.416   1.356 -32.255  1.00  0.00     0.124 A 
HETATM    4  C   UNL     1      -4.149   0.904 -32.647  1.00  0.00     0.148 A 
HETATM    5  F   UNL     1      -3.077   1.708 -32.595  1.00  0.00    -0.203 F 
HETATM    6  C   UNL     1      -3.989  -0.411 -33.104  1.00  0.00     0.058 A 
HETATM    7  C   UNL     1      -5.074  -1.304 -33.181  1.00  0.00    -0.002 A 
HETATM    8  C   UNL     1      -6.353  -0.846 -32.793  1.00  0.00     0.046 A 
HETATM    9  C   UNL     1      -6.483   0.471 -32.337  1.00  0.00     0.066 A 
HETATM   10  N   UNL     1      -7.560   1.188 -31.890  1.00  0.00    -0.342 N 
HETATM   11  H   UNL     1      -8.510   0.849 -31.807  1.00  0.00     0.167 HD
ENDROOT
BRANCH   1  12
HETATM   12  C   UNL     1      -8.036   3.521 -31.000  1.00  0.00     0.084 C 
HETATM   13  C   UNL     1      -7.813   4.894 -31.633  1.00  0.00     0.188 C 
HETATM   14  O   UNL     1      -8.173   4.950 -33.021  1.00  0.00    -0.350 OA
HETATM   15  C   UNL     1      -9.386   4.393 -33.328  1.00  0.00     0.075 A 
HETATM   16  C   UNL     1      -9.899   4.701 -34.584  1.00  0.00     0.040 A 
HETATM   17  C   UNL     1     -10.063   3.504 -32.489  1.00  0.00    -0.021 A 
HETATM   18  C   UNL     1     -11.111   4.145 -34.998  1.00  0.00     0.039 A 
HETATM   19  C   UNL     1     -11.816   3.278 -34.161  1.00  0.00     0.068 A 
HETATM   20  C   UNL     1     -11.289   2.959 -32.908  1.00  0.00     0.046 A 
HETATM   21  C   UNL     1      -9.510   3.139 -31.137  1.00  0.00     0.056 C 
BRANCH  19  22
HETATM   22  O   UNL     1     -12.989   2.809 -34.684  1.00  0.00    -0.356 OA
HETATM   23  C   UNL     1     -13.129   1.397 -34.789  1.00  0.00     0.210 C 
ENDBRANCH  19  22
ENDBRANCH   1  12
BRANCH   7  24
HETATM   24  C   UNL     1      -4.905  -2.692 -33.665  1.00  0.00     0.072 A 
HETATM   25  C   UNL     1      -3.774  -3.443 -33.412  1.00  0.00     0.052 A 
HETATM   26  C   UNL     1      -3.768  -4.717 -33.926  1.00  0.00     0.122 A 
HETATM   27  N   UNL     1      -4.784  -5.235 -34.638  1.00  0.00    -0.231 NA
HETATM   28  C   UNL     1      -5.845  -4.446 -34.813  1.00  0.00     0.199 A 
HETATM   29  N   UNL     1      -5.946  -3.192 -34.369  1.00  0.00    -0.218 NA
BRANCH  28  30
HETATM   30  N   UNL     1      -6.895  -4.946 -35.554  1.00  0.00    -0.271 NA
HETATM   31  H   UNL     1      -6.660  -4.908 -36.535  1.00  0.00     0.127 HD
HETATM   32  H   UNL     1      -7.753  -4.497 -35.267  1.00  0.00     0.127 HD
ENDBRANCH  28  30
ENDBRANCH   7  24
TORSDOF 4
ENDMDL
MODEL 5
REMARK VINA RESULT:      -8.6      5.724      8.177
REMARK  4 active torsions:
REMARK  status: ('A' for Active; 'I' for Inactive)
REMARK    1  A    between atoms: O_2  and  C_3 
REMARK    2  A    between atoms: C_9  and  C_13 
REMARK    3  A    between atoms: C_19  and  C_24 
REMARK    4  A    between atoms: C_28  and  N_29 
ROOT
HETATM    1  C   UNL     1      -7.041   2.947 -31.603  1.00  0.00     0.112 A 
HETATM    2  N   UNL     1      -7.147   4.180 -32.058  1.00  0.00    -0.230 NA
HETATM    3  C   UNL     1      -5.886   4.729 -31.960  1.00  0.00     0.124 A 
HETATM    4  C   UNL     1      -5.403   6.003 -32.288  1.00  0.00     0.148 A 
HETATM    5  F   UNL     1      -6.213   6.943 -32.799  1.00  0.00    -0.203 F 
HETATM    6  C   UNL     1      -4.052   6.311 -32.083  1.00  0.00     0.058 A 
HETATM    7  C   UNL     1      -3.152   5.369 -31.549  1.00  0.00    -0.002 A 
HETATM    8  C   UNL     1      -3.637   4.082 -31.224  1.00  0.00     0.046 A 
HETATM    9  C   UNL     1      -4.992   3.804 -31.436  1.00  0.00     0.066 A 
HETATM   10  N   UNL     1      -5.748   2.683 -31.217  1.00  0.00    -0.342 N 
HETATM   11  H   UNL     1      -5.418   1.808 -30.830  1.00  0.00     0.167 HD
ENDROOT
BRANCH   1  12
HETATM   12  C   UNL     1      -8.169   1.957 -31.481  1.00  0.00     0.084 C 
HETATM   13  C   UNL     1      -9.199   2.073 -32.603  1.00  0.00     0.188 C 
HETATM   14  O   UNL     1      -8.682   1.721 -33.895  1.00  0.00    -0.350 OA
HETATM   15  C   UNL     1      -7.957   0.559 -33.930  1.00  0.00     0.075 A 
HETATM   16  C   UNL     1      -7.710   0.033 -35.195  1.00  0.00     0.040 A 
HETATM   17  C   UNL     1      -7.416  -0.050 -32.795  1.00  0.00    -0.021 A 
HETATM   18  C   UNL     1      -6.945  -1.127 -35.330  1.00  0.00     0.039 A 
HETATM   19  C   UNL     1      -6.421  -1.766 -34.204  1.00  0.00     0.068 A 
HETATM   20  C   UNL     1      -6.658  -1.225 -32.940  1.00  0.00     0.046 A 
HETATM   21  C   UNL     1      -7.651   0.520 -31.422  1.00  0.00     0.056 C 
BRANCH  19  22
HETATM   22  O   UNL     1      -5.696  -2.893 -34.475  1.00  0.00    -0.356 OA
HETATM   23  C   UNL     1      -6.418  -4.028 -34.939  1.00  0.00     0.210 C 
ENDBRANCH  19  22
ENDBRANCH   1  12
BRANCH   7  24
HETATM   24  C   UNL     1      -1.725   5.693 -31.334  1.00  0.00     0.072 A 
HETATM   25  C   UNL     1      -1.144   6.862 -31.784  1.00  0.00     0.052 A 
HETATM   26  C   UNL     1       0.191   7.020 -31.504  1.00  0.00     0.122 A 
HETATM   27  N   UNL     1       0.921   6.112 -30.834  1.00  0.00    -0.231 NA
HETATM   28  C   UNL     1       0.272   5.024 -30.417  1.00  0.00     0.199 A 
HETATM   29  N   UNL     1      -1.017   4.768 -30.649  1.00  0.00    -0.218 NA
BRANCH  28  30
HETATM   30  N   UNL     1       1.001   4.067 -29.742  1.00  0.00    -0.271 NA
HETATM   31  H   UNL     1       0.413   3.628 -29.047  1.00  0.00     0.127 HD
HETATM   32  H   UNL     1       1.871   4.470 -29.424  1.00  0.00     0.127 HD
ENDBRANCH  28  30
ENDBRANCH   7  24
TORSDOF 4
ENDMDL
MODEL 6
REMARK VINA RESULT:      -8.5      4.509      5.897
REMARK  4 active torsions:
REMARK  status: ('A' for Active; 'I' for Inactive)
REMARK    1  A    between atoms: O_2  and  C_3 
REMARK    2  A    between atoms: C_9  and  C_13 
REMARK    3  A    between atoms: C_19  and  C_24 
REMARK    4  A    between atoms: C_28  and  N_29 
ROOT
HETATM    1  C   UNL     1      -6.102   3.481 -33.388  1.00  0.00     0.112 A 
HETATM    2  N   UNL     1      -5.214   3.015 -32.532  1.00  0.00    -0.230 NA
HETATM    3  C   UNL     1      -5.146   1.657 -32.758  1.00  0.00     0.124 A 
HETATM    4  C   UNL     1      -4.383   0.653 -32.147  1.00  0.00     0.148 A 
HETATM    5  F   UNL     1      -3.526   0.938 -31.155  1.00  0.00    -0.203 F 
HETATM    6  C   UNL     1      -4.508  -0.676 -32.574  1.00  0.00     0.058 A 
HETATM    7  C   UNL     1      -5.390  -1.040 -33.609  1.00  0.00    -0.002 A 
HETATM    8  C   UNL     1      -6.155  -0.027 -34.230  1.00  0.00     0.046 A 
HETATM    9  C   UNL     1      -6.012   1.290 -33.781  1.00  0.00     0.066 A 
HETATM   10  N   UNL     1      -6.607   2.463 -34.163  1.00  0.00    -0.342 N 
HETATM   11  H   UNL     1      -7.307   2.569 -34.887  1.00  0.00     0.167 HD
ENDROOT
BRANCH   1  12
HETATM   12  C   UNL     1      -6.544   4.916 -33.500  1.00  0.00     0.084 C 
HETATM   13  C   UNL     1      -8.060   5.090 -33.414  1.00  0.00     0.188 C 
HETATM   14  O   UNL     1      -8.604   4.749 -32.131  1.00  0.00    -0.350 OA
HETATM   15  C   UNL     1      -7.928   5.269 -31.059  1.00  0.00     0.075 A 
HETATM   16  C   UNL     1      -8.593   5.221 -29.837  1.00  0.00     0.040 A 
HETATM   17  C   UNL     1      -6.621   5.757 -31.132  1.00  0.00    -0.021 A 
HETATM   18  C   UNL     1      -7.964   5.691 -28.683  1.00  0.00     0.039 A 
HETATM   19  C   UNL     1      -6.670   6.210 -28.742  1.00  0.00     0.068 A 
HETATM   20  C   UNL     1      -6.001   6.242 -29.966  1.00  0.00     0.046 A 
HETATM   21  C   UNL     1      -5.878   5.793 -32.440  1.00  0.00     0.056 C 
BRANCH  19  22
HETATM   22  O   UNL     1      -6.174   6.641 -27.542  1.00  0.00    -0.356 OA
HETATM   23  C   UNL     1      -5.851   8.023 -27.437  1.00  0.00     0.210 C 
ENDBRANCH  19  22
ENDBRANCH   1  12
BRANCH   7  24
HETATM   24  C   UNL     1      -5.521  -2.442 -34.060  1.00  0.00     0.072 A 
HETATM   25  C   UNL     1      -6.669  -2.939 -34.646  1.00  0.00     0.052 A 
HETATM   26  C   UNL     1      -6.636  -4.262 -35.014  1.00  0.00     0.122 A 
HETATM   27  N   UNL     1      -5.568  -5.057 -34.829  1.00  0.00    -0.231 NA
HETATM   28  C   UNL     1      -4.496  -4.487 -34.277  1.00  0.00     0.199 A 
HETATM   29  N   UNL     1      -4.429  -3.217 -33.872  1.00  0.00    -0.218 NA
BRANCH  28  30
HETATM   30  N   UNL     1      -3.392  -5.284 -34.060  1.00  0.00    -0.271 NA
HETATM   31  H   UNL     1      -3.353  -6.002 -34.770  1.00  0.00     0.127 HD
HETATM   32  H   UNL     1      -3.380  -5.586 -33.097  1.00  0.00     0.127 HD
ENDBRANCH  28  30
ENDBRANCH   7  24
TORSDOF 4
ENDMDL
MODEL 7
REMARK VINA RESULT:      -8.4      5.155      8.077
REMARK  4 active torsions:
REMARK  status: ('A' for Active; 'I' for Inactive)
REMARK    1  A    between atoms: O_2  and  C_3 
REMARK    2  A    between atoms: C_9  and  C_13 
REMARK    3  A    between atoms: C_19  and  C_24 
REMARK    4  A    between atoms: C_28  and  N_29 
ROOT
HETATM    1  C   UNL     1      -8.306   3.043 -31.489  1.00  0.00     0.112 A 
HETATM    2  N   UNL     1      -8.015   3.429 -30.262  1.00  0.00    -0.230 NA
HETATM    3  C   UNL     1      -6.973   4.324 -30.385  1.00  0.00     0.124 A 
HETATM    4  C   UNL     1      -6.256   5.048 -29.422  1.00  0.00     0.148 A 
HETATM    5  F   UNL     1      -6.540   4.938 -28.116  1.00  0.00    -0.203 F 
HETATM    6  C   UNL     1      -5.222   5.904 -29.821  1.00  0.00     0.058 A 
HETATM    7  C   UNL     1      -4.874   6.063 -31.176  1.00  0.00    -0.002 A 
HETATM    8  C   UNL     1      -5.602   5.338 -32.148  1.00  0.00     0.046 A 
HETATM    9  C   UNL     1      -6.627   4.488 -31.720  1.00  0.00     0.066 A 
HETATM   10  N   UNL     1      -7.485   3.664 -32.400  1.00  0.00    -0.342 N 
HETATM   11  H   UNL     1      -7.510   3.526 -33.402  1.00  0.00     0.167 HD
ENDROOT
BRANCH   1  12
HETATM   12  C   UNL     1      -9.362   2.037 -31.864  1.00  0.00     0.084 C 
HETATM   13  C   UNL     1      -9.919   2.243 -33.272  1.00  0.00     0.188 C 
HETATM   14  O   UNL     1      -8.955   2.008 -34.309  1.00  0.00    -0.350 OA
HETATM   15  C   UNL     1      -8.222   0.860 -34.169  1.00  0.00     0.075 A 
HETATM   16  C   UNL     1      -7.513   0.447 -35.294  1.00  0.00     0.040 A 
HETATM   17  C   UNL     1      -8.106   0.158 -32.966  1.00  0.00    -0.021 A 
HETATM   18  C   UNL     1      -6.706  -0.690 -35.230  1.00  0.00     0.039 A 
HETATM   19  C   UNL     1      -6.602  -1.421 -34.045  1.00  0.00     0.068 A 
HETATM   20  C   UNL     1      -7.302  -0.994 -32.916  1.00  0.00     0.046 A 
HETATM   21  C   UNL     1      -8.845   0.604 -31.734  1.00  0.00     0.056 C 
BRANCH  19  22
HETATM   22  O   UNL     1      -5.785  -2.515 -34.120  1.00  0.00    -0.356 OA
HETATM   23  C   UNL     1      -6.274  -3.636 -34.846  1.00  0.00     0.210 C 
ENDBRANCH  19  22
ENDBRANCH   1  12
BRANCH   7  24
HETATM   24  C   UNL     1      -3.783   6.968 -31.598  1.00  0.00     0.072 A 
HETATM   25  C   UNL     1      -3.371   8.050 -30.845  1.00  0.00     0.052 A 
HETATM   26  C   UNL     1      -2.343   8.795 -31.370  1.00  0.00     0.122 A 
HETATM   27  N   UNL     1      -1.750   8.517 -32.543  1.00  0.00    -0.231 NA
HETATM   28  C   UNL     1      -2.197   7.440 -33.191  1.00  0.00     0.199 A 
HETATM   29  N   UNL     1      -3.197   6.660 -32.777  1.00  0.00    -0.218 NA
BRANCH  28  30
HETATM   30  N   UNL     1      -1.617   7.142 -34.406  1.00  0.00    -0.271 NA
HETATM   31  H   UNL     1      -1.412   8.000 -34.898  1.00  0.00     0.127 HD
HETATM   32  H   UNL     1      -2.181   6.456 -34.888  1.00  0.00     0.127 HD
ENDBRANCH  28  30
ENDBRANCH   7  24
TORSDOF 4
ENDMDL
MODEL 8
REMARK VINA RESULT:      -8.4      5.118      7.529
REMARK  4 active torsions:
REMARK  status: ('A' for Active; 'I' for Inactive)
REMARK    1  A    between atoms: O_2  and  C_3 
REMARK    2  A    between atoms: C_9  and  C_13 
REMARK    3  A    between atoms: C_19  and  C_24 
REMARK    4  A    between atoms: C_28  and  N_29 
ROOT
HETATM    1  C   UNL     1      -6.981   3.117 -33.066  1.00  0.00     0.112 A 
HETATM    2  N   UNL     1      -7.635   2.459 -34.004  1.00  0.00    -0.230 NA
HETATM    3  C   UNL     1      -7.067   1.203 -34.051  1.00  0.00     0.124 A 
HETATM    4  C   UNL     1      -7.348   0.089 -34.853  1.00  0.00     0.148 A 
HETATM    5  F   UNL     1      -8.322   0.125 -35.775  1.00  0.00    -0.203 F 
HETATM    6  C   UNL     1      -6.605  -1.088 -34.698  1.00  0.00     0.058 A 
HETATM    7  C   UNL     1      -5.570  -1.188 -33.750  1.00  0.00    -0.002 A 
HETATM    8  C   UNL     1      -5.290  -0.068 -32.936  1.00  0.00     0.046 A 
HETATM    9  C   UNL     1      -6.046   1.096 -33.115  1.00  0.00     0.066 A 
HETATM   10  N   UNL     1      -6.009   2.321 -32.505  1.00  0.00    -0.342 N 
HETATM   11  H   UNL     1      -5.373   2.603 -31.769  1.00  0.00     0.167 HD
ENDROOT
BRANCH   1  12
HETATM   12  C   UNL     1      -7.222   4.549 -32.670  1.00  0.00     0.084 C 
HETATM   13  C   UNL     1      -7.058   4.797 -31.171  1.00  0.00     0.188 C 
HETATM   14  O   UNL     1      -5.712   4.620 -30.704  1.00  0.00    -0.350 OA
HETATM   15  C   UNL     1      -4.750   5.222 -31.471  1.00  0.00     0.075 A 
HETATM   16  C   UNL     1      -3.490   5.335 -30.890  1.00  0.00     0.040 A 
HETATM   17  C   UNL     1      -4.961   5.643 -32.786  1.00  0.00    -0.021 A 
HETATM   18  C   UNL     1      -2.438   5.899 -31.614  1.00  0.00     0.039 A 
HETATM   19  C   UNL     1      -2.637   6.352 -32.919  1.00  0.00     0.068 A 
HETATM   20  C   UNL     1      -3.898   6.223 -33.502  1.00  0.00     0.046 A 
HETATM   21  C   UNL     1      -6.310   5.505 -33.438  1.00  0.00     0.056 C 
BRANCH  19  22
HETATM   22  O   UNL     1      -1.527   6.888 -33.512  1.00  0.00    -0.356 OA
HETATM   23  C   UNL     1      -0.848   6.075 -34.461  1.00  0.00     0.210 C 
ENDBRANCH  19  22
ENDBRANCH   1  12
BRANCH   7  24
HETATM   24  C   UNL     1      -4.785  -2.432 -33.584  1.00  0.00     0.072 A 
HETATM   25  C   UNL     1      -4.907  -3.515 -34.432  1.00  0.00     0.052 A 
HETATM   26  C   UNL     1      -4.108  -4.596 -34.149  1.00  0.00     0.122 A 
HETATM   27  N   UNL     1      -3.248  -4.633 -33.117  1.00  0.00    -0.231 NA
HETATM   28  C   UNL     1      -3.180  -3.534 -32.365  1.00  0.00     0.199 A 
HETATM   29  N   UNL     1      -3.920  -2.438 -32.545  1.00  0.00    -0.218 NA
BRANCH  28  30
HETATM   30  N   UNL     1      -2.318  -3.551 -31.289  1.00  0.00    -0.271 NA
HETATM   31  H   UNL     1      -1.952  -2.621 -31.139  1.00  0.00     0.127 HD
HETATM   32  H   UNL     1      -1.648  -4.297 -31.407  1.00  0.00     0.127 HD
ENDBRANCH  28  30
ENDBRANCH   7  24
TORSDOF 4
ENDMDL
MODEL 9
REMARK VINA RESULT:      -8.2      2.041      2.632
REMARK  4 active torsions:
REMARK  status: ('A' for Active; 'I' for Inactive)
REMARK    1  A    between atoms: O_2  and  C_3 
REMARK    2  A    between atoms: C_9  and  C_13 
REMARK    3  A    between atoms: C_19  and  C_24 
REMARK    4  A    between atoms: C_28  and  N_29 
ROOT
HETATM    1  C   UNL     1     -10.602   2.533 -34.232  1.00  0.00     0.112 A 
HETATM    2  N   UNL     1     -10.013   2.592 -33.054  1.00  0.00    -0.230 NA
HETATM    3  C   UNL     1      -9.055   1.600 -33.060  1.00  0.00     0.124 A 
HETATM    4  C   UNL     1      -8.135   1.195 -32.084  1.00  0.00     0.148 A 
HETATM    5  F   UNL     1      -8.075   1.805 -30.890  1.00  0.00    -0.203 F 
HETATM    6  C   UNL     1      -7.257   0.136 -32.349  1.00  0.00     0.058 A 
HETATM    7  C   UNL     1      -7.271  -0.545 -33.581  1.00  0.00    -0.002 A 
HETATM    8  C   UNL     1      -8.194  -0.133 -34.569  1.00  0.00     0.046 A 
HETATM    9  C   UNL     1      -9.061   0.926 -34.274  1.00  0.00     0.066 A 
HETATM   10  N   UNL     1     -10.051   1.534 -35.000  1.00  0.00    -0.342 N 
HETATM   11  H   UNL     1     -10.338   1.290 -35.940  1.00  0.00     0.167 HD
ENDROOT
BRANCH   1  12
HETATM   12  C   UNL     1     -11.743   3.404 -34.686  1.00  0.00     0.084 C 
HETATM   13  C   UNL     1     -13.117   2.793 -34.409  1.00  0.00     0.188 C 
HETATM   14  O   UNL     1     -13.419   2.674 -33.011  1.00  0.00    -0.350 OA
HETATM   15  C   UNL     1     -13.152   3.791 -32.265  1.00  0.00     0.075 A 
HETATM   16  C   UNL     1     -13.713   3.821 -30.991  1.00  0.00     0.040 A 
HETATM   17  C   UNL     1     -12.312   4.823 -32.690  1.00  0.00    -0.021 A 
HETATM   18  C   UNL     1     -13.461   4.902 -30.144  1.00  0.00     0.039 A 
HETATM   19  C   UNL     1     -12.647   5.957 -30.563  1.00  0.00     0.068 A 
HETATM   20  C   UNL     1     -12.074   5.914 -31.835  1.00  0.00     0.046 A 
HETATM   21  C   UNL     1     -11.676   4.794 -34.053  1.00  0.00     0.056 C 
BRANCH  19  22
HETATM   22  O   UNL     1     -12.486   6.953 -29.641  1.00  0.00    -0.356 OA
HETATM   23  C   UNL     1     -13.643   7.353 -28.915  1.00  0.00     0.210 C 
ENDBRANCH  19  22
ENDBRANCH   1  12
BRANCH   7  24
HETATM   24  C   UNL     1      -6.343  -1.662 -33.862  1.00  0.00     0.072 A 
HETATM   25  C   UNL     1      -5.001  -1.623 -33.540  1.00  0.00     0.052 A 
HETATM   26  C   UNL     1      -4.270  -2.740 -33.863  1.00  0.00     0.122 A 
HETATM   27  N   UNL     1      -4.795  -3.825 -34.456  1.00  0.00    -0.231 NA
HETATM   28  C   UNL     1      -6.104  -3.784 -34.709  1.00  0.00     0.199 A 
HETATM   29  N   UNL     1      -6.900  -2.745 -34.450  1.00  0.00    -0.218 NA
BRANCH  28  30
HETATM   30  N   UNL     1      -6.667  -4.877 -35.334  1.00  0.00    -0.271 NA
HETATM   31  H   UNL     1      -5.962  -5.589 -35.461  1.00  0.00     0.127 HD
HETATM   32  H   UNL     1      -7.170  -4.573 -36.155  1.00  0.00     0.127 HD
ENDBRANCH  28  30
ENDBRANCH   7  24
TORSDOF 4
ENDMDL
MODEL 10
REMARK VINA RESULT:      -8.1      4.827      6.413
REMARK  4 active torsions:
REMARK  status: ('A' for Active; 'I' for Inactive)
REMARK    1  A    between atoms: O_2  and  C_3 
REMARK    2  A    between atoms: C_9  and  C_13 
REMARK    3  A    between atoms: C_19  and  C_24 
REMARK    4  A    between atoms: C_28  and  N_29 
ROOT
HETATM    1  C   UNL     1      -6.228   3.731 -33.396  1.00  0.00     0.112 A 
HETATM    2  N   UNL     1      -7.177   3.037 -33.994  1.00  0.00    -0.230 NA
HETATM    3  C   UNL     1      -6.752   1.725 -33.981  1.00  0.00     0.124 A 
HETATM    4  C   UNL     1      -7.344   0.555 -34.474  1.00  0.00     0.148 A 
HETATM    5  F   UNL     1      -8.538   0.585 -35.086  1.00  0.00    -0.203 F 
HETATM    6  C   UNL     1      -6.686  -0.673 -34.331  1.00  0.00     0.058 A 
HETATM    7  C   UNL     1      -5.432  -0.771 -33.700  1.00  0.00    -0.002 A 
HETATM    8  C   UNL     1      -4.837   0.408 -33.196  1.00  0.00     0.046 A 
HETATM    9  C   UNL     1      -5.515   1.621 -33.357  1.00  0.00     0.066 A 
HETATM   10  N   UNL     1      -5.204   2.905 -32.996  1.00  0.00    -0.342 N 
HETATM   11  H   UNL     1      -4.361   3.204 -32.522  1.00  0.00     0.167 HD
ENDROOT
BRANCH   1  12
HETATM   12  C   UNL     1      -6.225   5.223 -33.198  1.00  0.00     0.084 C 
HETATM   13  C   UNL     1      -7.619   5.803 -32.956  1.00  0.00     0.188 C 
HETATM   14  O   UNL     1      -8.209   5.377 -31.720  1.00  0.00    -0.350 OA
HETATM   15  C   UNL     1      -7.385   5.450 -30.629  1.00  0.00     0.075 A 
HETATM   16  C   UNL     1      -8.005   5.346 -29.387  1.00  0.00     0.040 A 
HETATM   17  C   UNL     1      -5.993   5.548 -30.715  1.00  0.00    -0.021 A 
HETATM   18  C   UNL     1      -7.238   5.369 -28.221  1.00  0.00     0.039 A 
HETATM   19  C   UNL     1      -5.849   5.496 -28.287  1.00  0.00     0.068 A 
HETATM   20  C   UNL     1      -5.231   5.584 -29.535  1.00  0.00     0.046 A 
HETATM   21  C   UNL     1      -5.304   5.636 -32.050  1.00  0.00     0.056 C 
BRANCH  19  22
HETATM   22  O   UNL     1      -5.220   5.511 -27.074  1.00  0.00    -0.356 OA
HETATM   23  C   UNL     1      -4.363   6.615 -26.806  1.00  0.00     0.210 C 
ENDBRANCH  19  22
ENDBRANCH   1  12
BRANCH   7  24
HETATM   24  C   UNL     1      -4.738  -2.068 -33.548  1.00  0.00     0.072 A 
HETATM   25  C   UNL     1      -4.930  -3.130 -34.410  1.00  0.00     0.052 A 
HETATM   26  C   UNL     1      -4.211  -4.268 -34.137  1.00  0.00     0.122 A 
HETATM   27  N   UNL     1      -3.361  -4.378 -33.102  1.00  0.00    -0.231 NA
HETATM   28  C   UNL     1      -3.220  -3.296 -32.336  1.00  0.00     0.199 A 
HETATM   29  N   UNL     1      -3.881  -2.149 -32.505  1.00  0.00    -0.218 NA
BRANCH  28  30
HETATM   30  N   UNL     1      -2.367  -3.387 -31.256  1.00  0.00    -0.271 NA
HETATM   31  H   UNL     1      -1.593  -2.751 -31.386  1.00  0.00     0.127 HD
HETATM   32  H   UNL     1      -2.144  -4.357 -31.084  1.00  0.00     0.127 HD
ENDBRANCH  28  30
ENDBRANCH   7  24
TORSDOF 4
ENDMDL
