MODEL 1
REMARK VINA RESULT:      -9.0      0.000      0.000
REMARK  4 active torsions:
REMARK  status: ('A' for Active; 'I' for Inactive)
REMARK    1  A    between atoms: C_5  and  C_6 
REMARK    2  A    between atoms: C_14  and  C_15 
REMARK       I    between atoms: C_15  and  N_16 
REMARK    3  A    between atoms: N_16  and  C_17 
REMARK    4  A    between atoms: C_23  and  N_24 
ROOT
HETATM    1  C   UNL     1      -5.087   2.922 -31.317  1.00  0.00     0.262 C 
HETATM    2  N   UNL     1      -5.494   2.456 -32.544  1.00  0.00    -0.301 N 
HETATM    3  O   UNL     1      -4.657   2.239 -30.396  1.00  0.00    -0.267 OA
HETATM    4  H   UNL     1      -5.991   3.047 -33.188  1.00  0.00     0.171 HD
ENDROOT
BRANCH   1   5
HETATM    5  C   UNL     1      -5.255   4.358 -31.152  1.00  0.00     0.095 A 
HETATM    6  C   UNL     1      -6.166   4.949 -30.299  1.00  0.00     0.093 A 
HETATM    7  C   UNL     1      -7.186   4.431 -29.367  1.00  0.00     0.080 C 
HETATM    8  O   UNL     1      -6.060   6.299 -30.383  1.00  0.00    -0.217 OA
HETATM    9  N   UNL     1      -5.064   6.631 -31.278  1.00  0.00    -0.127 NA
HETATM   10  C   UNL     1      -4.566   5.470 -31.726  1.00  0.00     0.116 A 
BRANCH  10  11
HETATM   11  C   UNL     1      -3.440   5.478 -32.653  1.00  0.00     0.039 A 
HETATM   12  C   UNL     1      -2.132   5.708 -32.196  1.00  0.00     0.048 A 
HETATM   13 CL   UNL     1      -1.770   5.979 -30.527  1.00  0.00    -0.083 Cl
HETATM   14  C   UNL     1      -1.054   5.705 -33.091  1.00  0.00     0.025 A 
HETATM   15  C   UNL     1      -1.268   5.477 -34.448  1.00  0.00     0.003 A 
HETATM   16  C   UNL     1      -2.560   5.244 -34.915  1.00  0.00     0.025 A 
HETATM   17  C   UNL     1      -3.640   5.243 -34.025  1.00  0.00     0.048 A 
HETATM   18 CL   UNL     1      -5.197   4.856 -34.675  1.00  0.00    -0.083 Cl
ENDBRANCH  10  11
ENDBRANCH   1   5
BRANCH   2  19
HETATM   19  C   UNL     1      -5.348   1.152 -32.920  1.00  0.00     0.174 A 
HETATM   20  S   UNL     1      -6.706   0.523 -33.738  1.00  0.00    -0.050 SA
HETATM   21  C   UNL     1      -5.899  -0.994 -33.888  1.00  0.00     0.039 A 
HETATM   22  C   UNL     1      -4.634  -0.889 -33.301  1.00  0.00     0.077 A 
HETATM   23  C   UNL     1      -6.355  -2.185 -34.480  1.00  0.00     0.057 A 
HETATM   24  N   UNL     1      -4.335   0.347 -32.762  1.00  0.00    -0.223 NA
HETATM   25  C   UNL     1      -3.788  -2.017 -33.303  1.00  0.00     0.035 A 
HETATM   26  C   UNL     1      -4.219  -3.217 -33.882  1.00  0.00     0.038 A 
HETATM   27  C   UNL     1      -5.489  -3.292 -34.461  1.00  0.00     0.104 A 
BRANCH  27  28
HETATM   28  N   UNL     1      -5.936  -4.557 -35.065  1.00  0.00    -0.116 N 
HETATM   29  O   UNL     1      -6.988  -4.541 -35.720  1.00  0.00    -0.532 OA
HETATM   30  O   UNL     1      -5.235  -5.562 -34.882  1.00  0.00    -0.532 OA
ENDBRANCH  27  28
ENDBRANCH   2  19
TORSDOF 4
ENDMDL
MODEL 2
REMARK VINA RESULT:      -8.9      0.090      1.701
REMARK  4 active torsions:
REMARK  status: ('A' for Active; 'I' for Inactive)
REMARK    1  A    between atoms: C_5  and  C_6 
REMARK    2  A    between atoms: C_14  and  C_15 
REMARK       I    between atoms: C_15  and  N_16 
REMARK    3  A    between atoms: N_16  and  C_17 
REMARK    4  A    between atoms: C_23  and  N_24 
ROOT
HETATM    1  C   UNL     1      -5.169   2.913 -31.273  1.00  0.00     0.262 C 
HETATM    2  N   UNL     1      -5.515   2.456 -32.523  1.00  0.00    -0.301 N 
HETATM    3  O   UNL     1      -4.796   2.221 -30.335  1.00  0.00    -0.267 OA
HETATM    4  H   UNL     1      -5.971   3.056 -33.190  1.00  0.00     0.171 HD
ENDROOT
BRANCH   1   5
HETATM    5  C   UNL     1      -5.333   4.349 -31.110  1.00  0.00     0.095 A 
HETATM    6  C   UNL     1      -6.259   4.945 -30.277  1.00  0.00     0.093 A 
HETATM    7  C   UNL     1      -7.303   4.431 -29.369  1.00  0.00     0.080 C 
HETATM    8  O   UNL     1      -6.143   6.294 -30.356  1.00  0.00    -0.217 OA
HETATM    9  N   UNL     1      -5.126   6.621 -31.227  1.00  0.00    -0.127 NA
HETATM   10  C   UNL     1      -4.624   5.458 -31.666  1.00  0.00     0.116 A 
BRANCH  10  11
HETATM   11  C   UNL     1      -3.477   5.461 -32.568  1.00  0.00     0.039 A 
HETATM   12  C   UNL     1      -3.641   5.214 -33.941  1.00  0.00     0.048 A 
HETATM   13 CL   UNL     1      -5.189   4.908 -34.647  1.00  0.00    -0.083 Cl
HETATM   14  C   UNL     1      -2.537   5.228 -34.802  1.00  0.00     0.025 A 
HETATM   15  C   UNL     1      -1.261   5.485 -34.307  1.00  0.00     0.003 A 
HETATM   16  C   UNL     1      -1.085   5.736 -32.948  1.00  0.00     0.025 A 
HETATM   17  C   UNL     1      -2.184   5.726 -32.083  1.00  0.00     0.048 A 
HETATM   18 CL   UNL     1      -1.888   6.136 -30.427  1.00  0.00    -0.083 Cl
ENDBRANCH  10  11
ENDBRANCH   1   5
BRANCH   2  19
HETATM   19  C   UNL     1      -5.361   1.153 -32.898  1.00  0.00     0.174 A 
HETATM   20  S   UNL     1      -6.712   0.518 -33.723  1.00  0.00    -0.050 SA
HETATM   21  C   UNL     1      -5.897  -0.995 -33.868  1.00  0.00     0.039 A 
HETATM   22  C   UNL     1      -4.636  -0.885 -33.275  1.00  0.00     0.077 A 
HETATM   23  C   UNL     1      -6.345  -2.188 -34.463  1.00  0.00     0.057 A 
HETATM   24  N   UNL     1      -4.345   0.353 -32.735  1.00  0.00    -0.223 NA
HETATM   25  C   UNL     1      -3.785  -2.009 -33.272  1.00  0.00     0.035 A 
HETATM   26  C   UNL     1      -4.208  -3.210 -33.853  1.00  0.00     0.038 A 
HETATM   27  C   UNL     1      -5.475  -3.292 -34.439  1.00  0.00     0.104 A 
BRANCH  27  28
HETATM   28  N   UNL     1      -5.913  -4.558 -35.045  1.00  0.00    -0.116 N 
HETATM   29  O   UNL     1      -6.956  -4.545 -35.714  1.00  0.00    -0.532 OA
HETATM   30  O   UNL     1      -5.214  -5.563 -34.849  1.00  0.00    -0.532 OA
ENDBRANCH  27  28
ENDBRANCH   2  19
TORSDOF 4
ENDMDL
MODEL 3
REMARK VINA RESULT:      -8.4      3.615      4.945
REMARK  4 active torsions:
REMARK  status: ('A' for Active; 'I' for Inactive)
REMARK    1  A    between atoms: C_5  and  C_6 
REMARK    2  A    between atoms: C_14  and  C_15 
REMARK       I    between atoms: C_15  and  N_16 
REMARK    3  A    between atoms: N_16  and  C_17 
REMARK    4  A    between atoms: C_23  and  N_24 
ROOT
HETATM    1  C   UNL     1      -6.716   3.544 -33.629  1.00  0.00     0.262 C 
HETATM    2  N   UNL     1      -6.985   2.434 -32.864  1.00  0.00    -0.301 N 
HETATM    3  O   UNL     1      -5.990   3.578 -34.614  1.00  0.00    -0.267 OA
HETATM    4  H   UNL     1      -7.452   2.512 -31.977  1.00  0.00     0.171 HD
ENDROOT
BRANCH   1   5
HETATM    5  C   UNL     1      -7.346   4.759 -33.137  1.00  0.00     0.095 A 
HETATM    6  C   UNL     1      -6.663   5.862 -32.665  1.00  0.00     0.093 A 
HETATM    7  C   UNL     1      -5.234   6.187 -32.487  1.00  0.00     0.080 C 
HETATM    8  O   UNL     1      -7.548   6.821 -32.291  1.00  0.00    -0.217 OA
HETATM    9  N   UNL     1      -8.833   6.382 -32.525  1.00  0.00    -0.127 NA
HETATM   10  C   UNL     1      -8.717   5.155 -33.051  1.00  0.00     0.116 A 
BRANCH  10  11
HETATM   11  C   UNL     1      -9.913   4.434 -33.473  1.00  0.00     0.039 A 
HETATM   12  C   UNL     1     -10.479   3.440 -32.657  1.00  0.00     0.048 A 
HETATM   13 CL   UNL     1      -9.816   3.020 -31.116  1.00  0.00    -0.083 Cl
HETATM   14  C   UNL     1     -11.633   2.758 -33.064  1.00  0.00     0.025 A 
HETATM   15  C   UNL     1     -12.232   3.056 -34.286  1.00  0.00     0.003 A 
HETATM   16  C   UNL     1     -11.683   4.042 -35.103  1.00  0.00     0.025 A 
HETATM   17  C   UNL     1     -10.532   4.728 -34.700  1.00  0.00     0.048 A 
HETATM   18 CL   UNL     1      -9.970   5.998 -35.734  1.00  0.00    -0.083 Cl
ENDBRANCH  10  11
ENDBRANCH   1   5
BRANCH   2  19
HETATM   19  C   UNL     1      -6.548   1.185 -33.201  1.00  0.00     0.174 A 
HETATM   20  S   UNL     1      -7.778   0.174 -33.810  1.00  0.00    -0.050 SA
HETATM   21  C   UNL     1      -6.626  -1.095 -34.000  1.00  0.00     0.039 A 
HETATM   22  C   UNL     1      -5.374  -0.630 -33.586  1.00  0.00     0.077 A 
HETATM   23  C   UNL     1      -6.821  -2.403 -34.478  1.00  0.00     0.057 A 
HETATM   24  N   UNL     1      -5.348   0.678 -33.142  1.00  0.00    -0.223 NA
HETATM   25  C   UNL     1      -4.269  -1.503 -33.651  1.00  0.00     0.035 A 
HETATM   26  C   UNL     1      -4.436  -2.812 -34.119  1.00  0.00     0.038 A 
HETATM   27  C   UNL     1      -5.700  -3.250 -34.526  1.00  0.00     0.104 A 
BRANCH  27  28
HETATM   28  N   UNL     1      -5.867  -4.627 -35.014  1.00  0.00    -0.116 N 
HETATM   29  O   UNL     1      -6.849  -4.868 -35.730  1.00  0.00    -0.532 OA
HETATM   30  O   UNL     1      -5.017  -5.464 -34.679  1.00  0.00    -0.532 OA
ENDBRANCH  27  28
ENDBRANCH   2  19
TORSDOF 4
ENDMDL
MODEL 4
REMARK VINA RESULT:      -8.3      2.611      3.616
REMARK  4 active torsions:
REMARK  status: ('A' for Active; 'I' for Inactive)
REMARK    1  A    between atoms: C_5  and  C_6 
REMARK    2  A    between atoms: C_14  and  C_15 
REMARK       I    between atoms: C_15  and  N_16 
REMARK    3  A    between atoms: N_16  and  C_17 
REMARK    4  A    between atoms: C_23  and  N_24 
ROOT
HETATM    1  C   UNL     1      -4.912   5.817 -31.088  1.00  0.00     0.262 C 
HETATM    2  N   UNL     1      -4.615   5.176 -32.267  1.00  0.00    -0.301 N 
HETATM    3  O   UNL     1      -5.368   5.291 -30.080  1.00  0.00    -0.267 OA
HETATM    4  H   UNL     1      -4.405   5.694 -33.104  1.00  0.00     0.171 HD
ENDROOT
BRANCH   1   5
HETATM    5  C   UNL     1      -4.683   7.254 -31.130  1.00  0.00     0.095 A 
HETATM    6  C   UNL     1      -5.680   8.205 -31.214  1.00  0.00     0.093 A 
HETATM    7  C   UNL     1      -7.153   8.145 -31.297  1.00  0.00     0.080 C 
HETATM    8  O   UNL     1      -5.128   9.444 -31.227  1.00  0.00    -0.217 OA
HETATM    9  N   UNL     1      -3.756   9.341 -31.132  1.00  0.00    -0.127 NA
HETATM   10  C   UNL     1      -3.487   8.030 -31.053  1.00  0.00     0.116 A 
BRANCH  10  11
HETATM   11  C   UNL     1      -2.108   7.586 -30.878  1.00  0.00     0.039 A 
HETATM   12  C   UNL     1      -1.575   7.381 -29.595  1.00  0.00     0.048 A 
HETATM   13 CL   UNL     1      -2.505   7.624 -28.157  1.00  0.00    -0.083 Cl
HETATM   14  C   UNL     1      -0.254   6.945 -29.435  1.00  0.00     0.025 A 
HETATM   15  C   UNL     1       0.550   6.713 -30.549  1.00  0.00     0.003 A 
HETATM   16  C   UNL     1       0.032   6.908 -31.828  1.00  0.00     0.025 A 
HETATM   17  C   UNL     1      -1.288   7.341 -31.994  1.00  0.00     0.048 A 
HETATM   18 CL   UNL     1      -1.877   7.471 -33.616  1.00  0.00    -0.083 Cl
ENDBRANCH  10  11
ENDBRANCH   1   5
BRANCH   2  19
HETATM   19  C   UNL     1      -4.691   3.820 -32.407  1.00  0.00     0.174 A 
HETATM   20  S   UNL     1      -3.232   3.015 -32.046  1.00  0.00    -0.050 SA
HETATM   21  C   UNL     1      -3.989   1.507 -32.402  1.00  0.00     0.039 A 
HETATM   22  C   UNL     1      -5.319   1.747 -32.762  1.00  0.00     0.077 A 
HETATM   23  C   UNL     1      -3.443   0.212 -32.366  1.00  0.00     0.057 A 
HETATM   24  N   UNL     1      -5.704   3.074 -32.749  1.00  0.00    -0.223 NA
HETATM   25  C   UNL     1      -6.140   0.651 -33.100  1.00  0.00     0.035 A 
HETATM   26  C   UNL     1      -5.620  -0.648 -33.076  1.00  0.00     0.038 A 
HETATM   27  C   UNL     1      -4.286  -0.858 -32.713  1.00  0.00     0.104 A 
BRANCH  27  28
HETATM   28  N   UNL     1      -3.746  -2.226 -32.693  1.00  0.00    -0.116 N 
HETATM   29  O   UNL     1      -3.009  -2.539 -31.748  1.00  0.00    -0.532 OA
HETATM   30  O   UNL     1      -4.060  -2.982 -33.623  1.00  0.00    -0.532 OA
ENDBRANCH  27  28
ENDBRANCH   2  19
TORSDOF 4
ENDMDL
MODEL 5
REMARK VINA RESULT:      -8.3      2.572      3.776
REMARK  4 active torsions:
REMARK  status: ('A' for Active; 'I' for Inactive)
REMARK    1  A    between atoms: C_5  and  C_6 
REMARK    2  A    between atoms: C_14  and  C_15 
REMARK       I    between atoms: C_15  and  N_16 
REMARK    3  A    between atoms: N_16  and  C_17 
REMARK    4  A    between atoms: C_23  and  N_24 
ROOT
HETATM    1  C   UNL     1      -4.868   5.640 -31.069  1.00  0.00     0.262 C 
HETATM    2  N   UNL     1      -4.642   4.999 -32.264  1.00  0.00    -0.301 N 
HETATM    3  O   UNL     1      -5.241   5.110 -30.030  1.00  0.00    -0.267 OA
HETATM    4  H   UNL     1      -4.502   5.517 -33.115  1.00  0.00     0.171 HD
ENDROOT
BRANCH   1   5
HETATM    5  C   UNL     1      -4.673   7.080 -31.132  1.00  0.00     0.095 A 
HETATM    6  C   UNL     1      -5.692   8.007 -31.235  1.00  0.00     0.093 A 
HETATM    7  C   UNL     1      -7.162   7.911 -31.324  1.00  0.00     0.080 C 
HETATM    8  O   UNL     1      -5.169   9.258 -31.264  1.00  0.00    -0.217 OA
HETATM    9  N   UNL     1      -3.795   9.189 -31.162  1.00  0.00    -0.127 NA
HETATM   10  C   UNL     1      -3.496   7.886 -31.061  1.00  0.00     0.116 A 
BRANCH  10  11
HETATM   11  C   UNL     1      -2.108   7.477 -30.874  1.00  0.00     0.039 A 
HETATM   12  C   UNL     1      -1.270   7.246 -31.978  1.00  0.00     0.048 A 
HETATM   13 CL   UNL     1      -1.815   7.439 -33.608  1.00  0.00    -0.083 Cl
HETATM   14  C   UNL     1       0.063   6.863 -31.791  1.00  0.00     0.025 A 
HETATM   15  C   UNL     1       0.576   6.704 -30.506  1.00  0.00     0.003 A 
HETATM   16  C   UNL     1      -0.242   6.934 -29.402  1.00  0.00     0.025 A 
HETATM   17  C   UNL     1      -1.575   7.320 -29.583  1.00  0.00     0.048 A 
HETATM   18 CL   UNL     1      -2.494   7.673 -28.158  1.00  0.00    -0.083 Cl
ENDBRANCH  10  11
ENDBRANCH   1   5
BRANCH   2  19
HETATM   19  C   UNL     1      -4.700   3.641 -32.393  1.00  0.00     0.174 A 
HETATM   20  S   UNL     1      -3.227   2.860 -32.037  1.00  0.00    -0.050 SA
HETATM   21  C   UNL     1      -3.964   1.339 -32.377  1.00  0.00     0.039 A 
HETATM   22  C   UNL     1      -5.300   1.557 -32.728  1.00  0.00     0.077 A 
HETATM   23  C   UNL     1      -3.399   0.052 -32.335  1.00  0.00     0.057 A 
HETATM   24  N   UNL     1      -5.704   2.878 -32.722  1.00  0.00    -0.223 NA
HETATM   25  C   UNL     1      -6.107   0.446 -33.052  1.00  0.00     0.035 A 
HETATM   26  C   UNL     1      -5.568  -0.845 -33.022  1.00  0.00     0.038 A 
HETATM   27  C   UNL     1      -4.229  -1.032 -32.668  1.00  0.00     0.104 A 
BRANCH  27  28
HETATM   28  N   UNL     1      -3.669  -2.393 -32.642  1.00  0.00    -0.116 N 
HETATM   29  O   UNL     1      -3.991  -3.164 -33.556  1.00  0.00    -0.532 OA
HETATM   30  O   UNL     1      -2.911  -2.685 -31.706  1.00  0.00    -0.532 OA
ENDBRANCH  27  28
ENDBRANCH   2  19
TORSDOF 4
ENDMDL
MODEL 6
REMARK VINA RESULT:      -8.2      4.519      6.199
REMARK  4 active torsions:
REMARK  status: ('A' for Active; 'I' for Inactive)
REMARK    1  A    between atoms: C_5  and  C_6 
REMARK    2  A    between atoms: C_14  and  C_15 
REMARK       I    between atoms: C_15  and  N_16 
REMARK    3  A    between atoms: N_16  and  C_17 
REMARK    4  A    between atoms: C_23  and  N_24 
ROOT
HETATM    1  C   UNL     1      -8.829   2.738 -32.224  1.00  0.00     0.262 C 
HETATM    2  N   UNL     1      -8.144   2.457 -33.382  1.00  0.00    -0.301 N 
HETATM    3  O   UNL     1      -8.991   1.973 -31.282  1.00  0.00    -0.267 OA
HETATM    4  H   UNL     1      -8.194   3.068 -34.180  1.00  0.00     0.171 HD
ENDROOT
BRANCH   1   5
HETATM    5  C   UNL     1      -9.431   4.063 -32.208  1.00  0.00     0.095 A 
HETATM    6  C   UNL     1      -8.739   5.236 -31.982  1.00  0.00     0.093 A 
HETATM    7  C   UNL     1      -7.328   5.557 -31.694  1.00  0.00     0.080 C 
HETATM    8  O   UNL     1      -9.594   6.288 -32.041  1.00  0.00    -0.217 OA
HETATM    9  N   UNL     1     -10.865   5.837 -32.327  1.00  0.00    -0.127 NA
HETATM   10  C   UNL     1     -10.768   4.505 -32.448  1.00  0.00     0.116 A 
BRANCH  10  11
HETATM   11  C   UNL     1     -11.945   3.726 -32.816  1.00  0.00     0.039 A 
HETATM   12  C   UNL     1     -12.968   3.485 -31.884  1.00  0.00     0.048 A 
HETATM   13 CL   UNL     1     -12.909   4.096 -30.267  1.00  0.00    -0.083 Cl
HETATM   14  C   UNL     1     -14.100   2.744 -32.246  1.00  0.00     0.025 A 
HETATM   15  C   UNL     1     -14.224   2.234 -33.536  1.00  0.00     0.003 A 
HETATM   16  C   UNL     1     -13.219   2.469 -34.471  1.00  0.00     0.025 A 
HETATM   17  C   UNL     1     -12.087   3.211 -34.116  1.00  0.00     0.048 A 
HETATM   18 CL   UNL     1     -10.931   3.532 -35.364  1.00  0.00    -0.083 Cl
ENDBRANCH  10  11
ENDBRANCH   1   5
BRANCH   2  19
HETATM   19  C   UNL     1      -7.448   1.296 -33.562  1.00  0.00     0.174 A 
HETATM   20  S   UNL     1      -8.392   0.027 -34.196  1.00  0.00    -0.050 SA
HETATM   21  C   UNL     1      -7.011  -1.005 -34.156  1.00  0.00     0.039 A 
HETATM   22  C   UNL     1      -5.922  -0.279 -33.664  1.00  0.00     0.077 A 
HETATM   23  C   UNL     1      -6.904  -2.356 -34.532  1.00  0.00     0.057 A 
HETATM   24  N   UNL     1      -6.189   1.037 -33.339  1.00  0.00    -0.223 NA
HETATM   25  C   UNL     1      -4.674  -0.924 -33.541  1.00  0.00     0.035 A 
HETATM   26  C   UNL     1      -4.541  -2.269 -33.904  1.00  0.00     0.038 A 
HETATM   27  C   UNL     1      -5.647  -2.971 -34.392  1.00  0.00     0.104 A 
BRANCH  27  28
HETATM   28  N   UNL     1      -5.500  -4.385 -34.769  1.00  0.00    -0.116 N 
HETATM   29  O   UNL     1      -4.486  -4.981 -34.381  1.00  0.00    -0.532 OA
HETATM   30  O   UNL     1      -6.399  -4.895 -35.453  1.00  0.00    -0.532 OA
ENDBRANCH  27  28
ENDBRANCH   2  19
TORSDOF 4
ENDMDL
MODEL 7
REMARK VINA RESULT:      -8.2      2.845      3.796
REMARK  4 active torsions:
REMARK  status: ('A' for Active; 'I' for Inactive)
REMARK    1  A    between atoms: C_5  and  C_6 
REMARK    2  A    between atoms: C_14  and  C_15 
REMARK       I    between atoms: C_15  and  N_16 
REMARK    3  A    between atoms: N_16  and  C_17 
REMARK    4  A    between atoms: C_23  and  N_24 
ROOT
HETATM    1  C   UNL     1      -8.191   2.877 -33.104  1.00  0.00     0.262 C 
HETATM    2  N   UNL     1      -7.327   2.458 -34.087  1.00  0.00    -0.301 N 
HETATM    3  O   UNL     1      -8.669   2.175 -32.221  1.00  0.00    -0.267 OA
HETATM    4  H   UNL     1      -7.109   3.045 -34.875  1.00  0.00     0.171 HD
ENDROOT
BRANCH   1   5
HETATM    5  C   UNL     1      -8.565   4.279 -33.212  1.00  0.00     0.095 A 
HETATM    6  C   UNL     1      -9.564   4.764 -34.033  1.00  0.00     0.093 A 
HETATM    7  C   UNL     1     -10.497   4.143 -34.992  1.00  0.00     0.080 C 
HETATM    8  O   UNL     1      -9.658   6.111 -33.890  1.00  0.00    -0.217 OA
HETATM    9  N   UNL     1      -8.737   6.543 -32.959  1.00  0.00    -0.127 NA
HETATM   10  C   UNL     1      -8.094   5.446 -32.535  1.00  0.00     0.116 A 
BRANCH  10  11
HETATM   11  C   UNL     1      -7.087   5.560 -31.486  1.00  0.00     0.039 A 
HETATM   12  C   UNL     1      -5.723   5.665 -31.807  1.00  0.00     0.048 A 
HETATM   13 CL   UNL     1      -5.155   5.679 -33.440  1.00  0.00    -0.083 Cl
HETATM   14  C   UNL     1      -4.762   5.783 -30.795  1.00  0.00     0.025 A 
HETATM   15  C   UNL     1      -5.147   5.796 -29.457  1.00  0.00     0.003 A 
HETATM   16  C   UNL     1      -6.496   5.697 -29.125  1.00  0.00     0.025 A 
HETATM   17  C   UNL     1      -7.461   5.581 -30.131  1.00  0.00     0.048 A 
HETATM   18 CL   UNL     1      -9.119   5.554 -29.634  1.00  0.00    -0.083 Cl
ENDBRANCH  10  11
ENDBRANCH   1   5
BRANCH   2  19
HETATM   19  C   UNL     1      -6.801   1.199 -34.117  1.00  0.00     0.174 A 
HETATM   20  S   UNL     1      -7.808   0.057 -34.884  1.00  0.00    -0.050 SA
HETATM   21  C   UNL     1      -6.634  -1.168 -34.578  1.00  0.00     0.039 A 
HETATM   22  C   UNL     1      -5.547  -0.591 -33.914  1.00  0.00     0.077 A 
HETATM   23  C   UNL     1      -6.677  -2.535 -34.903  1.00  0.00     0.057 A 
HETATM   24  N   UNL     1      -5.657   0.763 -33.668  1.00  0.00    -0.223 NA
HETATM   25  C   UNL     1      -4.456  -1.411 -33.557  1.00  0.00     0.035 A 
HETATM   26  C   UNL     1      -4.474  -2.776 -33.865  1.00  0.00     0.038 A 
HETATM   27  C   UNL     1      -5.575  -3.325 -34.529  1.00  0.00     0.104 A 
BRANCH  27  28
HETATM   28  N   UNL     1      -5.589  -4.762 -34.845  1.00  0.00    -0.116 N 
HETATM   29  O   UNL     1      -6.430  -5.163 -35.662  1.00  0.00    -0.532 OA
HETATM   30  O   UNL     1      -4.759  -5.485 -34.276  1.00  0.00    -0.532 OA
ENDBRANCH  27  28
ENDBRANCH   2  19
TORSDOF 4
ENDMDL
MODEL 8
REMARK VINA RESULT:      -8.1      5.436      7.254
REMARK  4 active torsions:
REMARK  status: ('A' for Active; 'I' for Inactive)
REMARK    1  A    between atoms: C_5  and  C_6 
REMARK    2  A    between atoms: C_14  and  C_15 
REMARK       I    between atoms: C_15  and  N_16 
REMARK    3  A    between atoms: N_16  and  C_17 
REMARK    4  A    between atoms: C_23  and  N_24 
ROOT
HETATM    1  C   UNL     1      -9.795   3.283 -32.795  1.00  0.00     0.262 C 
HETATM    2  N   UNL     1      -9.103   2.854 -33.903  1.00  0.00    -0.301 N 
HETATM    3  O   UNL     1      -9.727   2.796 -31.674  1.00  0.00    -0.267 OA
HETATM    4  H   UNL     1      -9.333   3.189 -34.823  1.00  0.00     0.171 HD
ENDROOT
BRANCH   1   5
HETATM    5  C   UNL     1     -10.706   4.385 -33.065  1.00  0.00     0.095 A 
HETATM    6  C   UNL     1     -10.324   5.704 -33.202  1.00  0.00     0.093 A 
HETATM    7  C   UNL     1      -9.031   6.413 -33.123  1.00  0.00     0.080 C 
HETATM    8  O   UNL     1     -11.414   6.472 -33.454  1.00  0.00    -0.217 OA
HETATM    9  N   UNL     1     -12.538   5.675 -33.510  1.00  0.00    -0.127 NA
HETATM   10  C   UNL     1     -12.116   4.420 -33.298  1.00  0.00     0.116 A 
BRANCH  10  11
HETATM   11  C   UNL     1     -13.069   3.318 -33.357  1.00  0.00     0.039 A 
HETATM   12  C   UNL     1     -13.157   2.502 -34.497  1.00  0.00     0.048 A 
HETATM   13 CL   UNL     1     -12.148   2.737 -35.882  1.00  0.00    -0.083 Cl
HETATM   14  C   UNL     1     -14.068   1.439 -34.543  1.00  0.00     0.025 A 
HETATM   15  C   UNL     1     -14.901   1.180 -33.457  1.00  0.00     0.003 A 
HETATM   16  C   UNL     1     -14.821   1.978 -32.318  1.00  0.00     0.025 A 
HETATM   17  C   UNL     1     -13.911   3.039 -32.266  1.00  0.00     0.048 A 
HETATM   18 CL   UNL     1     -13.815   3.923 -30.780  1.00  0.00    -0.083 Cl
ENDBRANCH  10  11
ENDBRANCH   1   5
BRANCH   2  19
HETATM   19  C   UNL     1      -8.147   1.882 -33.842  1.00  0.00     0.174 A 
HETATM   20  S   UNL     1      -8.601   0.431 -34.613  1.00  0.00    -0.050 SA
HETATM   21  C   UNL     1      -7.082  -0.261 -34.181  1.00  0.00     0.039 A 
HETATM   22  C   UNL     1      -6.336   0.694 -33.482  1.00  0.00     0.077 A 
HETATM   23  C   UNL     1      -6.591  -1.552 -34.443  1.00  0.00     0.057 A 
HETATM   24  N   UNL     1      -6.959   1.915 -33.307  1.00  0.00    -0.223 NA
HETATM   25  C   UNL     1      -5.048   0.348 -33.024  1.00  0.00     0.035 A 
HETATM   26  C   UNL     1      -4.537  -0.932 -33.267  1.00  0.00     0.038 A 
HETATM   27  C   UNL     1      -5.305  -1.866 -33.968  1.00  0.00     0.104 A 
BRANCH  27  28
HETATM   28  N   UNL     1      -4.762  -3.210 -34.217  1.00  0.00    -0.116 N 
HETATM   29  O   UNL     1      -3.772  -3.561 -33.560  1.00  0.00    -0.532 OA
HETATM   30  O   UNL     1      -5.327  -3.910 -35.070  1.00  0.00    -0.532 OA
ENDBRANCH  27  28
ENDBRANCH   2  19
TORSDOF 4
ENDMDL
MODEL 9
REMARK VINA RESULT:      -8.0      3.735      8.195
REMARK  4 active torsions:
REMARK  status: ('A' for Active; 'I' for Inactive)
REMARK    1  A    between atoms: C_5  and  C_6 
REMARK    2  A    between atoms: C_14  and  C_15 
REMARK       I    between atoms: C_15  and  N_16 
REMARK    3  A    between atoms: N_16  and  C_17 
REMARK    4  A    between atoms: C_23  and  N_24 
ROOT
HETATM    1  C   UNL     1      -6.902   3.324 -32.474  1.00  0.00     0.262 C 
HETATM    2  N   UNL     1      -6.302   3.454 -31.244  1.00  0.00    -0.301 N 
HETATM    3  O   UNL     1      -6.657   3.998 -33.467  1.00  0.00    -0.267 OA
HETATM    4  H   UNL     1      -6.668   2.985 -30.433  1.00  0.00     0.171 HD
ENDROOT
BRANCH   1   5
HETATM    5  C   UNL     1      -7.944   2.309 -32.512  1.00  0.00     0.095 A 
HETATM    6  C   UNL     1      -9.298   2.572 -32.461  1.00  0.00     0.093 A 
HETATM    7  C   UNL     1     -10.102   3.805 -32.349  1.00  0.00     0.080 C 
HETATM    8  O   UNL     1      -9.992   1.407 -32.523  1.00  0.00    -0.217 OA
HETATM    9  N   UNL     1      -9.113   0.351 -32.636  1.00  0.00    -0.127 NA
HETATM   10  C   UNL     1      -7.885   0.889 -32.650  1.00  0.00     0.116 A 
BRANCH  10  11
HETATM   11  C   UNL     1      -6.722   0.026 -32.825  1.00  0.00     0.039 A 
HETATM   12  C   UNL     1      -6.337  -0.415 -34.102  1.00  0.00     0.048 A 
HETATM   13 CL   UNL     1      -7.196   0.037 -35.533  1.00  0.00    -0.083 Cl
HETATM   14  C   UNL     1      -5.214  -1.235 -34.263  1.00  0.00     0.025 A 
HETATM   15  C   UNL     1      -4.464  -1.626 -33.156  1.00  0.00     0.003 A 
HETATM   16  C   UNL     1      -4.831  -1.192 -31.884  1.00  0.00     0.025 A 
HETATM   17  C   UNL     1      -5.951  -0.370 -31.717  1.00  0.00     0.048 A 
HETATM   18 CL   UNL     1      -6.283   0.195 -30.115  1.00  0.00    -0.083 Cl
ENDBRANCH  10  11
ENDBRANCH   1   5
BRANCH   2  19
HETATM   19  C   UNL     1      -5.252   4.298 -31.024  1.00  0.00     0.174 A 
HETATM   20  S   UNL     1      -3.744   3.641 -31.468  1.00  0.00    -0.050 SA
HETATM   21  C   UNL     1      -2.972   5.098 -30.963  1.00  0.00     0.039 A 
HETATM   22  C   UNL     1      -3.948   5.985 -30.499  1.00  0.00     0.077 A 
HETATM   23  C   UNL     1      -1.605   5.426 -30.977  1.00  0.00     0.057 A 
HETATM   24  N   UNL     1      -5.246   5.514 -30.551  1.00  0.00    -0.223 NA
HETATM   25  C   UNL     1      -3.547   7.252 -30.029  1.00  0.00     0.035 A 
HETATM   26  C   UNL     1      -2.191   7.603 -30.027  1.00  0.00     0.038 A 
HETATM   27  C   UNL     1      -1.237   6.695 -30.496  1.00  0.00     0.104 A 
BRANCH  27  28
HETATM   28  N   UNL     1       0.185   7.070 -30.489  1.00  0.00    -0.116 N 
HETATM   29  O   UNL     1       0.835   6.878 -31.526  1.00  0.00    -0.532 OA
HETATM   30  O   UNL     1       0.648   7.554 -29.446  1.00  0.00    -0.532 OA
ENDBRANCH  27  28
ENDBRANCH   2  19
TORSDOF 4
ENDMDL
MODEL 10
REMARK VINA RESULT:      -7.9      1.969      4.046
REMARK  4 active torsions:
REMARK  status: ('A' for Active; 'I' for Inactive)
REMARK    1  A    between atoms: C_5  and  C_6 
REMARK    2  A    between atoms: C_14  and  C_15 
REMARK       I    between atoms: C_15  and  N_16 
REMARK    3  A    between atoms: N_16  and  C_17 
REMARK    4  A    between atoms: C_23  and  N_24 
ROOT
HETATM    1  C   UNL     1      -4.646   3.583 -32.935  1.00  0.00     0.262 C 
HETATM    2  N   UNL     1      -4.405   2.385 -32.305  1.00  0.00    -0.301 N 
HETATM    3  O   UNL     1      -5.150   3.722 -34.043  1.00  0.00    -0.267 OA
HETATM    4  H   UNL     1      -3.839   2.337 -31.475  1.00  0.00     0.171 HD
ENDROOT
BRANCH   1   5
HETATM    5  C   UNL     1      -4.192   4.742 -32.182  1.00  0.00     0.095 A 
HETATM    6  C   UNL     1      -2.944   5.318 -32.303  1.00  0.00     0.093 A 
HETATM    7  C   UNL     1      -1.749   5.017 -33.116  1.00  0.00     0.080 C 
HETATM    8  O   UNL     1      -2.848   6.380 -31.465  1.00  0.00    -0.217 OA
HETATM    9  N   UNL     1      -4.037   6.543 -30.786  1.00  0.00    -0.127 NA
HETATM   10  C   UNL     1      -4.852   5.575 -31.228  1.00  0.00     0.116 A 
BRANCH  10  11
HETATM   11  C   UNL     1      -6.226   5.512 -30.741  1.00  0.00     0.039 A 
HETATM   12  C   UNL     1      -7.173   6.475 -31.128  1.00  0.00     0.048 A 
HETATM   13 CL   UNL     1      -6.784   7.774 -32.202  1.00  0.00    -0.083 Cl
HETATM   14  C   UNL     1      -8.492   6.402 -30.665  1.00  0.00     0.025 A 
HETATM   15  C   UNL     1      -8.882   5.374 -29.811  1.00  0.00     0.003 A 
HETATM   16  C   UNL     1      -7.955   4.409 -29.422  1.00  0.00     0.025 A 
HETATM   17  C   UNL     1      -6.636   4.475 -29.884  1.00  0.00     0.048 A 
HETATM   18 CL   UNL     1      -5.574   3.187 -29.424  1.00  0.00    -0.083 Cl
ENDBRANCH  10  11
ENDBRANCH   1   5
BRANCH   2  19
HETATM   19  C   UNL     1      -4.823   1.189 -32.814  1.00  0.00     0.174 A 
HETATM   20  S   UNL     1      -3.636  -0.033 -32.744  1.00  0.00    -0.050 SA
HETATM   21  C   UNL     1      -4.741  -1.133 -33.479  1.00  0.00     0.039 A 
HETATM   22  C   UNL     1      -5.949  -0.468 -33.711  1.00  0.00     0.077 A 
HETATM   23  C   UNL     1      -4.549  -2.483 -33.824  1.00  0.00     0.057 A 
HETATM   24  N   UNL     1      -5.979   0.855 -33.315  1.00  0.00    -0.223 NA
HETATM   25  C   UNL     1      -7.011  -1.176 -34.312  1.00  0.00     0.035 A 
HETATM   26  C   UNL     1      -6.844  -2.519 -34.669  1.00  0.00     0.038 A 
HETATM   27  C   UNL     1      -5.625  -3.158 -34.426  1.00  0.00     0.104 A 
BRANCH  27  28
HETATM   28  N   UNL     1      -5.457  -4.569 -34.807  1.00  0.00    -0.116 N 
HETATM   29  O   UNL     1      -4.452  -5.162 -34.389  1.00  0.00    -0.532 OA
HETATM   30  O   UNL     1      -6.329  -5.079 -35.524  1.00  0.00    -0.532 OA
ENDBRANCH  27  28
ENDBRANCH   2  19
TORSDOF 4
ENDMDL
