MODEL 1
REMARK VINA RESULT:      -9.0      0.000      0.000
REMARK  5 active torsions:
REMARK  status: ('A' for Active; 'I' for Inactive)
REMARK    1  A    between atoms: C_4  and  C_5 
REMARK    2  A    between atoms: C_10  and  C_11 
REMARK    3  A    between atoms: N_12  and  N_13 
REMARK       I    between atoms: N_13  and  C_14 
REMARK    4  A    between atoms: C_14  and  C_15 
REMARK    5  A    between atoms: C_16  and  O_17 
ROOT
HETATM    1  C   UNL     1      -5.423  -0.736 -32.868  1.00  0.00     0.055 A 
HETATM    2  N   UNL     1      -4.435  -1.692 -32.936  1.00  0.00    -0.354 N 
HETATM    3  H   UNL     1      -3.540  -1.624 -32.474  1.00  0.00     0.166 HD
HETATM    4  C   UNL     1      -4.837  -2.765 -33.690  1.00  0.00     0.043 A 
HETATM    5  C   UNL     1      -6.134  -2.495 -34.126  1.00  0.00     0.005 A 
HETATM    6  C   UNL     1      -6.502  -1.207 -33.611  1.00  0.00     0.023 A 
HETATM    7  C   UNL     1      -4.153  -3.944 -34.011  1.00  0.00     0.030 A 
HETATM    8  C   UNL     1      -4.815  -4.882 -34.809  1.00  0.00     0.002 A 
HETATM    9  C   UNL     1      -6.109  -4.646 -35.263  1.00  0.00     0.001 A 
HETATM   10  C   UNL     1      -6.777  -3.462 -34.930  1.00  0.00     0.014 A 
ENDROOT
BRANCH   6  11
HETATM   11  C   UNL     1      -7.739  -0.473 -33.808  1.00  0.00     0.153 C 
HETATM   12  N   UNL     1      -7.824   0.416 -34.744  1.00  0.00    -0.183 NA
BRANCH  12  13
HETATM   13  N   UNL     1      -9.023   1.057 -34.858  1.00  0.00    -0.243 N 
HETATM   14  C   UNL     1      -9.188   2.296 -34.258  1.00  0.00     0.274 C 
HETATM   15  O   UNL     1      -8.317   2.913 -33.645  1.00  0.00    -0.266 OA
HETATM   16  H   UNL     1      -9.729   0.674 -35.475  1.00  0.00     0.192 HD
BRANCH  14  17
HETATM   17  C   UNL     1     -10.515   2.945 -34.435  1.00  0.00     0.066 A 
HETATM   18  C   UNL     1     -11.636   2.404 -33.784  1.00  0.00     0.081 A 
HETATM   19  C   UNL     1     -12.888   3.004 -33.909  1.00  0.00     0.037 A 
HETATM   20  C   UNL     1     -13.040   4.138 -34.704  1.00  0.00     0.003 A 
HETATM   21  C   UNL     1     -11.942   4.668 -35.381  1.00  0.00     0.001 A 
HETATM   22  C   UNL     1     -10.682   4.073 -35.252  1.00  0.00     0.020 A 
BRANCH  18  23
HETATM   23  O   UNL     1     -11.579   1.280 -33.003  1.00  0.00    -0.360 OA
HETATM   24  H   UNL     1     -12.395   0.756 -33.170  1.00  0.00     0.217 HD
ENDBRANCH  18  23
ENDBRANCH  14  17
ENDBRANCH  12  13
ENDBRANCH   6  11
BRANCH   1  25
HETATM   25  C   UNL     1      -5.238   0.488 -32.094  1.00  0.00    -0.009 A 
HETATM   26  C   UNL     1      -5.730   0.581 -30.786  1.00  0.00     0.014 A 
HETATM   27  C   UNL     1      -5.557   1.755 -30.048  1.00  0.00     0.001 A 
HETATM   28  C   UNL     1      -4.892   2.842 -30.613  1.00  0.00     0.000 A 
HETATM   29  C   UNL     1      -4.401   2.759 -31.916  1.00  0.00     0.001 A 
HETATM   30  C   UNL     1      -4.575   1.587 -32.654  1.00  0.00     0.014 A 
ENDBRANCH   1  25
TORSDOF 5
ENDMDL
MODEL 2
REMARK VINA RESULT:      -8.9      1.010      1.465
REMARK  5 active torsions:
REMARK  status: ('A' for Active; 'I' for Inactive)
REMARK    1  A    between atoms: C_4  and  C_5 
REMARK    2  A    between atoms: C_10  and  C_11 
REMARK    3  A    between atoms: N_12  and  N_13 
REMARK       I    between atoms: N_13  and  C_14 
REMARK    4  A    between atoms: C_14  and  C_15 
REMARK    5  A    between atoms: C_16  and  O_17 
ROOT
HETATM    1  C   UNL     1      -4.790  -0.591 -32.948  1.00  0.00     0.055 A 
HETATM    2  N   UNL     1      -3.959  -1.656 -32.688  1.00  0.00    -0.354 N 
HETATM    3  H   UNL     1      -3.182  -1.632 -32.044  1.00  0.00     0.166 HD
HETATM    4  C   UNL     1      -4.343  -2.767 -33.396  1.00  0.00     0.043 A 
HETATM    5  C   UNL     1      -5.465  -2.408 -34.142  1.00  0.00     0.005 A 
HETATM    6  C   UNL     1      -5.744  -1.027 -33.863  1.00  0.00     0.023 A 
HETATM    7  C   UNL     1      -3.783  -4.050 -33.428  1.00  0.00     0.030 A 
HETATM    8  C   UNL     1      -4.390  -5.002 -34.252  1.00  0.00     0.002 A 
HETATM    9  C   UNL     1      -5.510  -4.680 -35.011  1.00  0.00     0.001 A 
HETATM   10  C   UNL     1      -6.056  -3.392 -34.966  1.00  0.00     0.014 A 
ENDROOT
BRANCH   6  11
HETATM   11  C   UNL     1      -6.791  -0.186 -34.413  1.00  0.00     0.153 C 
HETATM   12  N   UNL     1      -7.994  -0.256 -33.941  1.00  0.00    -0.183 NA
BRANCH  12  13
HETATM   13  N   UNL     1      -8.915   0.571 -34.517  1.00  0.00    -0.243 N 
HETATM   14  C   UNL     1      -9.591   1.487 -33.727  1.00  0.00     0.274 C 
HETATM   15  O   UNL     1      -9.408   1.661 -32.523  1.00  0.00    -0.266 OA
HETATM   16  H   UNL     1      -9.001   0.582 -35.526  1.00  0.00     0.192 HD
BRANCH  14  17
HETATM   17  C   UNL     1     -10.570   2.366 -34.424  1.00  0.00     0.066 A 
HETATM   18  C   UNL     1     -10.258   3.721 -34.620  1.00  0.00     0.081 A 
HETATM   19  C   UNL     1     -11.142   4.563 -35.292  1.00  0.00     0.037 A 
HETATM   20  C   UNL     1     -12.360   4.067 -35.754  1.00  0.00     0.003 A 
HETATM   21  C   UNL     1     -12.697   2.732 -35.538  1.00  0.00     0.001 A 
HETATM   22  C   UNL     1     -11.808   1.882 -34.871  1.00  0.00     0.020 A 
BRANCH  18  23
HETATM   23  O   UNL     1      -9.094   4.293 -34.178  1.00  0.00    -0.360 OA
HETATM   24  H   UNL     1      -9.077   4.220 -33.196  1.00  0.00     0.217 HD
ENDBRANCH  18  23
ENDBRANCH  14  17
ENDBRANCH  12  13
ENDBRANCH   6  11
BRANCH   1  25
HETATM   25  C   UNL     1      -4.599   0.697 -32.285  1.00  0.00    -0.009 A 
HETATM   26  C   UNL     1      -5.516   1.143 -31.326  1.00  0.00     0.014 A 
HETATM   27  C   UNL     1      -5.334   2.377 -30.696  1.00  0.00     0.001 A 
HETATM   28  C   UNL     1      -4.236   3.171 -31.021  1.00  0.00     0.000 A 
HETATM   29  C   UNL     1      -3.319   2.735 -31.977  1.00  0.00     0.001 A 
HETATM   30  C   UNL     1      -3.500   1.503 -32.608  1.00  0.00     0.014 A 
ENDBRANCH   1  25
TORSDOF 5
ENDMDL
MODEL 3
REMARK VINA RESULT:      -8.8      3.007      7.151
REMARK  5 active torsions:
REMARK  status: ('A' for Active; 'I' for Inactive)
REMARK    1  A    between atoms: C_4  and  C_5 
REMARK    2  A    between atoms: C_10  and  C_11 
REMARK    3  A    between atoms: N_12  and  N_13 
REMARK       I    between atoms: N_13  and  C_14 
REMARK    4  A    between atoms: C_14  and  C_15 
REMARK    5  A    between atoms: C_16  and  O_17 
ROOT
HETATM    1  C   UNL     1      -7.747   0.223 -33.534  1.00  0.00     0.055 A 
HETATM    2  N   UNL     1      -8.999  -0.344 -33.462  1.00  0.00    -0.354 N 
HETATM    3  H   UNL     1      -9.175  -1.334 -33.370  1.00  0.00     0.166 HD
HETATM    4  C   UNL     1      -9.979   0.616 -33.500  1.00  0.00     0.043 A 
HETATM    5  C   UNL     1      -9.338   1.850 -33.601  1.00  0.00     0.005 A 
HETATM    6  C   UNL     1      -7.925   1.601 -33.630  1.00  0.00     0.023 A 
HETATM    7  C   UNL     1     -11.372   0.479 -33.452  1.00  0.00     0.030 A 
HETATM    8  C   UNL     1     -12.140   1.646 -33.510  1.00  0.00     0.002 A 
HETATM    9  C   UNL     1     -11.536   2.895 -33.611  1.00  0.00     0.001 A 
HETATM   10  C   UNL     1     -10.142   3.011 -33.657  1.00  0.00     0.014 A 
ENDROOT
BRANCH   6  11
HETATM   11  C   UNL     1      -6.839   2.556 -33.753  1.00  0.00     0.153 C 
HETATM   12  N   UNL     1      -6.399   3.176 -32.707  1.00  0.00    -0.183 NA
BRANCH  12  13
HETATM   13  N   UNL     1      -5.377   4.057 -32.915  1.00  0.00    -0.243 N 
HETATM   14  C   UNL     1      -4.070   3.639 -32.714  1.00  0.00     0.274 C 
HETATM   15  O   UNL     1      -3.728   2.502 -32.393  1.00  0.00    -0.266 OA
HETATM   16  H   UNL     1      -5.582   4.960 -33.326  1.00  0.00     0.192 HD
BRANCH  14  17
HETATM   17  C   UNL     1      -3.006   4.646 -32.975  1.00  0.00     0.066 A 
HETATM   18  C   UNL     1      -1.900   4.715 -32.112  1.00  0.00     0.081 A 
HETATM   19  C   UNL     1      -0.875   5.629 -32.344  1.00  0.00     0.037 A 
HETATM   20  C   UNL     1      -0.954   6.503 -33.427  1.00  0.00     0.003 A 
HETATM   21  C   UNL     1      -2.061   6.467 -34.274  1.00  0.00     0.001 A 
HETATM   22  C   UNL     1      -3.088   5.545 -34.048  1.00  0.00     0.020 A 
BRANCH  18  23
HETATM   23  O   UNL     1      -1.756   3.909 -31.013  1.00  0.00    -0.360 OA
HETATM   24  H   UNL     1      -0.944   4.196 -30.535  1.00  0.00     0.217 HD
ENDBRANCH  18  23
ENDBRANCH  14  17
ENDBRANCH  12  13
ENDBRANCH   6  11
BRANCH   1  25
HETATM   25  C   UNL     1      -6.541  -0.599 -33.481  1.00  0.00    -0.009 A 
HETATM   26  C   UNL     1      -6.249  -1.496 -34.515  1.00  0.00     0.014 A 
HETATM   27  C   UNL     1      -5.098  -2.286 -34.460  1.00  0.00     0.001 A 
HETATM   28  C   UNL     1      -4.232  -2.182 -33.373  1.00  0.00     0.000 A 
HETATM   29  C   UNL     1      -4.516  -1.292 -32.338  1.00  0.00     0.001 A 
HETATM   30  C   UNL     1      -5.667  -0.504 -32.391  1.00  0.00     0.014 A 
ENDBRANCH   1  25
TORSDOF 5
ENDMDL
MODEL 4
REMARK VINA RESULT:      -8.6      3.181      7.467
REMARK  5 active torsions:
REMARK  status: ('A' for Active; 'I' for Inactive)
REMARK    1  A    between atoms: C_4  and  C_5 
REMARK    2  A    between atoms: C_10  and  C_11 
REMARK    3  A    between atoms: N_12  and  N_13 
REMARK       I    between atoms: N_13  and  C_14 
REMARK    4  A    between atoms: C_14  and  C_15 
REMARK    5  A    between atoms: C_16  and  O_17 
ROOT
HETATM    1  C   UNL     1      -5.837   4.459 -32.484  1.00  0.00     0.055 A 
HETATM    2  N   UNL     1      -6.569   5.554 -32.086  1.00  0.00    -0.354 N 
HETATM    3  H   UNL     1      -6.287   6.513 -32.226  1.00  0.00     0.166 HD
HETATM    4  C   UNL     1      -7.749   5.172 -31.499  1.00  0.00     0.043 A 
HETATM    5  C   UNL     1      -7.783   3.778 -31.518  1.00  0.00     0.005 A 
HETATM    6  C   UNL     1      -6.568   3.327 -32.135  1.00  0.00     0.023 A 
HETATM    7  C   UNL     1      -8.779   5.954 -30.960  1.00  0.00     0.030 A 
HETATM    8  C   UNL     1      -9.883   5.289 -30.420  1.00  0.00     0.002 A 
HETATM    9  C   UNL     1      -9.951   3.900 -30.420  1.00  0.00     0.001 A 
HETATM   10  C   UNL     1      -8.912   3.135 -30.964  1.00  0.00     0.014 A 
ENDROOT
BRANCH   6  11
HETATM   11  C   UNL     1      -6.120   1.965 -32.363  1.00  0.00     0.153 C 
HETATM   12  N   UNL     1      -6.930   1.092 -32.870  1.00  0.00    -0.183 NA
BRANCH  12  13
HETATM   13  N   UNL     1      -6.425  -0.163 -33.050  1.00  0.00    -0.243 N 
HETATM   14  C   UNL     1      -6.728  -0.856 -34.211  1.00  0.00     0.274 C 
HETATM   15  O   UNL     1      -7.400  -0.420 -35.146  1.00  0.00    -0.266 OA
HETATM   16  H   UNL     1      -5.744  -0.518 -32.389  1.00  0.00     0.192 HD
BRANCH  14  17
HETATM   17  C   UNL     1      -6.133  -2.213 -34.348  1.00  0.00     0.066 A 
HETATM   18  C   UNL     1      -4.768  -2.395 -34.071  1.00  0.00     0.081 A 
HETATM   19  C   UNL     1      -4.187  -3.657 -34.165  1.00  0.00     0.037 A 
HETATM   20  C   UNL     1      -4.956  -4.750 -34.559  1.00  0.00     0.003 A 
HETATM   21  C   UNL     1      -6.305  -4.579 -34.867  1.00  0.00     0.001 A 
HETATM   22  C   UNL     1      -6.894  -3.314 -34.767  1.00  0.00     0.020 A 
BRANCH  18  23
HETATM   23  O   UNL     1      -3.936  -1.370 -33.700  1.00  0.00    -0.360 OA
HETATM   24  H   UNL     1      -3.954  -0.694 -34.416  1.00  0.00     0.217 HD
ENDBRANCH  18  23
ENDBRANCH  14  17
ENDBRANCH  12  13
ENDBRANCH   6  11
BRANCH   1  25
HETATM   25  C   UNL     1      -4.552   4.614 -33.162  1.00  0.00    -0.009 A 
HETATM   26  C   UNL     1      -3.360   4.288 -32.506  1.00  0.00     0.014 A 
HETATM   27  C   UNL     1      -2.132   4.442 -33.154  1.00  0.00     0.001 A 
HETATM   28  C   UNL     1      -2.089   4.923 -34.462  1.00  0.00     0.000 A 
HETATM   29  C   UNL     1      -3.273   5.253 -35.122  1.00  0.00     0.001 A 
HETATM   30  C   UNL     1      -4.500   5.100 -34.475  1.00  0.00     0.014 A 
ENDBRANCH   1  25
TORSDOF 5
ENDMDL
MODEL 5
REMARK VINA RESULT:      -8.6      1.785      2.339
REMARK  5 active torsions:
REMARK  status: ('A' for Active; 'I' for Inactive)
REMARK    1  A    between atoms: C_4  and  C_5 
REMARK    2  A    between atoms: C_10  and  C_11 
REMARK    3  A    between atoms: N_12  and  N_13 
REMARK       I    between atoms: N_13  and  C_14 
REMARK    4  A    between atoms: C_14  and  C_15 
REMARK    5  A    between atoms: C_16  and  O_17 
ROOT
HETATM    1  C   UNL     1      -6.047   0.600 -32.678  1.00  0.00     0.055 A 
HETATM    2  N   UNL     1      -4.979  -0.090 -33.205  1.00  0.00    -0.354 N 
HETATM    3  H   UNL     1      -4.018   0.214 -33.153  1.00  0.00     0.166 HD
HETATM    4  C   UNL     1      -5.388  -1.264 -33.786  1.00  0.00     0.043 A 
HETATM    5  C   UNL     1      -6.772  -1.337 -33.629  1.00  0.00     0.005 A 
HETATM    6  C   UNL     1      -7.189  -0.153 -32.933  1.00  0.00     0.023 A 
HETATM    7  C   UNL     1      -4.639  -2.256 -34.431  1.00  0.00     0.030 A 
HETATM    8  C   UNL     1      -5.327  -3.363 -34.936  1.00  0.00     0.002 A 
HETATM    9  C   UNL     1      -6.707  -3.470 -34.798  1.00  0.00     0.001 A 
HETATM   10  C   UNL     1      -7.439  -2.469 -34.150  1.00  0.00     0.014 A 
ENDROOT
BRANCH   6  11
HETATM   11  C   UNL     1      -8.532   0.250 -32.557  1.00  0.00     0.153 C 
HETATM   12  N   UNL     1      -9.184   1.095 -33.286  1.00  0.00    -0.183 NA
BRANCH  12  13
HETATM   13  N   UNL     1     -10.440   1.418 -32.857  1.00  0.00    -0.243 N 
HETATM   14  C   UNL     1     -11.446   1.611 -33.790  1.00  0.00     0.274 C 
HETATM   15  O   UNL     1     -11.324   1.478 -35.008  1.00  0.00    -0.266 OA
HETATM   16  H   UNL     1     -10.641   1.392 -31.865  1.00  0.00     0.192 HD
BRANCH  14  17
HETATM   17  C   UNL     1     -12.793   1.944 -33.252  1.00  0.00     0.066 A 
HETATM   18  C   UNL     1     -13.879   1.105 -33.549  1.00  0.00     0.081 A 
HETATM   19  C   UNL     1     -15.146   1.377 -33.038  1.00  0.00     0.037 A 
HETATM   20  C   UNL     1     -15.350   2.504 -32.244  1.00  0.00     0.003 A 
HETATM   21  C   UNL     1     -14.287   3.363 -31.967  1.00  0.00     0.001 A 
HETATM   22  C   UNL     1     -13.012   3.089 -32.471  1.00  0.00     0.020 A 
BRANCH  18  23
HETATM   23  O   UNL     1     -13.770  -0.009 -34.340  1.00  0.00    -0.360 OA
HETATM   24  H   UNL     1     -13.010  -0.540 -34.007  1.00  0.00     0.217 HD
ENDBRANCH  18  23
ENDBRANCH  14  17
ENDBRANCH  12  13
ENDBRANCH   6  11
BRANCH   1  25
HETATM   25  C   UNL     1      -5.856   1.869 -31.980  1.00  0.00    -0.009 A 
HETATM   26  C   UNL     1      -5.760   1.901 -30.583  1.00  0.00     0.014 A 
HETATM   27  C   UNL     1      -5.583   3.116 -29.916  1.00  0.00     0.001 A 
HETATM   28  C   UNL     1      -5.500   4.304 -30.641  1.00  0.00     0.000 A 
HETATM   29  C   UNL     1      -5.597   4.280 -32.032  1.00  0.00     0.001 A 
HETATM   30  C   UNL     1      -5.775   3.067 -32.699  1.00  0.00     0.014 A 
ENDBRANCH   1  25
TORSDOF 5
ENDMDL
MODEL 6
REMARK VINA RESULT:      -8.4      3.470      6.865
REMARK  5 active torsions:
REMARK  status: ('A' for Active; 'I' for Inactive)
REMARK    1  A    between atoms: C_4  and  C_5 
REMARK    2  A    between atoms: C_10  and  C_11 
REMARK    3  A    between atoms: N_12  and  N_13 
REMARK       I    between atoms: N_13  and  C_14 
REMARK    4  A    between atoms: C_14  and  C_15 
REMARK    5  A    between atoms: C_16  and  O_17 
ROOT
HETATM    1  C   UNL     1      -7.065   0.821 -32.893  1.00  0.00     0.055 A 
HETATM    2  N   UNL     1      -7.591  -0.257 -33.567  1.00  0.00    -0.354 N 
HETATM    3  H   UNL     1      -8.563  -0.354 -33.824  1.00  0.00     0.166 HD
HETATM    4  C   UNL     1      -6.616  -1.173 -33.873  1.00  0.00     0.043 A 
HETATM    5  C   UNL     1      -5.413  -0.669 -33.379  1.00  0.00     0.005 A 
HETATM    6  C   UNL     1      -5.699   0.591 -32.752  1.00  0.00     0.023 A 
HETATM    7  C   UNL     1      -6.712  -2.398 -34.546  1.00  0.00     0.030 A 
HETATM    8  C   UNL     1      -5.538  -3.136 -34.720  1.00  0.00     0.002 A 
HETATM    9  C   UNL     1      -4.320  -2.665 -34.240  1.00  0.00     0.001 A 
HETATM   10  C   UNL     1      -4.244  -1.438 -33.570  1.00  0.00     0.014 A 
ENDROOT
BRANCH   6  11
HETATM   11  C   UNL     1      -4.788   1.489 -32.069  1.00  0.00     0.153 C 
HETATM   12  N   UNL     1      -4.394   2.577 -32.647  1.00  0.00    -0.183 NA
BRANCH  12  13
HETATM   13  N   UNL     1      -3.537   3.363 -31.931  1.00  0.00    -0.243 N 
HETATM   14  C   UNL     1      -2.700   4.240 -32.603  1.00  0.00     0.274 C 
HETATM   15  O   UNL     1      -2.680   4.413 -33.821  1.00  0.00    -0.266 OA
HETATM   16  H   UNL     1      -3.611   3.377 -30.921  1.00  0.00     0.192 HD
BRANCH  14  17
HETATM   17  C   UNL     1      -1.803   5.075 -31.759  1.00  0.00     0.066 A 
HETATM   18  C   UNL     1      -2.340   5.772 -30.665  1.00  0.00     0.081 A 
HETATM   19  C   UNL     1      -1.522   6.541 -29.841  1.00  0.00     0.037 A 
HETATM   20  C   UNL     1      -0.160   6.645 -30.115  1.00  0.00     0.003 A 
HETATM   21  C   UNL     1       0.383   5.985 -31.217  1.00  0.00     0.001 A 
HETATM   22  C   UNL     1      -0.435   5.205 -32.041  1.00  0.00     0.020 A 
BRANCH  18  23
HETATM   23  O   UNL     1      -3.672   5.742 -30.340  1.00  0.00    -0.360 OA
HETATM   24  H   UNL     1      -3.820   6.399 -29.621  1.00  0.00     0.217 HD
ENDBRANCH  18  23
ENDBRANCH  14  17
ENDBRANCH  12  13
ENDBRANCH   6  11
BRANCH   1  25
HETATM   25  C   UNL     1      -7.908   1.943 -32.487  1.00  0.00    -0.009 A 
HETATM   26  C   UNL     1      -8.069   3.049 -33.331  1.00  0.00     0.014 A 
HETATM   27  C   UNL     1      -8.871   4.124 -32.939  1.00  0.00     0.001 A 
HETATM   28  C   UNL     1      -9.516   4.099 -31.704  1.00  0.00     0.000 A 
HETATM   29  C   UNL     1      -9.358   3.002 -30.857  1.00  0.00     0.001 A 
HETATM   30  C   UNL     1      -8.556   1.928 -31.246  1.00  0.00     0.014 A 
ENDBRANCH   1  25
TORSDOF 5
ENDMDL
MODEL 7
REMARK VINA RESULT:      -8.2      3.703      7.878
REMARK  5 active torsions:
REMARK  status: ('A' for Active; 'I' for Inactive)
REMARK    1  A    between atoms: C_4  and  C_5 
REMARK    2  A    between atoms: C_10  and  C_11 
REMARK    3  A    between atoms: N_12  and  N_13 
REMARK       I    between atoms: N_13  and  C_14 
REMARK    4  A    between atoms: C_14  and  C_15 
REMARK    5  A    between atoms: C_16  and  O_17 
ROOT
HETATM    1  C   UNL     1      -4.345   5.396 -31.642  1.00  0.00     0.055 A 
HETATM    2  N   UNL     1      -4.690   6.564 -31.002  1.00  0.00    -0.354 N 
HETATM    3  H   UNL     1      -4.289   7.468 -31.204  1.00  0.00     0.166 HD
HETATM    4  C   UNL     1      -5.673   6.345 -30.070  1.00  0.00     0.043 A 
HETATM    5  C   UNL     1      -5.977   4.984 -30.109  1.00  0.00     0.005 A 
HETATM    6  C   UNL     1      -5.130   4.382 -31.100  1.00  0.00     0.023 A 
HETATM    7  C   UNL     1      -6.310   7.246 -29.207  1.00  0.00     0.030 A 
HETATM    8  C   UNL     1      -7.292   6.740 -28.351  1.00  0.00     0.002 A 
HETATM    9  C   UNL     1      -7.621   5.388 -28.361  1.00  0.00     0.001 A 
HETATM   10  C   UNL     1      -6.974   4.503 -29.232  1.00  0.00     0.014 A 
ENDROOT
BRANCH   6  11
HETATM   11  C   UNL     1      -5.047   2.988 -31.493  1.00  0.00     0.153 C 
HETATM   12  N   UNL     1      -6.054   2.415 -32.068  1.00  0.00    -0.183 NA
BRANCH  12  13
HETATM   13  N   UNL     1      -5.889   1.102 -32.402  1.00  0.00    -0.243 N 
HETATM   14  C   UNL     1      -6.147   0.696 -33.702  1.00  0.00     0.274 C 
HETATM   15  O   UNL     1      -6.486   1.436 -34.625  1.00  0.00    -0.266 OA
HETATM   16  H   UNL     1      -5.468   0.473 -31.730  1.00  0.00     0.192 HD
BRANCH  14  17
HETATM   17  C   UNL     1      -5.932  -0.746 -34.001  1.00  0.00     0.066 A 
HETATM   18  C   UNL     1      -4.660  -1.307 -33.800  1.00  0.00     0.081 A 
HETATM   19  C   UNL     1      -4.433  -2.659 -34.045  1.00  0.00     0.037 A 
HETATM   20  C   UNL     1      -5.468  -3.463 -34.518  1.00  0.00     0.003 A 
HETATM   21  C   UNL     1      -6.728  -2.914 -34.753  1.00  0.00     0.001 A 
HETATM   22  C   UNL     1      -6.961  -1.558 -34.500  1.00  0.00     0.020 A 
BRANCH  18  23
HETATM   23  O   UNL     1      -3.583  -0.582 -33.359  1.00  0.00    -0.360 OA
HETATM   24  H   UNL     1      -3.360  -0.897 -32.453  1.00  0.00     0.217 HD
ENDBRANCH  18  23
ENDBRANCH  14  17
ENDBRANCH  12  13
ENDBRANCH   6  11
BRANCH   1  25
HETATM   25  C   UNL     1      -3.337   5.382 -32.699  1.00  0.00    -0.009 A 
HETATM   26  C   UNL     1      -1.975   5.454 -32.381  1.00  0.00     0.014 A 
HETATM   27  C   UNL     1      -1.012   5.447 -33.393  1.00  0.00     0.001 A 
HETATM   28  C   UNL     1      -1.404   5.367 -34.728  1.00  0.00     0.000 A 
HETATM   29  C   UNL     1      -2.759   5.297 -35.054  1.00  0.00     0.001 A 
HETATM   30  C   UNL     1      -3.722   5.306 -34.043  1.00  0.00     0.014 A 
ENDBRANCH   1  25
TORSDOF 5
ENDMDL
MODEL 8
REMARK VINA RESULT:      -7.9     14.580     16.458
REMARK  5 active torsions:
REMARK  status: ('A' for Active; 'I' for Inactive)
REMARK    1  A    between atoms: C_4  and  C_5 
REMARK    2  A    between atoms: C_10  and  C_11 
REMARK    3  A    between atoms: N_12  and  N_13 
REMARK       I    between atoms: N_13  and  C_14 
REMARK    4  A    between atoms: C_14  and  C_15 
REMARK    5  A    between atoms: C_16  and  O_17 
ROOT
HETATM    1  C   UNL     1      -5.093 -13.345 -38.649  1.00  0.00     0.055 A 
HETATM    2  N   UNL     1      -5.690 -12.694 -39.704  1.00  0.00    -0.354 N 
HETATM    3  H   UNL     1      -5.189 -12.245 -40.457  1.00  0.00     0.166 HD
HETATM    4  C   UNL     1      -7.058 -12.760 -39.616  1.00  0.00     0.043 A 
HETATM    5  C   UNL     1      -7.358 -13.482 -38.461  1.00  0.00     0.005 A 
HETATM    6  C   UNL     1      -6.113 -13.846 -37.845  1.00  0.00     0.023 A 
HETATM    7  C   UNL     1      -8.039 -12.240 -40.469  1.00  0.00     0.030 A 
HETATM    8  C   UNL     1      -9.377 -12.463 -40.130  1.00  0.00     0.002 A 
HETATM    9  C   UNL     1      -9.714 -13.177 -38.985  1.00  0.00     0.001 A 
HETATM   10  C   UNL     1      -8.719 -13.691 -38.145  1.00  0.00     0.014 A 
ENDROOT
BRANCH   6  11
HETATM   11  C   UNL     1      -5.893 -14.578 -36.611  1.00  0.00     0.153 C 
HETATM   12  N   UNL     1      -5.664 -13.939 -35.510  1.00  0.00    -0.183 NA
BRANCH  12  13
HETATM   13  N   UNL     1      -5.469 -14.707 -34.399  1.00  0.00    -0.243 N 
HETATM   14  C   UNL     1      -6.472 -14.786 -33.445  1.00  0.00     0.274 C 
HETATM   15  O   UNL     1      -7.574 -14.243 -33.523  1.00  0.00    -0.266 OA
HETATM   16  H   UNL     1      -4.648 -15.298 -34.348  1.00  0.00     0.192 HD
BRANCH  14  17
HETATM   17  C   UNL     1      -6.198 -15.653 -32.267  1.00  0.00     0.066 A 
HETATM   18  C   UNL     1      -5.147 -15.319 -31.398  1.00  0.00     0.081 A 
HETATM   19  C   UNL     1      -4.882 -16.096 -30.272  1.00  0.00     0.037 A 
HETATM   20  C   UNL     1      -5.648 -17.231 -30.014  1.00  0.00     0.003 A 
HETATM   21  C   UNL     1      -6.675 -17.592 -30.885  1.00  0.00     0.001 A 
HETATM   22  C   UNL     1      -6.949 -16.810 -32.011  1.00  0.00     0.020 A 
BRANCH  18  23
HETATM   23  O   UNL     1      -4.331 -14.235 -31.591  1.00  0.00    -0.360 OA
HETATM   24  H   UNL     1      -3.514 -14.375 -31.060  1.00  0.00     0.217 HD
ENDBRANCH  18  23
ENDBRANCH  14  17
ENDBRANCH  12  13
ENDBRANCH   6  11
BRANCH   1  25
HETATM   25  C   UNL     1      -3.639 -13.435 -38.542  1.00  0.00    -0.009 A 
HETATM   26  C   UNL     1      -2.880 -12.300 -38.234  1.00  0.00     0.014 A 
HETATM   27  C   UNL     1      -1.489 -12.386 -38.137  1.00  0.00     0.001 A 
HETATM   28  C   UNL     1      -0.849 -13.607 -38.346  1.00  0.00     0.000 A 
HETATM   29  C   UNL     1      -1.598 -14.742 -38.655  1.00  0.00     0.001 A 
HETATM   30  C   UNL     1      -2.988 -14.657 -38.754  1.00  0.00     0.014 A 
ENDBRANCH   1  25
TORSDOF 5
ENDMDL
MODEL 9
REMARK VINA RESULT:      -7.7      2.521      3.643
REMARK  5 active torsions:
REMARK  status: ('A' for Active; 'I' for Inactive)
REMARK    1  A    between atoms: C_4  and  C_5 
REMARK    2  A    between atoms: C_10  and  C_11 
REMARK    3  A    between atoms: N_12  and  N_13 
REMARK       I    between atoms: N_13  and  C_14 
REMARK    4  A    between atoms: C_14  and  C_15 
REMARK    5  A    between atoms: C_16  and  O_17 
ROOT
HETATM    1  C   UNL     1      -6.367   2.512 -31.544  1.00  0.00     0.055 A 
HETATM    2  N   UNL     1      -5.037   2.239 -31.771  1.00  0.00    -0.354 N 
HETATM    3  H   UNL     1      -4.278   2.866 -31.548  1.00  0.00     0.166 HD
HETATM    4  C   UNL     1      -4.874   0.989 -32.313  1.00  0.00     0.043 A 
HETATM    5  C   UNL     1      -6.145   0.431 -32.441  1.00  0.00     0.005 A 
HETATM    6  C   UNL     1      -7.091   1.399 -31.961  1.00  0.00     0.023 A 
HETATM    7  C   UNL     1      -3.703   0.320 -32.692  1.00  0.00     0.030 A 
HETATM    8  C   UNL     1      -3.835  -0.966 -33.223  1.00  0.00     0.002 A 
HETATM    9  C   UNL     1      -5.087  -1.555 -33.367  1.00  0.00     0.001 A 
HETATM   10  C   UNL     1      -6.246  -0.870 -32.981  1.00  0.00     0.014 A 
ENDROOT
BRANCH   6  11
HETATM   11  C   UNL     1      -8.538   1.302 -31.911  1.00  0.00     0.153 C 
HETATM   12  N   UNL     1      -9.257   1.864 -32.828  1.00  0.00    -0.183 NA
BRANCH  12  13
HETATM   13  N   UNL     1     -10.610   1.723 -32.702  1.00  0.00    -0.243 N 
HETATM   14  C   UNL     1     -11.428   2.065 -33.767  1.00  0.00     0.274 C 
HETATM   15  O   UNL     1     -11.040   2.460 -34.866  1.00  0.00    -0.266 OA
HETATM   16  H   UNL     1     -10.981   1.262 -31.881  1.00  0.00     0.192 HD
BRANCH  14  17
HETATM   17  C   UNL     1     -12.890   1.872 -33.567  1.00  0.00     0.066 A 
HETATM   18  C   UNL     1     -13.537   2.557 -32.525  1.00  0.00     0.081 A 
HETATM   19  C   UNL     1     -14.909   2.417 -32.328  1.00  0.00     0.037 A 
HETATM   20  C   UNL     1     -15.648   1.572 -33.153  1.00  0.00     0.003 A 
HETATM   21  C   UNL     1     -15.014   0.862 -34.172  1.00  0.00     0.001 A 
HETATM   22  C   UNL     1     -13.638   1.006 -34.378  1.00  0.00     0.020 A 
BRANCH  18  23
HETATM   23  O   UNL     1     -12.881   3.388 -31.655  1.00  0.00    -0.360 OA
HETATM   24  H   UNL     1     -12.112   2.894 -31.289  1.00  0.00     0.217 HD
ENDBRANCH  18  23
ENDBRANCH  14  17
ENDBRANCH  12  13
ENDBRANCH   6  11
BRANCH   1  25
HETATM   25  C   UNL     1      -6.788   3.775 -30.943  1.00  0.00    -0.009 A 
HETATM   26  C   UNL     1      -6.985   3.870 -29.560  1.00  0.00     0.014 A 
HETATM   27  C   UNL     1      -7.393   5.076 -28.987  1.00  0.00     0.001 A 
HETATM   28  C   UNL     1      -7.605   6.195 -29.792  1.00  0.00     0.000 A 
HETATM   29  C   UNL     1      -7.412   6.108 -31.170  1.00  0.00     0.001 A 
HETATM   30  C   UNL     1      -7.007   4.902 -31.744  1.00  0.00     0.014 A 
ENDBRANCH   1  25
TORSDOF 5
ENDMDL
MODEL 10
REMARK VINA RESULT:      -7.1      2.944      5.978
REMARK  5 active torsions:
REMARK  status: ('A' for Active; 'I' for Inactive)
REMARK    1  A    between atoms: C_4  and  C_5 
REMARK    2  A    between atoms: C_10  and  C_11 
REMARK    3  A    between atoms: N_12  and  N_13 
REMARK       I    between atoms: N_13  and  C_14 
REMARK    4  A    between atoms: C_14  and  C_15 
REMARK    5  A    between atoms: C_16  and  O_17 
ROOT
HETATM    1  C   UNL     1      -7.708   0.526 -33.110  1.00  0.00     0.055 A 
HETATM    2  N   UNL     1      -7.868  -0.586 -33.904  1.00  0.00    -0.354 N 
HETATM    3  H   UNL     1      -8.706  -0.803 -34.424  1.00  0.00     0.166 HD
HETATM    4  C   UNL     1      -6.727  -1.349 -33.922  1.00  0.00     0.043 A 
HETATM    5  C   UNL     1      -5.793  -0.706 -33.110  1.00  0.00     0.005 A 
HETATM    6  C   UNL     1      -6.418   0.478 -32.590  1.00  0.00     0.023 A 
HETATM    7  C   UNL     1      -6.458  -2.547 -34.595  1.00  0.00     0.030 A 
HETATM    8  C   UNL     1      -5.191  -3.112 -34.431  1.00  0.00     0.002 A 
HETATM    9  C   UNL     1      -4.234  -2.500 -33.628  1.00  0.00     0.001 A 
HETATM   10  C   UNL     1      -4.521  -1.302 -32.965  1.00  0.00     0.014 A 
ENDROOT
BRANCH   6  11
HETATM   11  C   UNL     1      -5.869   1.464 -31.677  1.00  0.00     0.153 C 
HETATM   12  N   UNL     1      -5.581   2.651 -32.102  1.00  0.00    -0.183 NA
BRANCH  12  13
HETATM   13  N   UNL     1      -5.069   3.513 -31.175  1.00  0.00    -0.243 N 
HETATM   14  C   UNL     1      -5.855   4.558 -30.715  1.00  0.00     0.274 C 
HETATM   15  O   UNL     1      -7.023   4.769 -31.042  1.00  0.00    -0.266 OA
HETATM   16  H   UNL     1      -4.172   3.306 -30.754  1.00  0.00     0.192 HD
BRANCH  14  17
HETATM   17  C   UNL     1      -5.239   5.450 -29.695  1.00  0.00     0.066 A 
HETATM   18  C   UNL     1      -5.767   5.473 -28.394  1.00  0.00     0.081 A 
HETATM   19  C   UNL     1      -5.196   6.278 -27.410  1.00  0.00     0.037 A 
HETATM   20  C   UNL     1      -4.106   7.088 -27.721  1.00  0.00     0.003 A 
HETATM   21  C   UNL     1      -3.591   7.100 -29.017  1.00  0.00     0.001 A 
HETATM   22  C   UNL     1      -4.157   6.287 -30.004  1.00  0.00     0.020 A 
BRANCH  18  23
HETATM   23  O   UNL     1      -6.850   4.725 -28.011  1.00  0.00    -0.360 OA
HETATM   24  H   UNL     1      -7.653   5.134 -28.410  1.00  0.00     0.217 HD
ENDBRANCH  18  23
ENDBRANCH  14  17
ENDBRANCH  12  13
ENDBRANCH   6  11
BRANCH   1  25
HETATM   25  C   UNL     1      -8.780   1.507 -32.958  1.00  0.00    -0.009 A 
HETATM   26  C   UNL     1      -9.123   1.991 -31.689  1.00  0.00     0.014 A 
HETATM   27  C   UNL     1     -10.151   2.924 -31.545  1.00  0.00     0.001 A 
HETATM   28  C   UNL     1     -10.843   3.380 -32.666  1.00  0.00     0.000 A 
HETATM   29  C   UNL     1     -10.509   2.902 -33.933  1.00  0.00     0.001 A 
HETATM   30  C   UNL     1      -9.482   1.967 -34.078  1.00  0.00     0.014 A 
ENDBRANCH   1  25
TORSDOF 5
ENDMDL
