MODEL 1
REMARK VINA RESULT:      -8.7      0.000      0.000
REMARK  10 active torsions:
REMARK  status: ('A' for Active; 'I' for Inactive)
REMARK    1  A    between atoms: N_2  and  C_3 
REMARK    2  A    between atoms: C_3  and  C_4 
REMARK       I    between atoms: C_4  and  N_5 
REMARK    3  A    between atoms: N_5  and  C_6 
REMARK    4  A    between atoms: C_6  and  C_7 
REMARK    5  A    between atoms: C_7  and  C_8 
REMARK    6  A    between atoms: C_8  and  C_9 
REMARK       I    between atoms: C_9  and  N_10 
REMARK    7  A    between atoms: N_10  and  C_11 
REMARK    8  A    between atoms: C_11  and  C_12 
REMARK    9  A    between atoms: C_12  and  C_13 
REMARK   10  A    between atoms: C_13  and  N_14 
ROOT
HETATM    1  C   UNL     1      -3.963   3.982 -32.448  1.00  0.00     0.235 C 
HETATM    2  N   UNL     1      -2.687   3.735 -32.924  1.00  0.00    -0.360 N 
HETATM    3  O   UNL     1      -4.618   4.964 -32.785  1.00  0.00    -0.272 OA
HETATM    4  H   UNL     1      -2.169   2.936 -32.581  1.00  0.00     0.162 HD
ENDROOT
BRANCH   2   5
HETATM    5  C   UNL     1      -2.035   4.627 -33.860  1.00  0.00     0.123 C 
BRANCH   5   6
HETATM    6  C   UNL     1      -1.179   5.671 -33.148  1.00  0.00     0.029 C 
BRANCH   6   7
HETATM    7  C   UNL     1      -1.533   7.077 -33.618  1.00  0.00     0.104 C 
BRANCH   7   8
HETATM    8  C   UNL     1      -2.140   7.883 -32.494  1.00  0.00     0.217 C 
HETATM    9  N   UNL     1      -2.957   7.167 -31.647  1.00  0.00    -0.361 N 
HETATM   10  H   UNL     1      -3.201   6.217 -31.912  1.00  0.00     0.162 HD
HETATM   11  O   UNL     1      -1.875   9.067 -32.311  1.00  0.00    -0.274 OA
BRANCH   9  12
HETATM   12  C   UNL     1      -3.754   7.813 -30.622  1.00  0.00     0.124 C 
BRANCH  12  13
HETATM   13  C   UNL     1      -3.309   7.474 -29.196  1.00  0.00     0.047 C 
BRANCH  13  14
HETATM   14  C   UNL     1      -2.777   8.695 -28.445  1.00  0.00     0.236 C 
BRANCH  14  15
HETATM   15  N   UNL     1      -1.445   8.403 -27.743  1.00  0.00    -0.071 N 
HETATM   16  H   UNL     1      -1.626   7.633 -27.086  1.00  0.00     0.279 HD
HETATM   17  C   UNL     1      -0.385   7.945 -28.718  1.00  0.00     0.235 C 
HETATM   18  C   UNL     1       0.926   7.560 -28.043  1.00  0.00     0.028 C 
HETATM   19  C   UNL     1       1.744   8.764 -27.593  1.00  0.00     0.002 C 
HETATM   20  C   UNL     1       1.393   9.289 -26.208  1.00  0.00     0.002 C 
HETATM   21  C   UNL     1      -0.078   9.234 -25.811  1.00  0.00     0.028 C 
HETATM   22  C   UNL     1      -1.052   9.619 -26.915  1.00  0.00     0.235 C 
ENDBRANCH  14  15
ENDBRANCH  13  14
ENDBRANCH  12  13
ENDBRANCH   9  12
ENDBRANCH   7   8
ENDBRANCH   6   7
ENDBRANCH   5   6
ENDBRANCH   2   5
BRANCH   1  23
HETATM   23  C   UNL     1      -4.488   2.886 -31.519  1.00  0.00     0.235 C 
BRANCH  23  24
HETATM   24  N   UNL     1      -4.938   1.730 -32.270  1.00  0.00    -0.299 N 
HETATM   25  C   UNL     1      -5.984   1.850 -33.165  1.00  0.00     0.214 A 
HETATM   26  N   UNL     1      -6.437   0.908 -33.927  1.00  0.00    -0.235 NA
HETATM   27  C   UNL     1      -5.799  -0.280 -33.782  1.00  0.00     0.115 A 
HETATM   28  C   UNL     1      -4.781  -0.566 -32.895  1.00  0.00     0.075 A 
HETATM   29  S   UNL     1      -6.202  -1.629 -34.746  1.00  0.00    -0.073 SA
HETATM   30  C   UNL     1      -4.306   0.510 -32.042  1.00  0.00     0.262 A 
HETATM   31  C   UNL     1      -4.348  -1.929 -32.984  1.00  0.00    -0.026 A 
HETATM   32  O   UNL     1      -3.413   0.359 -31.210  1.00  0.00    -0.267 OA
HETATM   33  C   UNL     1      -5.029  -2.599 -33.985  1.00  0.00    -0.008 A 
HETATM   34  C   UNL     1      -3.277  -2.596 -32.174  1.00  0.00     0.041 C 
HETATM   35  C   UNL     1      -4.818  -4.030 -34.370  1.00  0.00     0.047 C 
HETATM   36  C   UNL     1      -3.501  -4.556 -33.778  1.00  0.00     0.005 C 
HETATM   37  C   UNL     1      -3.325  -4.126 -32.315  1.00  0.00     0.005 C 
ENDBRANCH  23  24
ENDBRANCH   1  23
TORSDOF 10
ENDMDL
MODEL 2
REMARK VINA RESULT:      -8.6      3.140      5.006
REMARK  10 active torsions:
REMARK  status: ('A' for Active; 'I' for Inactive)
REMARK    1  A    between atoms: N_2  and  C_3 
REMARK    2  A    between atoms: C_3  and  C_4 
REMARK       I    between atoms: C_4  and  N_5 
REMARK    3  A    between atoms: N_5  and  C_6 
REMARK    4  A    between atoms: C_6  and  C_7 
REMARK    5  A    between atoms: C_7  and  C_8 
REMARK    6  A    between atoms: C_8  and  C_9 
REMARK       I    between atoms: C_9  and  N_10 
REMARK    7  A    between atoms: N_10  and  C_11 
REMARK    8  A    between atoms: C_11  and  C_12 
REMARK    9  A    between atoms: C_12  and  C_13 
REMARK   10  A    between atoms: C_13  and  N_14 
ROOT
HETATM    1  C   UNL     1      -1.566   6.402 -33.700  1.00  0.00     0.235 C 
HETATM    2  N   UNL     1      -1.089   6.139 -32.428  1.00  0.00    -0.360 N 
HETATM    3  O   UNL     1      -1.623   7.536 -34.166  1.00  0.00    -0.272 OA
HETATM    4  H   UNL     1      -1.106   5.191 -32.071  1.00  0.00     0.162 HD
ENDROOT
BRANCH   2   5
HETATM    5  C   UNL     1      -0.621   7.194 -31.554  1.00  0.00     0.123 C 
BRANCH   5   6
HETATM    6  C   UNL     1       0.686   6.821 -30.861  1.00  0.00     0.029 C 
BRANCH   6   7
HETATM    7  C   UNL     1       0.444   5.796 -29.759  1.00  0.00     0.104 C 
BRANCH   7   8
HETATM    8  C   UNL     1       0.379   6.466 -28.406  1.00  0.00     0.217 C 
HETATM    9  N   UNL     1      -0.333   5.772 -27.453  1.00  0.00    -0.361 N 
HETATM   10  H   UNL     1      -0.867   4.962 -27.753  1.00  0.00     0.162 HD
HETATM   11  O   UNL     1       0.970   7.513 -28.158  1.00  0.00    -0.274 OA
BRANCH   9  12
HETATM   12  C   UNL     1      -0.640   6.346 -26.157  1.00  0.00     0.124 C 
BRANCH  12  13
HETATM   13  C   UNL     1      -2.139   6.389 -25.845  1.00  0.00     0.047 C 
BRANCH  13  14
HETATM   14  C   UNL     1      -2.910   7.292 -26.809  1.00  0.00     0.236 C 
BRANCH  14  15
HETATM   15  N   UNL     1      -3.757   6.484 -27.800  1.00  0.00    -0.071 N 
HETATM   16  H   UNL     1      -3.331   5.549 -27.849  1.00  0.00     0.279 HD
HETATM   17  C   UNL     1      -5.181   6.325 -27.322  1.00  0.00     0.235 C 
HETATM   18  C   UNL     1      -6.028   5.451 -28.240  1.00  0.00     0.028 C 
HETATM   19  C   UNL     1      -6.450   6.161 -29.521  1.00  0.00     0.002 C 
HETATM   20  C   UNL     1      -5.444   6.069 -30.660  1.00  0.00     0.002 C 
HETATM   21  C   UNL     1      -3.970   6.109 -30.271  1.00  0.00     0.028 C 
HETATM   22  C   UNL     1      -3.624   7.113 -29.181  1.00  0.00     0.235 C 
ENDBRANCH  14  15
ENDBRANCH  13  14
ENDBRANCH  12  13
ENDBRANCH   9  12
ENDBRANCH   7   8
ENDBRANCH   6   7
ENDBRANCH   5   6
ENDBRANCH   2   5
BRANCH   1  23
HETATM   23  C   UNL     1      -1.952   5.142 -34.477  1.00  0.00     0.235 C 
BRANCH  23  24
HETATM   24  N   UNL     1      -3.275   4.678 -34.106  1.00  0.00    -0.299 N 
HETATM   25  C   UNL     1      -4.392   5.212 -34.720  1.00  0.00     0.214 A 
HETATM   26  N   UNL     1      -5.615   4.843 -34.514  1.00  0.00    -0.235 NA
HETATM   27  C   UNL     1      -5.750   3.853 -33.597  1.00  0.00     0.115 A 
HETATM   28  C   UNL     1      -4.740   3.263 -32.865  1.00  0.00     0.075 A 
HETATM   29  S   UNL     1      -7.275   3.179 -33.235  1.00  0.00    -0.073 SA
HETATM   30  C   UNL     1      -3.379   3.711 -33.110  1.00  0.00     0.262 A 
HETATM   31  C   UNL     1      -5.231   2.264 -31.964  1.00  0.00    -0.026 A 
HETATM   32  O   UNL     1      -2.408   3.260 -32.504  1.00  0.00    -0.267 OA
HETATM   33  C   UNL     1      -6.598   2.106 -32.101  1.00  0.00    -0.008 A 
HETATM   34  C   UNL     1      -4.431   1.428 -31.011  1.00  0.00     0.041 C 
HETATM   35  C   UNL     1      -7.441   1.135 -31.333  1.00  0.00     0.047 C 
HETATM   36  C   UNL     1      -6.556   0.081 -30.650  1.00  0.00     0.005 C 
HETATM   37  C   UNL     1      -5.327   0.716 -29.985  1.00  0.00     0.005 C 
ENDBRANCH  23  24
ENDBRANCH   1  23
TORSDOF 10
ENDMDL
MODEL 3
REMARK VINA RESULT:      -8.5      2.090      2.822
REMARK  10 active torsions:
REMARK  status: ('A' for Active; 'I' for Inactive)
REMARK    1  A    between atoms: N_2  and  C_3 
REMARK    2  A    between atoms: C_3  and  C_4 
REMARK       I    between atoms: C_4  and  N_5 
REMARK    3  A    between atoms: N_5  and  C_6 
REMARK    4  A    between atoms: C_6  and  C_7 
REMARK    5  A    between atoms: C_7  and  C_8 
REMARK    6  A    between atoms: C_8  and  C_9 
REMARK       I    between atoms: C_9  and  N_10 
REMARK    7  A    between atoms: N_10  and  C_11 
REMARK    8  A    between atoms: C_11  and  C_12 
REMARK    9  A    between atoms: C_12  and  C_13 
REMARK   10  A    between atoms: C_13  and  N_14 
ROOT
HETATM    1  C   UNL     1      -4.779   4.429 -32.375  1.00  0.00     0.235 C 
HETATM    2  N   UNL     1      -4.219   4.245 -33.627  1.00  0.00    -0.360 N 
HETATM    3  O   UNL     1      -4.618   5.454 -31.721  1.00  0.00    -0.272 OA
HETATM    4  H   UNL     1      -4.343   3.363 -34.108  1.00  0.00     0.162 HD
ENDROOT
BRANCH   2   5
HETATM    5  C   UNL     1      -3.399   5.261 -34.254  1.00  0.00     0.123 C 
BRANCH   5   6
HETATM    6  C   UNL     1      -1.915   4.909 -34.197  1.00  0.00     0.029 C 
BRANCH   6   7
HETATM    7  C   UNL     1      -1.178   5.816 -33.220  1.00  0.00     0.104 C 
BRANCH   7   8
HETATM    8  C   UNL     1      -0.897   5.094 -31.923  1.00  0.00     0.217 C 
HETATM    9  N   UNL     1       0.123   5.634 -31.171  1.00  0.00    -0.361 N 
HETATM   10  H   UNL     1       0.690   6.363 -31.593  1.00  0.00     0.162 HD
HETATM   11  O   UNL     1      -1.569   4.141 -31.538  1.00  0.00    -0.274 OA
BRANCH   9  12
HETATM   12  C   UNL     1       0.637   4.972 -29.988  1.00  0.00     0.124 C 
BRANCH  12  13
HETATM   13  C   UNL     1       0.632   5.858 -28.739  1.00  0.00     0.047 C 
BRANCH  13  14
HETATM   14  C   UNL     1       0.198   7.292 -29.041  1.00  0.00     0.236 C 
BRANCH  14  15
HETATM   15  N   UNL     1       0.691   8.279 -27.976  1.00  0.00    -0.071 N 
HETATM   16  H   UNL     1       1.507   8.758 -28.380  1.00  0.00     0.279 HD
HETATM   17  C   UNL     1      -0.352   9.324 -27.652  1.00  0.00     0.235 C 
HETATM   18  C   UNL     1       0.138  10.374 -26.663  1.00  0.00     0.028 C 
HETATM   19  C   UNL     1       0.191   9.865 -25.227  1.00  0.00     0.002 C 
HETATM   20  C   UNL     1       1.489   9.165 -24.849  1.00  0.00     0.002 C 
HETATM   21  C   UNL     1       2.147   8.319 -25.934  1.00  0.00     0.028 C 
HETATM   22  C   UNL     1       1.184   7.490 -26.770  1.00  0.00     0.235 C 
ENDBRANCH  14  15
ENDBRANCH  13  14
ENDBRANCH  12  13
ENDBRANCH   9  12
ENDBRANCH   7   8
ENDBRANCH   6   7
ENDBRANCH   5   6
ENDBRANCH   2   5
BRANCH   1  23
HETATM   23  C   UNL     1      -5.658   3.260 -31.925  1.00  0.00     0.235 C 
BRANCH  23  24
HETATM   24  N   UNL     1      -4.940   2.003 -31.994  1.00  0.00    -0.299 N 
HETATM   25  C   UNL     1      -3.817   1.803 -31.213  1.00  0.00     0.214 A 
HETATM   26  N   UNL     1      -3.128   0.711 -31.148  1.00  0.00    -0.235 NA
HETATM   27  C   UNL     1      -3.586  -0.285 -31.947  1.00  0.00     0.115 A 
HETATM   28  C   UNL     1      -4.654  -0.217 -32.819  1.00  0.00     0.075 A 
HETATM   29  S   UNL     1      -2.857  -1.827 -31.954  1.00  0.00    -0.073 SA
HETATM   30  C   UNL     1      -5.398   1.030 -32.879  1.00  0.00     0.262 A 
HETATM   31  C   UNL     1      -4.855  -1.443 -33.531  1.00  0.00    -0.026 A 
HETATM   32  O   UNL     1      -6.358   1.200 -33.629  1.00  0.00    -0.267 OA
HETATM   33  C   UNL     1      -3.954  -2.407 -33.118  1.00  0.00    -0.008 A 
HETATM   34  C   UNL     1      -5.906  -1.734 -34.560  1.00  0.00     0.041 C 
HETATM   35  C   UNL     1      -3.888  -3.811 -33.633  1.00  0.00     0.047 C 
HETATM   36  C   UNL     1      -5.173  -4.163 -34.399  1.00  0.00     0.005 C 
HETATM   37  C   UNL     1      -5.603  -3.026 -35.336  1.00  0.00     0.005 C 
ENDBRANCH  23  24
ENDBRANCH   1  23
TORSDOF 10
ENDMDL
MODEL 4
REMARK VINA RESULT:      -8.4      1.986      3.067
REMARK  10 active torsions:
REMARK  status: ('A' for Active; 'I' for Inactive)
REMARK    1  A    between atoms: N_2  and  C_3 
REMARK    2  A    between atoms: C_3  and  C_4 
REMARK       I    between atoms: C_4  and  N_5 
REMARK    3  A    between atoms: N_5  and  C_6 
REMARK    4  A    between atoms: C_6  and  C_7 
REMARK    5  A    between atoms: C_7  and  C_8 
REMARK    6  A    between atoms: C_8  and  C_9 
REMARK       I    between atoms: C_9  and  N_10 
REMARK    7  A    between atoms: N_10  and  C_11 
REMARK    8  A    between atoms: C_11  and  C_12 
REMARK    9  A    between atoms: C_12  and  C_13 
REMARK   10  A    between atoms: C_13  and  N_14 
ROOT
HETATM    1  C   UNL     1      -4.756   4.535 -32.377  1.00  0.00     0.235 C 
HETATM    2  N   UNL     1      -4.197   4.354 -33.629  1.00  0.00    -0.360 N 
HETATM    3  O   UNL     1      -4.592   5.557 -31.718  1.00  0.00    -0.272 OA
HETATM    4  H   UNL     1      -4.324   3.473 -34.114  1.00  0.00     0.162 HD
ENDROOT
BRANCH   2   5
HETATM    5  C   UNL     1      -3.372   5.368 -34.251  1.00  0.00     0.123 C 
BRANCH   5   6
HETATM    6  C   UNL     1      -1.888   5.016 -34.183  1.00  0.00     0.029 C 
BRANCH   6   7
HETATM    7  C   UNL     1      -1.164   5.905 -33.179  1.00  0.00     0.104 C 
BRANCH   7   8
HETATM    8  C   UNL     1      -0.849   5.141 -31.914  1.00  0.00     0.217 C 
HETATM    9  N   UNL     1       0.171   5.673 -31.157  1.00  0.00    -0.361 N 
HETATM   10  H   UNL     1       0.717   6.429 -31.560  1.00  0.00     0.162 HD
HETATM   11  O   UNL     1      -1.496   4.161 -31.555  1.00  0.00    -0.274 OA
BRANCH   9  12
HETATM   12  C   UNL     1       0.716   4.978 -30.007  1.00  0.00     0.124 C 
BRANCH  12  13
HETATM   13  C   UNL     1       0.614   5.777 -28.704  1.00  0.00     0.047 C 
BRANCH  13  14
HETATM   14  C   UNL     1       0.320   7.257 -28.947  1.00  0.00     0.236 C 
BRANCH  14  15
HETATM   15  N   UNL     1      -0.938   7.723 -28.203  1.00  0.00    -0.071 N 
HETATM   16  H   UNL     1      -0.924   8.751 -28.226  1.00  0.00     0.279 HD
HETATM   17  C   UNL     1      -2.201   7.257 -28.889  1.00  0.00     0.235 C 
HETATM   18  C   UNL     1      -3.471   7.778 -28.226  1.00  0.00     0.028 C 
HETATM   19  C   UNL     1      -3.810   7.052 -26.930  1.00  0.00     0.002 C 
HETATM   20  C   UNL     1      -3.143   7.625 -25.687  1.00  0.00     0.002 C 
HETATM   21  C   UNL     1      -1.724   8.156 -25.861  1.00  0.00     0.028 C 
HETATM   22  C   UNL     1      -0.825   7.303 -26.743  1.00  0.00     0.235 C 
ENDBRANCH  14  15
ENDBRANCH  13  14
ENDBRANCH  12  13
ENDBRANCH   9  12
ENDBRANCH   7   8
ENDBRANCH   6   7
ENDBRANCH   5   6
ENDBRANCH   2   5
BRANCH   1  23
HETATM   23  C   UNL     1      -5.641   3.368 -31.932  1.00  0.00     0.235 C 
BRANCH  23  24
HETATM   24  N   UNL     1      -4.925   2.109 -31.999  1.00  0.00    -0.299 N 
HETATM   25  C   UNL     1      -3.799   1.910 -31.223  1.00  0.00     0.214 A 
HETATM   26  N   UNL     1      -3.112   0.816 -31.156  1.00  0.00    -0.235 NA
HETATM   27  C   UNL     1      -3.576  -0.182 -31.948  1.00  0.00     0.115 A 
HETATM   28  C   UNL     1      -4.649  -0.115 -32.815  1.00  0.00     0.075 A 
HETATM   29  S   UNL     1      -2.850  -1.726 -31.952  1.00  0.00    -0.073 SA
HETATM   30  C   UNL     1      -5.390   1.133 -32.877  1.00  0.00     0.262 A 
HETATM   31  C   UNL     1      -4.856  -1.344 -33.521  1.00  0.00    -0.026 A 
HETATM   32  O   UNL     1      -6.354   1.301 -33.623  1.00  0.00    -0.267 OA
HETATM   33  C   UNL     1      -3.955  -2.309 -33.107  1.00  0.00    -0.008 A 
HETATM   34  C   UNL     1      -5.913  -1.638 -34.543  1.00  0.00     0.041 C 
HETATM   35  C   UNL     1      -3.895  -3.715 -33.617  1.00  0.00     0.047 C 
HETATM   36  C   UNL     1      -5.184  -4.067 -34.374  1.00  0.00     0.005 C 
HETATM   37  C   UNL     1      -5.617  -2.934 -35.314  1.00  0.00     0.005 C 
ENDBRANCH  23  24
ENDBRANCH   1  23
TORSDOF 10
ENDMDL
MODEL 5
REMARK VINA RESULT:      -8.4      2.958      9.935
REMARK  10 active torsions:
REMARK  status: ('A' for Active; 'I' for Inactive)
REMARK    1  A    between atoms: N_2  and  C_3 
REMARK    2  A    between atoms: C_3  and  C_4 
REMARK       I    between atoms: C_4  and  N_5 
REMARK    3  A    between atoms: N_5  and  C_6 
REMARK    4  A    between atoms: C_6  and  C_7 
REMARK    5  A    between atoms: C_7  and  C_8 
REMARK    6  A    between atoms: C_8  and  C_9 
REMARK       I    between atoms: C_9  and  N_10 
REMARK    7  A    between atoms: N_10  and  C_11 
REMARK    8  A    between atoms: C_11  and  C_12 
REMARK    9  A    between atoms: C_12  and  C_13 
REMARK   10  A    between atoms: C_13  and  N_14 
ROOT
HETATM    1  C   UNL     1      -3.353   6.227 -34.045  1.00  0.00     0.235 C 
HETATM    2  N   UNL     1      -4.273   6.329 -33.016  1.00  0.00    -0.360 N 
HETATM    3  O   UNL     1      -3.577   5.599 -35.075  1.00  0.00    -0.272 OA
HETATM    4  H   UNL     1      -4.024   6.820 -32.166  1.00  0.00     0.162 HD
ENDROOT
BRANCH   2   5
HETATM    5  C   UNL     1      -5.573   5.695 -33.089  1.00  0.00     0.123 C 
BRANCH   5   6
HETATM    6  C   UNL     1      -5.641   4.436 -32.228  1.00  0.00     0.029 C 
BRANCH   6   7
HETATM    7  C   UNL     1      -4.341   4.232 -31.459  1.00  0.00     0.104 C 
BRANCH   7   8
HETATM    8  C   UNL     1      -3.676   2.936 -31.860  1.00  0.00     0.217 C 
HETATM    9  N   UNL     1      -3.926   1.875 -31.018  1.00  0.00    -0.361 N 
HETATM   10  H   UNL     1      -4.401   2.065 -30.141  1.00  0.00     0.162 HD
HETATM   11  O   UNL     1      -3.020   2.822 -32.891  1.00  0.00    -0.274 OA
BRANCH   9  12
HETATM   12  C   UNL     1      -3.234   0.608 -31.156  1.00  0.00     0.124 C 
BRANCH  12  13
HETATM   13  C   UNL     1      -4.145  -0.542 -31.597  1.00  0.00     0.047 C 
BRANCH  13  14
HETATM   14  C   UNL     1      -5.591  -0.350 -31.141  1.00  0.00     0.236 C 
BRANCH  14  15
HETATM   15  N   UNL     1      -6.586  -0.520 -32.296  1.00  0.00    -0.071 N 
HETATM   16  H   UNL     1      -6.862  -1.511 -32.297  1.00  0.00     0.279 HD
HETATM   17  C   UNL     1      -7.831   0.312 -32.091  1.00  0.00     0.235 C 
HETATM   18  C   UNL     1      -8.880   0.099 -33.176  1.00  0.00     0.028 C 
HETATM   19  C   UNL     1      -8.534   0.792 -34.488  1.00  0.00     0.002 C 
HETATM   20  C   UNL     1      -7.658  -0.027 -35.427  1.00  0.00     0.002 C 
HETATM   21  C   UNL     1      -6.591  -0.900 -34.775  1.00  0.00     0.028 C 
HETATM   22  C   UNL     1      -5.861  -0.253 -33.608  1.00  0.00     0.235 C 
ENDBRANCH  14  15
ENDBRANCH  13  14
ENDBRANCH  12  13
ENDBRANCH   9  12
ENDBRANCH   7   8
ENDBRANCH   6   7
ENDBRANCH   5   6
ENDBRANCH   2   5
BRANCH   1  23
HETATM   23  C   UNL     1      -2.070   7.020 -33.793  1.00  0.00     0.235 C 
BRANCH  23  24
HETATM   24  N   UNL     1      -1.410   6.584 -32.578  1.00  0.00    -0.299 N 
HETATM   25  C   UNL     1      -0.850   5.322 -32.509  1.00  0.00     0.214 A 
HETATM   26  N   UNL     1      -0.192   4.842 -31.504  1.00  0.00    -0.235 NA
HETATM   27  C   UNL     1      -0.087   5.691 -30.451  1.00  0.00     0.115 A 
HETATM   28  C   UNL     1      -0.638   6.953 -30.352  1.00  0.00     0.075 A 
HETATM   29  S   UNL     1       0.802   5.273 -29.056  1.00  0.00    -0.073 SA
HETATM   30  C   UNL     1      -1.384   7.456 -31.492  1.00  0.00     0.262 A 
HETATM   31  C   UNL     1      -0.355   7.573 -29.092  1.00  0.00    -0.026 A 
HETATM   32  O   UNL     1      -1.924   8.562 -31.503  1.00  0.00    -0.267 OA
HETATM   33  C   UNL     1       0.454   6.764 -28.314  1.00  0.00    -0.008 A 
HETATM   34  C   UNL     1      -0.794   8.930 -28.628  1.00  0.00     0.041 C 
HETATM   35  C   UNL     1       0.963   7.102 -26.947  1.00  0.00     0.047 C 
HETATM   36  C   UNL     1       0.792   8.604 -26.668  1.00  0.00     0.005 C 
HETATM   37  C   UNL     1      -0.586   9.111 -27.116  1.00  0.00     0.005 C 
ENDBRANCH  23  24
ENDBRANCH   1  23
TORSDOF 10
ENDMDL
MODEL 6
REMARK VINA RESULT:      -8.4      2.540      4.063
REMARK  10 active torsions:
REMARK  status: ('A' for Active; 'I' for Inactive)
REMARK    1  A    between atoms: N_2  and  C_3 
REMARK    2  A    between atoms: C_3  and  C_4 
REMARK       I    between atoms: C_4  and  N_5 
REMARK    3  A    between atoms: N_5  and  C_6 
REMARK    4  A    between atoms: C_6  and  C_7 
REMARK    5  A    between atoms: C_7  and  C_8 
REMARK    6  A    between atoms: C_8  and  C_9 
REMARK       I    between atoms: C_9  and  N_10 
REMARK    7  A    between atoms: N_10  and  C_11 
REMARK    8  A    between atoms: C_11  and  C_12 
REMARK    9  A    between atoms: C_12  and  C_13 
REMARK   10  A    between atoms: C_13  and  N_14 
ROOT
HETATM    1  C   UNL     1      -6.944   4.090 -30.398  1.00  0.00     0.235 C 
HETATM    2  N   UNL     1      -7.298   4.517 -31.666  1.00  0.00    -0.360 N 
HETATM    3  O   UNL     1      -6.467   4.842 -29.554  1.00  0.00    -0.272 OA
HETATM    4  H   UNL     1      -7.644   3.848 -32.343  1.00  0.00     0.162 HD
ENDROOT
BRANCH   2   5
HETATM    5  C   UNL     1      -7.128   5.893 -32.083  1.00  0.00     0.123 C 
BRANCH   5   6
HETATM    6  C   UNL     1      -5.908   6.068 -32.983  1.00  0.00     0.029 C 
BRANCH   6   7
HETATM    7  C   UNL     1      -5.575   4.769 -33.706  1.00  0.00     0.104 C 
BRANCH   7   8
HETATM    8  C   UNL     1      -4.081   4.542 -33.742  1.00  0.00     0.217 C 
HETATM    9  N   UNL     1      -3.393   5.367 -34.604  1.00  0.00    -0.361 N 
HETATM   10  H   UNL     1      -3.932   5.948 -35.238  1.00  0.00     0.162 HD
HETATM   11  O   UNL     1      -3.518   3.731 -33.013  1.00  0.00    -0.274 OA
BRANCH   9  12
HETATM   12  C   UNL     1      -1.984   5.173 -34.890  1.00  0.00     0.124 C 
BRANCH  12  13
HETATM   13  C   UNL     1      -1.085   6.267 -34.307  1.00  0.00     0.047 C 
BRANCH  13  14
HETATM   14  C   UNL     1      -1.656   6.871 -33.024  1.00  0.00     0.236 C 
BRANCH  14  15
HETATM   15  N   UNL     1      -0.675   6.760 -31.850  1.00  0.00    -0.071 N 
HETATM   16  H   UNL     1       0.200   7.202 -32.160  1.00  0.00     0.279 HD
HETATM   17  C   UNL     1      -1.169   7.507 -30.632  1.00  0.00     0.235 C 
HETATM   18  C   UNL     1      -0.176   7.492 -29.476  1.00  0.00     0.028 C 
HETATM   19  C   UNL     1      -0.133   6.158 -28.741  1.00  0.00     0.002 C 
HETATM   20  C   UNL     1       0.823   5.134 -29.338  1.00  0.00     0.002 C 
HETATM   21  C   UNL     1       0.942   5.119 -30.858  1.00  0.00     0.028 C 
HETATM   22  C   UNL     1      -0.373   5.287 -31.603  1.00  0.00     0.235 C 
ENDBRANCH  14  15
ENDBRANCH  13  14
ENDBRANCH  12  13
ENDBRANCH   9  12
ENDBRANCH   7   8
ENDBRANCH   6   7
ENDBRANCH   5   6
ENDBRANCH   2   5
BRANCH   1  23
HETATM   23  C   UNL     1      -7.262   2.615 -30.143  1.00  0.00     0.235 C 
BRANCH  23  24
HETATM   24  N   UNL     1      -6.300   1.748 -30.794  1.00  0.00    -0.299 N 
HETATM   25  C   UNL     1      -4.955   1.859 -30.495  1.00  0.00     0.214 A 
HETATM   26  N   UNL     1      -4.013   1.109 -30.968  1.00  0.00    -0.235 NA
HETATM   27  C   UNL     1      -4.440   0.159 -31.837  1.00  0.00     0.115 A 
HETATM   28  C   UNL     1      -5.735  -0.036 -32.273  1.00  0.00     0.075 A 
HETATM   29  S   UNL     1      -3.362  -0.974 -32.517  1.00  0.00    -0.073 SA
HETATM   30  C   UNL     1      -6.768   0.833 -31.733  1.00  0.00     0.262 A 
HETATM   31  C   UNL     1      -5.838  -1.114 -33.210  1.00  0.00    -0.026 A 
HETATM   32  O   UNL     1      -7.950   0.751 -32.064  1.00  0.00    -0.267 OA
HETATM   33  C   UNL     1      -4.611  -1.725 -33.397  1.00  0.00    -0.008 A 
HETATM   34  C   UNL     1      -7.077  -1.605 -33.898  1.00  0.00     0.041 C 
HETATM   35  C   UNL     1      -4.351  -2.897 -34.291  1.00  0.00     0.047 C 
HETATM   36  C   UNL     1      -5.673  -3.574 -34.685  1.00  0.00     0.005 C 
HETATM   37  C   UNL     1      -6.745  -2.544 -35.069  1.00  0.00     0.005 C 
ENDBRANCH  23  24
ENDBRANCH   1  23
TORSDOF 10
ENDMDL
MODEL 7
REMARK VINA RESULT:      -8.4      2.194      3.173
REMARK  10 active torsions:
REMARK  status: ('A' for Active; 'I' for Inactive)
REMARK    1  A    between atoms: N_2  and  C_3 
REMARK    2  A    between atoms: C_3  and  C_4 
REMARK       I    between atoms: C_4  and  N_5 
REMARK    3  A    between atoms: N_5  and  C_6 
REMARK    4  A    between atoms: C_6  and  C_7 
REMARK    5  A    between atoms: C_7  and  C_8 
REMARK    6  A    between atoms: C_8  and  C_9 
REMARK       I    between atoms: C_9  and  N_10 
REMARK    7  A    between atoms: N_10  and  C_11 
REMARK    8  A    between atoms: C_11  and  C_12 
REMARK    9  A    between atoms: C_12  and  C_13 
REMARK   10  A    between atoms: C_13  and  N_14 
ROOT
HETATM    1  C   UNL     1      -7.656   3.029 -32.956  1.00  0.00     0.235 C 
HETATM    2  N   UNL     1      -6.537   3.841 -32.923  1.00  0.00    -0.360 N 
HETATM    3  O   UNL     1      -8.520   3.124 -33.823  1.00  0.00    -0.272 OA
HETATM    4  H   UNL     1      -5.875   3.755 -32.161  1.00  0.00     0.162 HD
ENDROOT
BRANCH   2   5
HETATM    5  C   UNL     1      -6.308   4.868 -33.918  1.00  0.00     0.123 C 
BRANCH   5   6
HETATM    6  C   UNL     1      -4.936   5.518 -33.759  1.00  0.00     0.029 C 
BRANCH   6   7
HETATM    7  C   UNL     1      -4.037   5.188 -34.945  1.00  0.00     0.104 C 
BRANCH   7   8
HETATM    8  C   UNL     1      -2.601   5.553 -34.648  1.00  0.00     0.217 C 
HETATM    9  N   UNL     1      -2.436   6.449 -33.616  1.00  0.00    -0.361 N 
HETATM   10  H   UNL     1      -3.265   6.896 -33.236  1.00  0.00     0.162 HD
HETATM   11  O   UNL     1      -1.654   5.042 -35.238  1.00  0.00    -0.274 OA
BRANCH   9  12
HETATM   12  C   UNL     1      -1.146   7.037 -33.310  1.00  0.00     0.124 C 
BRANCH  12  13
HETATM   13  C   UNL     1      -0.549   6.552 -31.985  1.00  0.00     0.047 C 
BRANCH  13  14
HETATM   14  C   UNL     1      -1.621   6.108 -30.990  1.00  0.00     0.236 C 
BRANCH  14  15
HETATM   15  N   UNL     1      -1.167   6.291 -29.536  1.00  0.00    -0.071 N 
HETATM   16  H   UNL     1      -1.321   5.388 -29.069  1.00  0.00     0.279 HD
HETATM   17  C   UNL     1       0.304   6.621 -29.445  1.00  0.00     0.235 C 
HETATM   18  C   UNL     1       0.809   6.722 -28.011  1.00  0.00     0.028 C 
HETATM   19  C   UNL     1       0.393   8.015 -27.319  1.00  0.00     0.002 C 
HETATM   20  C   UNL     1      -0.972   7.964 -26.645  1.00  0.00     0.002 C 
HETATM   21  C   UNL     1      -2.050   7.150 -27.352  1.00  0.00     0.028 C 
HETATM   22  C   UNL     1      -2.081   7.308 -28.864  1.00  0.00     0.235 C 
ENDBRANCH  14  15
ENDBRANCH  13  14
ENDBRANCH  12  13
ENDBRANCH   9  12
ENDBRANCH   7   8
ENDBRANCH   6   7
ENDBRANCH   5   6
ENDBRANCH   2   5
BRANCH   1  23
HETATM   23  C   UNL     1      -7.673   1.972 -31.850  1.00  0.00     0.235 C 
BRANCH  23  24
HETATM   24  N   UNL     1      -6.598   1.014 -32.019  1.00  0.00    -0.299 N 
HETATM   25  C   UNL     1      -5.398   1.196 -31.357  1.00  0.00     0.214 A 
HETATM   26  N   UNL     1      -4.390   0.386 -31.386  1.00  0.00    -0.235 NA
HETATM   27  C   UNL     1      -4.580  -0.712 -32.160  1.00  0.00     0.115 A 
HETATM   28  C   UNL     1      -5.695  -1.001 -32.921  1.00  0.00     0.075 A 
HETATM   29  S   UNL     1      -3.396  -1.935 -32.275  1.00  0.00    -0.073 SA
HETATM   30  C   UNL     1      -6.804  -0.063 -32.878  1.00  0.00     0.262 A 
HETATM   31  C   UNL     1      -5.560  -2.232 -33.640  1.00  0.00    -0.026 A 
HETATM   32  O   UNL     1      -7.838  -0.219 -33.526  1.00  0.00    -0.267 OA
HETATM   33  C   UNL     1      -4.359  -2.849 -33.340  1.00  0.00    -0.008 A 
HETATM   34  C   UNL     1      -6.558  -2.857 -34.568  1.00  0.00     0.041 C 
HETATM   35  C   UNL     1      -3.895  -4.161 -33.893  1.00  0.00     0.047 C 
HETATM   36  C   UNL     1      -5.067  -4.916 -34.538  1.00  0.00     0.005 C 
HETATM   37  C   UNL     1      -5.934  -3.988 -35.400  1.00  0.00     0.005 C 
ENDBRANCH  23  24
ENDBRANCH   1  23
TORSDOF 10
ENDMDL
MODEL 8
REMARK VINA RESULT:      -8.3      2.904     10.615
REMARK  10 active torsions:
REMARK  status: ('A' for Active; 'I' for Inactive)
REMARK    1  A    between atoms: N_2  and  C_3 
REMARK    2  A    between atoms: C_3  and  C_4 
REMARK       I    between atoms: C_4  and  N_5 
REMARK    3  A    between atoms: N_5  and  C_6 
REMARK    4  A    between atoms: C_6  and  C_7 
REMARK    5  A    between atoms: C_7  and  C_8 
REMARK    6  A    between atoms: C_8  and  C_9 
REMARK       I    between atoms: C_9  and  N_10 
REMARK    7  A    between atoms: N_10  and  C_11 
REMARK    8  A    between atoms: C_11  and  C_12 
REMARK    9  A    between atoms: C_12  and  C_13 
REMARK   10  A    between atoms: C_13  and  N_14 
ROOT
HETATM    1  C   UNL     1      -2.969   3.904 -32.936  1.00  0.00     0.235 C 
HETATM    2  N   UNL     1      -4.238   4.177 -33.415  1.00  0.00    -0.360 N 
HETATM    3  O   UNL     1      -2.712   2.908 -32.266  1.00  0.00    -0.272 OA
HETATM    4  H   UNL     1      -4.410   5.035 -33.924  1.00  0.00     0.162 HD
ENDROOT
BRANCH   2   5
HETATM    5  C   UNL     1      -5.358   3.296 -33.156  1.00  0.00     0.123 C 
BRANCH   5   6
HETATM    6  C   UNL     1      -6.224   3.800 -32.005  1.00  0.00     0.029 C 
BRANCH   6   7
HETATM    7  C   UNL     1      -5.862   3.097 -30.702  1.00  0.00     0.104 C 
BRANCH   7   8
HETATM    8  C   UNL     1      -5.750   1.605 -30.910  1.00  0.00     0.217 C 
HETATM    9  N   UNL     1      -4.467   1.108 -30.846  1.00  0.00    -0.361 N 
HETATM   10  H   UNL     1      -3.701   1.773 -30.810  1.00  0.00     0.162 HD
HETATM   11  O   UNL     1      -6.732   0.883 -31.059  1.00  0.00    -0.274 OA
BRANCH   9  12
HETATM   12  C   UNL     1      -4.159  -0.267 -31.190  1.00  0.00     0.124 C 
BRANCH  12  13
HETATM   13  C   UNL     1      -3.623  -0.437 -32.614  1.00  0.00     0.047 C 
BRANCH  13  14
HETATM   14  C   UNL     1      -4.741  -0.624 -33.641  1.00  0.00     0.236 C 
BRANCH  14  15
HETATM   15  N   UNL     1      -5.212  -2.081 -33.719  1.00  0.00    -0.071 N 
HETATM   16  H   UNL     1      -5.376  -2.385 -32.750  1.00  0.00     0.279 HD
HETATM   17  C   UNL     1      -6.513  -2.211 -34.477  1.00  0.00     0.235 C 
HETATM   18  C   UNL     1      -7.056  -3.635 -34.496  1.00  0.00     0.028 C 
HETATM   19  C   UNL     1      -6.309  -4.547 -35.461  1.00  0.00     0.002 C 
HETATM   20  C   UNL     1      -5.075  -5.219 -34.874  1.00  0.00     0.002 C 
HETATM   21  C   UNL     1      -4.255  -4.394 -33.888  1.00  0.00     0.028 C 
HETATM   22  C   UNL     1      -4.076  -2.933 -34.271  1.00  0.00     0.235 C 
ENDBRANCH  14  15
ENDBRANCH  13  14
ENDBRANCH  12  13
ENDBRANCH   9  12
ENDBRANCH   7   8
ENDBRANCH   6   7
ENDBRANCH   5   6
ENDBRANCH   2   5
BRANCH   1  23
HETATM   23  C   UNL     1      -1.921   4.929 -33.374  1.00  0.00     0.235 C 
BRANCH  23  24
HETATM   24  N   UNL     1      -1.881   6.062 -32.470  1.00  0.00    -0.299 N 
HETATM   25  C   UNL     1      -2.624   7.194 -32.746  1.00  0.00     0.214 A 
HETATM   26  N   UNL     1      -2.711   8.242 -31.992  1.00  0.00    -0.235 NA
HETATM   27  C   UNL     1      -1.978   8.170 -30.853  1.00  0.00     0.115 A 
HETATM   28  C   UNL     1      -1.149   7.135 -30.470  1.00  0.00     0.075 A 
HETATM   29  S   UNL     1      -2.013   9.420 -29.693  1.00  0.00    -0.073 SA
HETATM   30  C   UNL     1      -1.062   5.980 -31.347  1.00  0.00     0.262 A 
HETATM   31  C   UNL     1      -0.503   7.390 -29.218  1.00  0.00    -0.026 A 
HETATM   32  O   UNL     1      -0.344   5.010 -31.106  1.00  0.00    -0.267 OA
HETATM   33  C   UNL     1      -0.923   8.593 -28.681  1.00  0.00    -0.008 A 
HETATM   34  C   UNL     1       0.468   6.501 -28.499  1.00  0.00     0.041 C 
HETATM   35  C   UNL     1      -0.471   9.166 -27.374  1.00  0.00     0.047 C 
HETATM   36  C   UNL     1       0.225   8.088 -26.528  1.00  0.00     0.005 C 
HETATM   37  C   UNL     1       1.195   7.247 -27.368  1.00  0.00     0.005 C 
ENDBRANCH  23  24
ENDBRANCH   1  23
TORSDOF 10
ENDMDL
MODEL 9
REMARK VINA RESULT:      -8.1      2.294      4.522
REMARK  10 active torsions:
REMARK  status: ('A' for Active; 'I' for Inactive)
REMARK    1  A    between atoms: N_2  and  C_3 
REMARK    2  A    between atoms: C_3  and  C_4 
REMARK       I    between atoms: C_4  and  N_5 
REMARK    3  A    between atoms: N_5  and  C_6 
REMARK    4  A    between atoms: C_6  and  C_7 
REMARK    5  A    between atoms: C_7  and  C_8 
REMARK    6  A    between atoms: C_8  and  C_9 
REMARK       I    between atoms: C_9  and  N_10 
REMARK    7  A    between atoms: N_10  and  C_11 
REMARK    8  A    between atoms: C_11  and  C_12 
REMARK    9  A    between atoms: C_12  and  C_13 
REMARK   10  A    between atoms: C_13  and  N_14 
ROOT
HETATM    1  C   UNL     1      -7.295   3.261 -31.529  1.00  0.00     0.235 C 
HETATM    2  N   UNL     1      -7.093   4.506 -30.961  1.00  0.00    -0.360 N 
HETATM    3  O   UNL     1      -8.090   2.444 -31.074  1.00  0.00    -0.272 OA
HETATM    4  H   UNL     1      -6.392   5.127 -31.347  1.00  0.00     0.162 HD
ENDROOT
BRANCH   2   5
HETATM    5  C   UNL     1      -7.814   4.932 -29.780  1.00  0.00     0.123 C 
BRANCH   5   6
HETATM    6  C   UNL     1      -7.031   5.971 -28.980  1.00  0.00     0.029 C 
BRANCH   6   7
HETATM    7  C   UNL     1      -5.661   5.434 -28.585  1.00  0.00     0.104 C 
BRANCH   7   8
HETATM    8  C   UNL     1      -4.581   6.450 -28.879  1.00  0.00     0.217 C 
HETATM    9  N   UNL     1      -3.562   6.492 -27.953  1.00  0.00    -0.361 N 
HETATM   10  H   UNL     1      -3.676   5.961 -27.095  1.00  0.00     0.162 HD
HETATM   11  O   UNL     1      -4.579   7.137 -29.896  1.00  0.00    -0.274 OA
BRANCH   9  12
HETATM   12  C   UNL     1      -2.538   7.518 -27.986  1.00  0.00     0.124 C 
BRANCH  12  13
HETATM   13  C   UNL     1      -1.253   7.079 -28.696  1.00  0.00     0.047 C 
BRANCH  13  14
HETATM   14  C   UNL     1      -1.031   7.822 -30.013  1.00  0.00     0.236 C 
BRANCH  14  15
HETATM   15  N   UNL     1      -1.687   7.100 -31.198  1.00  0.00    -0.071 N 
HETATM   16  H   UNL     1      -2.702   7.210 -31.077  1.00  0.00     0.279 HD
HETATM   17  C   UNL     1      -1.302   7.726 -32.519  1.00  0.00     0.235 C 
HETATM   18  C   UNL     1      -2.007   7.090 -33.711  1.00  0.00     0.028 C 
HETATM   19  C   UNL     1      -1.431   5.732 -34.093  1.00  0.00     0.002 C 
HETATM   20  C   UNL     1      -2.030   4.552 -33.340  1.00  0.00     0.002 C 
HETATM   21  C   UNL     1      -2.392   4.792 -31.878  1.00  0.00     0.028 C 
HETATM   22  C   UNL     1      -1.379   5.612 -31.094  1.00  0.00     0.235 C 
ENDBRANCH  14  15
ENDBRANCH  13  14
ENDBRANCH  12  13
ENDBRANCH   9  12
ENDBRANCH   7   8
ENDBRANCH   6   7
ENDBRANCH   5   6
ENDBRANCH   2   5
BRANCH   1  23
HETATM   23  C   UNL     1      -6.480   3.035 -32.804  1.00  0.00     0.235 C 
BRANCH  23  24
HETATM   24  N   UNL     1      -5.619   1.875 -32.682  1.00  0.00    -0.299 N 
HETATM   25  C   UNL     1      -4.528   1.909 -31.833  1.00  0.00     0.214 A 
HETATM   26  N   UNL     1      -3.723   0.924 -31.600  1.00  0.00    -0.235 NA
HETATM   27  C   UNL     1      -4.017  -0.209 -32.285  1.00  0.00     0.115 A 
HETATM   28  C   UNL     1      -5.033  -0.377 -33.203  1.00  0.00     0.075 A 
HETATM   29  S   UNL     1      -3.116  -1.641 -32.063  1.00  0.00    -0.073 SA
HETATM   30  C   UNL     1      -5.911   0.754 -33.454  1.00  0.00     0.262 A 
HETATM   31  C   UNL     1      -5.051  -1.696 -33.762  1.00  0.00    -0.026 A 
HETATM   32  O   UNL     1      -6.839   0.714 -34.261  1.00  0.00    -0.267 OA
HETATM   33  C   UNL     1      -4.070  -2.487 -33.190  1.00  0.00    -0.008 A 
HETATM   34  C   UNL     1      -6.000  -2.235 -34.790  1.00  0.00     0.041 C 
HETATM   35  C   UNL     1      -3.813  -3.924 -33.519  1.00  0.00     0.047 C 
HETATM   36  C   UNL     1      -5.003  -4.519 -34.289  1.00  0.00     0.005 C 
HETATM   37  C   UNL     1      -5.506  -3.565 -35.381  1.00  0.00     0.005 C 
ENDBRANCH  23  24
ENDBRANCH   1  23
TORSDOF 10
ENDMDL
MODEL 10
REMARK VINA RESULT:      -8.1      2.206      2.769
REMARK  10 active torsions:
REMARK  status: ('A' for Active; 'I' for Inactive)
REMARK    1  A    between atoms: N_2  and  C_3 
REMARK    2  A    between atoms: C_3  and  C_4 
REMARK       I    between atoms: C_4  and  N_5 
REMARK    3  A    between atoms: N_5  and  C_6 
REMARK    4  A    between atoms: C_6  and  C_7 
REMARK    5  A    between atoms: C_7  and  C_8 
REMARK    6  A    between atoms: C_8  and  C_9 
REMARK       I    between atoms: C_9  and  N_10 
REMARK    7  A    between atoms: N_10  and  C_11 
REMARK    8  A    between atoms: C_11  and  C_12 
REMARK    9  A    between atoms: C_12  and  C_13 
REMARK   10  A    between atoms: C_13  and  N_14 
ROOT
HETATM    1  C   UNL     1      -7.099   3.459 -32.009  1.00  0.00     0.235 C 
HETATM    2  N   UNL     1      -6.503   3.314 -33.250  1.00  0.00    -0.360 N 
HETATM    3  O   UNL     1      -7.387   4.554 -31.536  1.00  0.00    -0.272 OA
HETATM    4  H   UNL     1      -6.242   2.392 -33.577  1.00  0.00     0.162 HD
ENDROOT
BRANCH   2   5
HETATM    5  C   UNL     1      -6.178   4.456 -34.079  1.00  0.00     0.123 C 
BRANCH   5   6
HETATM    6  C   UNL     1      -4.673   4.598 -34.287  1.00  0.00     0.029 C 
BRANCH   6   7
HETATM    7  C   UNL     1      -4.135   5.817 -33.549  1.00  0.00     0.104 C 
BRANCH   7   8
HETATM    8  C   UNL     1      -4.098   5.571 -32.059  1.00  0.00     0.217 C 
HETATM    9  N   UNL     1      -4.879   6.425 -31.313  1.00  0.00    -0.361 N 
HETATM   10  H   UNL     1      -5.295   7.223 -31.784  1.00  0.00     0.162 HD
HETATM   11  O   UNL     1      -3.473   4.640 -31.558  1.00  0.00    -0.274 OA
BRANCH   9  12
HETATM   12  C   UNL     1      -4.830   6.441 -29.863  1.00  0.00     0.124 C 
BRANCH  12  13
HETATM   13  C   UNL     1      -3.890   7.507 -29.294  1.00  0.00     0.047 C 
BRANCH  13  14
HETATM   14  C   UNL     1      -3.323   7.117 -27.928  1.00  0.00     0.236 C 
BRANCH  14  15
HETATM   15  N   UNL     1      -1.802   6.923 -27.971  1.00  0.00    -0.071 N 
HETATM   16  H   UNL     1      -1.641   5.912 -28.069  1.00  0.00     0.279 HD
HETATM   17  C   UNL     1      -1.182   7.612 -29.165  1.00  0.00     0.235 C 
HETATM   18  C   UNL     1       0.317   7.365 -29.289  1.00  0.00     0.028 C 
HETATM   19  C   UNL     1       1.141   8.171 -28.292  1.00  0.00     0.002 C 
HETATM   20  C   UNL     1       1.326   7.506 -26.935  1.00  0.00     0.002 C 
HETATM   21  C   UNL     1       0.143   6.704 -26.403  1.00  0.00     0.028 C 
HETATM   22  C   UNL     1      -1.218   7.345 -26.630  1.00  0.00     0.235 C 
ENDBRANCH  14  15
ENDBRANCH  13  14
ENDBRANCH  12  13
ENDBRANCH   9  12
ENDBRANCH   7   8
ENDBRANCH   6   7
ENDBRANCH   5   6
ENDBRANCH   2   5
BRANCH   1  23
HETATM   23  C   UNL     1      -7.412   2.127 -31.326  1.00  0.00     0.235 C 
BRANCH  23  24
HETATM   24  N   UNL     1      -6.372   1.148 -31.578  1.00  0.00    -0.299 N 
HETATM   25  C   UNL     1      -5.167   1.231 -30.906  1.00  0.00     0.214 A 
HETATM   26  N   UNL     1      -4.189   0.390 -31.005  1.00  0.00    -0.235 NA
HETATM   27  C   UNL     1      -4.418  -0.632 -31.867  1.00  0.00     0.115 A 
HETATM   28  C   UNL     1      -5.543  -0.817 -32.646  1.00  0.00     0.075 A 
HETATM   29  S   UNL     1      -3.280  -1.883 -32.086  1.00  0.00    -0.073 SA
HETATM   30  C   UNL     1      -6.617   0.154 -32.522  1.00  0.00     0.262 A 
HETATM   31  C   UNL     1      -5.452  -1.988 -33.464  1.00  0.00    -0.026 A 
HETATM   32  O   UNL     1      -7.656   0.089 -33.178  1.00  0.00    -0.267 OA
HETATM   33  C   UNL     1      -4.274  -2.671 -33.220  1.00  0.00    -0.008 A 
HETATM   34  C   UNL     1      -6.473  -2.497 -34.438  1.00  0.00     0.041 C 
HETATM   35  C   UNL     1      -3.858  -3.948 -33.882  1.00  0.00     0.047 C 
HETATM   36  C   UNL     1      -5.058  -4.604 -34.583  1.00  0.00     0.005 C 
HETATM   37  C   UNL     1      -5.890  -3.577 -35.363  1.00  0.00     0.005 C 
ENDBRANCH  23  24
ENDBRANCH   1  23
TORSDOF 10
ENDMDL
