MODEL 1
REMARK VINA RESULT:      -8.1      0.000      0.000
REMARK  5 active torsions:
REMARK  status: ('A' for Active; 'I' for Inactive)
REMARK    1  A    between atoms: C_7  and  O_8 
REMARK    2  A    between atoms: O_8  and  C_9 
REMARK    3  A    between atoms: C_12  and  N_13 
REMARK    4  A    between atoms: N_13  and  C_16 
REMARK    5  A    between atoms: C_16  and  C_17 
ROOT
HETATM    1  C   UNL     1     -14.454   2.640 -32.306  1.00  0.00     0.028 A 
HETATM    2  C   UNL     1     -15.582   2.034 -32.851  1.00  0.00     0.062 A 
HETATM    3  C   UNL     1     -16.891   2.305 -32.349  1.00  0.00     0.101 C 
HETATM    4  N   UNL     1     -17.963   2.511 -31.959  1.00  0.00    -0.191 NA
HETATM    5  C   UNL     1     -15.401   1.149 -33.909  1.00  0.00     0.142 A 
HETATM    6  N   UNL     1     -14.195   0.834 -34.453  1.00  0.00    -0.236 NA
HETATM    7  C   UNL     1     -13.123   1.445 -33.897  1.00  0.00     0.164 A 
HETATM    8  C   UNL     1     -13.203   2.340 -32.838  1.00  0.00     0.059 A 
ENDROOT
BRANCH   7   9
HETATM    9  O   UNL     1     -11.854   1.207 -34.368  1.00  0.00    -0.329 OA
BRANCH   9  10
HETATM   10  C   UNL     1     -10.718   1.570 -33.589  1.00  0.00     0.130 C 
HETATM   11  C   UNL     1      -9.783   2.573 -34.279  1.00  0.00     0.034 C 
HETATM   12  C   UNL     1      -8.655   3.011 -33.345  1.00  0.00     0.035 C 
HETATM   13  C   UNL     1      -7.898   1.838 -32.715  1.00  0.00     0.186 C 
HETATM   14  C   UNL     1      -8.854   0.841 -32.046  1.00  0.00     0.035 C 
HETATM   15  C   UNL     1      -9.982   0.377 -32.968  1.00  0.00     0.034 C 
BRANCH  13  16
HETATM   16  N   UNL     1      -7.082   1.109 -33.742  1.00  0.00    -0.067 N 
HETATM   17  H   UNL     1      -7.559   0.228 -33.978  1.00  0.00     0.278 HD
HETATM   18  H   UNL     1      -7.041   1.629 -34.632  1.00  0.00     0.278 HD
BRANCH  16  19
HETATM   19  C   UNL     1      -5.685   0.755 -33.335  1.00  0.00     0.278 C 
BRANCH  19  20
HETATM   20  C   UNL     1      -5.355  -0.664 -33.661  1.00  0.00     0.009 A 
HETATM   21  S   UNL     1      -3.848  -1.330 -33.189  1.00  0.00    -0.103 SA
HETATM   22  C   UNL     1      -4.232  -2.856 -33.862  1.00  0.00     0.072 A 
HETATM   23  C   UNL     1      -5.483  -2.866 -34.440  1.00  0.00     0.052 A 
HETATM   24  C   UNL     1      -6.047  -4.022 -35.074  1.00  0.00     0.100 C 
HETATM   25  C   UNL     1      -6.131  -1.597 -34.326  1.00  0.00     0.039 A 
HETATM   26  N   UNL     1      -6.516  -4.942 -35.599  1.00  0.00    -0.191 NA
ENDBRANCH  19  20
ENDBRANCH  16  19
ENDBRANCH  13  16
ENDBRANCH   9  10
ENDBRANCH   7   9
TORSDOF 5
ENDMDL
MODEL 2
REMARK VINA RESULT:      -8.0      6.179     10.251
REMARK  5 active torsions:
REMARK  status: ('A' for Active; 'I' for Inactive)
REMARK    1  A    between atoms: C_7  and  O_8 
REMARK    2  A    between atoms: O_8  and  C_9 
REMARK    3  A    between atoms: C_12  and  N_13 
REMARK    4  A    between atoms: N_13  and  C_16 
REMARK    5  A    between atoms: C_16  and  C_17 
ROOT
HETATM    1  C   UNL     1      -0.671   7.294 -29.975  1.00  0.00     0.028 A 
HETATM    2  C   UNL     1       0.285   6.736 -29.131  1.00  0.00     0.062 A 
HETATM    3  C   UNL     1       0.926   7.509 -28.116  1.00  0.00     0.101 C 
HETATM    4  N   UNL     1       1.458   8.117 -27.284  1.00  0.00    -0.191 NA
HETATM    5  C   UNL     1       0.602   5.393 -29.301  1.00  0.00     0.142 A 
HETATM    6  N   UNL     1       0.041   4.579 -30.236  1.00  0.00    -0.236 NA
HETATM    7  C   UNL     1      -0.884   5.158 -31.037  1.00  0.00     0.164 A 
HETATM    8  C   UNL     1      -1.265   6.491 -30.945  1.00  0.00     0.059 A 
ENDROOT
BRANCH   7   9
HETATM    9  O   UNL     1      -1.521   4.433 -32.015  1.00  0.00    -0.329 OA
BRANCH   9  10
HETATM   10  C   UNL     1      -2.919   4.178 -31.926  1.00  0.00     0.130 C 
HETATM   11  C   UNL     1      -3.268   2.813 -31.317  1.00  0.00     0.034 C 
HETATM   12  C   UNL     1      -4.778   2.656 -31.139  1.00  0.00     0.035 C 
HETATM   13  C   UNL     1      -5.574   2.952 -32.415  1.00  0.00     0.186 C 
HETATM   14  C   UNL     1      -5.197   4.313 -33.014  1.00  0.00     0.035 C 
HETATM   15  C   UNL     1      -3.691   4.487 -33.215  1.00  0.00     0.034 C 
BRANCH  13  16
HETATM   16  N   UNL     1      -5.347   1.889 -33.450  1.00  0.00    -0.067 N 
HETATM   17  H   UNL     1      -5.246   2.341 -34.370  1.00  0.00     0.278 HD
HETATM   18  H   UNL     1      -4.452   1.399 -33.300  1.00  0.00     0.278 HD
BRANCH  16  19
HETATM   19  C   UNL     1      -6.432   0.865 -33.582  1.00  0.00     0.278 C 
BRANCH  19  20
HETATM   20  C   UNL     1      -5.878  -0.500 -33.832  1.00  0.00     0.009 A 
HETATM   21  S   UNL     1      -4.276  -0.881 -33.357  1.00  0.00    -0.103 SA
HETATM   22  C   UNL     1      -4.414  -2.488 -33.930  1.00  0.00     0.072 A 
HETATM   23  C   UNL     1      -5.655  -2.737 -34.476  1.00  0.00     0.052 A 
HETATM   24  C   UNL     1      -6.030  -4.006 -35.027  1.00  0.00     0.100 C 
HETATM   25  C   UNL     1      -6.500  -1.585 -34.422  1.00  0.00     0.039 A 
HETATM   26  N   UNL     1      -6.350  -5.021 -35.486  1.00  0.00    -0.191 NA
ENDBRANCH  19  20
ENDBRANCH  16  19
ENDBRANCH  13  16
ENDBRANCH   9  10
ENDBRANCH   7   9
TORSDOF 5
ENDMDL
MODEL 3
REMARK VINA RESULT:      -7.6      6.510      9.273
REMARK  5 active torsions:
REMARK  status: ('A' for Active; 'I' for Inactive)
REMARK    1  A    between atoms: C_7  and  O_8 
REMARK    2  A    between atoms: O_8  and  C_9 
REMARK    3  A    between atoms: C_12  and  N_13 
REMARK    4  A    between atoms: N_13  and  C_16 
REMARK    5  A    between atoms: C_16  and  C_17 
ROOT
HETATM    1  C   UNL     1      -6.477  -1.606 -34.537  1.00  0.00     0.028 A 
HETATM    2  C   UNL     1      -5.682  -2.749 -34.529  1.00  0.00     0.062 A 
HETATM    3  C   UNL     1      -6.136  -3.976 -35.102  1.00  0.00     0.101 C 
HETATM    4  N   UNL     1      -6.481  -4.982 -35.563  1.00  0.00    -0.191 NA
HETATM    5  C   UNL     1      -4.423  -2.666 -33.945  1.00  0.00     0.142 A 
HETATM    6  N   UNL     1      -3.908  -1.541 -33.380  1.00  0.00    -0.236 NA
HETATM    7  C   UNL     1      -4.709  -0.450 -33.408  1.00  0.00     0.164 A 
HETATM    8  C   UNL     1      -5.981  -0.437 -33.966  1.00  0.00     0.059 A 
ENDROOT
BRANCH   7   9
HETATM    9  O   UNL     1      -4.293   0.744 -32.871  1.00  0.00    -0.329 OA
BRANCH   9  10
HETATM   10  C   UNL     1      -5.214   1.583 -32.182  1.00  0.00     0.130 C 
HETATM   11  C   UNL     1      -5.147   3.059 -32.599  1.00  0.00     0.034 C 
HETATM   12  C   UNL     1      -6.241   3.877 -31.913  1.00  0.00     0.035 C 
HETATM   13  C   UNL     1      -6.271   3.696 -30.392  1.00  0.00     0.186 C 
HETATM   14  C   UNL     1      -6.320   2.215 -29.999  1.00  0.00     0.035 C 
HETATM   15  C   UNL     1      -5.225   1.378 -30.662  1.00  0.00     0.034 C 
BRANCH  13  16
HETATM   16  N   UNL     1      -5.068   4.326 -29.751  1.00  0.00    -0.067 N 
HETATM   17  H   UNL     1      -4.812   3.776 -28.919  1.00  0.00     0.278 HD
HETATM   18  H   UNL     1      -4.241   4.273 -30.364  1.00  0.00     0.278 HD
BRANCH  16  19
HETATM   19  C   UNL     1      -5.236   5.745 -29.302  1.00  0.00     0.278 C 
BRANCH  19  20
HETATM   20  C   UNL     1      -4.461   6.692 -30.160  1.00  0.00     0.009 A 
HETATM   21  S   UNL     1      -4.516   8.377 -29.850  1.00  0.00    -0.103 SA
HETATM   22  C   UNL     1      -3.447   8.719 -31.143  1.00  0.00     0.072 A 
HETATM   23  C   UNL     1      -3.053   7.576 -31.804  1.00  0.00     0.052 A 
HETATM   24  C   UNL     1      -2.158   7.586 -32.924  1.00  0.00     0.100 C 
HETATM   25  C   UNL     1      -3.643   6.404 -31.237  1.00  0.00     0.039 A 
HETATM   26  N   UNL     1      -1.444   7.572 -33.837  1.00  0.00    -0.191 NA
ENDBRANCH  19  20
ENDBRANCH  16  19
ENDBRANCH  13  16
ENDBRANCH   9  10
ENDBRANCH   7   9
TORSDOF 5
ENDMDL
MODEL 4
REMARK VINA RESULT:      -7.6      3.475      8.308
REMARK  5 active torsions:
REMARK  status: ('A' for Active; 'I' for Inactive)
REMARK    1  A    between atoms: C_7  and  O_8 
REMARK    2  A    between atoms: O_8  and  C_9 
REMARK    3  A    between atoms: C_12  and  N_13 
REMARK    4  A    between atoms: N_13  and  C_16 
REMARK    5  A    between atoms: C_16  and  C_17 
ROOT
HETATM    1  C   UNL     1      -6.251  -1.605 -34.587  1.00  0.00     0.028 A 
HETATM    2  C   UNL     1      -5.576  -2.818 -34.487  1.00  0.00     0.062 A 
HETATM    3  C   UNL     1      -6.109  -4.017 -35.051  1.00  0.00     0.101 C 
HETATM    4  N   UNL     1      -6.521  -5.002 -35.503  1.00  0.00    -0.191 NA
HETATM    5  C   UNL     1      -4.356  -2.835 -33.819  1.00  0.00     0.142 A 
HETATM    6  N   UNL     1      -3.771  -1.744 -33.255  1.00  0.00    -0.236 NA
HETATM    7  C   UNL     1      -4.456  -0.584 -33.374  1.00  0.00     0.164 A 
HETATM    8  C   UNL     1      -5.681  -0.468 -34.020  1.00  0.00     0.059 A 
ENDROOT
BRANCH   7   9
HETATM    9  O   UNL     1      -3.961   0.585 -32.847  1.00  0.00    -0.329 OA
BRANCH   9  10
HETATM   10  C   UNL     1      -4.644   1.242 -31.785  1.00  0.00     0.130 C 
HETATM   11  C   UNL     1      -5.401   0.291 -30.846  1.00  0.00     0.034 C 
HETATM   12  C   UNL     1      -6.007   1.047 -29.664  1.00  0.00     0.035 C 
HETATM   13  C   UNL     1      -6.852   2.255 -30.084  1.00  0.00     0.186 C 
HETATM   14  C   UNL     1      -6.082   3.181 -31.034  1.00  0.00     0.035 C 
HETATM   15  C   UNL     1      -5.479   2.448 -32.233  1.00  0.00     0.034 C 
BRANCH  13  16
HETATM   16  N   UNL     1      -8.119   1.817 -30.759  1.00  0.00    -0.067 N 
HETATM   17  H   UNL     1      -7.901   1.547 -31.728  1.00  0.00     0.278 HD
HETATM   18  H   UNL     1      -8.501   0.961 -30.329  1.00  0.00     0.278 HD
BRANCH  16  19
HETATM   19  C   UNL     1      -9.210   2.842 -30.824  1.00  0.00     0.278 C 
BRANCH  19  20
HETATM   20  C   UNL     1      -9.726   3.013 -32.216  1.00  0.00     0.009 A 
HETATM   21  S   UNL     1      -9.014   4.169 -33.263  1.00  0.00    -0.103 SA
HETATM   22  C   UNL     1     -10.072   3.760 -34.546  1.00  0.00     0.072 A 
HETATM   23  C   UNL     1     -10.955   2.764 -34.190  1.00  0.00     0.052 A 
HETATM   24  C   UNL     1     -11.945   2.237 -35.082  1.00  0.00     0.100 C 
HETATM   25  C   UNL     1     -10.756   2.335 -32.841  1.00  0.00     0.039 A 
HETATM   26  N   UNL     1     -12.759   1.804 -35.785  1.00  0.00    -0.191 NA
ENDBRANCH  19  20
ENDBRANCH  16  19
ENDBRANCH  13  16
ENDBRANCH   9  10
ENDBRANCH   7   9
TORSDOF 5
ENDMDL
MODEL 5
REMARK VINA RESULT:      -7.5      6.069      8.660
REMARK  5 active torsions:
REMARK  status: ('A' for Active; 'I' for Inactive)
REMARK    1  A    between atoms: C_7  and  O_8 
REMARK    2  A    between atoms: O_8  and  C_9 
REMARK    3  A    between atoms: C_12  and  N_13 
REMARK    4  A    between atoms: N_13  and  C_16 
REMARK    5  A    between atoms: C_16  and  C_17 
ROOT
HETATM    1  C   UNL     1      -6.731  -1.745 -34.185  1.00  0.00     0.028 A 
HETATM    2  C   UNL     1      -5.821  -2.766 -34.443  1.00  0.00     0.062 A 
HETATM    3  C   UNL     1      -6.221  -3.977 -35.084  1.00  0.00     0.101 C 
HETATM    4  N   UNL     1      -6.523  -4.968 -35.605  1.00  0.00    -0.191 NA
HETATM    5  C   UNL     1      -4.498  -2.575 -34.059  1.00  0.00     0.142 A 
HETATM    6  N   UNL     1      -4.026  -1.455 -33.447  1.00  0.00    -0.236 NA
HETATM    7  C   UNL     1      -4.940  -0.485 -33.215  1.00  0.00     0.164 A 
HETATM    8  C   UNL     1      -6.282  -0.584 -33.559  1.00  0.00     0.059 A 
ENDROOT
BRANCH   7   9
HETATM    9  O   UNL     1      -4.578   0.693 -32.607  1.00  0.00    -0.329 OA
BRANCH   9  10
HETATM   10  C   UNL     1      -5.545   1.715 -32.385  1.00  0.00     0.130 C 
HETATM   11  C   UNL     1      -5.393   2.930 -33.311  1.00  0.00     0.034 C 
HETATM   12  C   UNL     1      -6.530   3.930 -33.104  1.00  0.00     0.035 C 
HETATM   13  C   UNL     1      -6.729   4.328 -31.637  1.00  0.00     0.186 C 
HETATM   14  C   UNL     1      -6.862   3.099 -30.730  1.00  0.00     0.035 C 
HETATM   15  C   UNL     1      -5.726   2.092 -30.909  1.00  0.00     0.034 C 
BRANCH  13  16
HETATM   16  N   UNL     1      -5.586   5.168 -31.148  1.00  0.00    -0.067 N 
HETATM   17  H   UNL     1      -5.901   5.711 -30.332  1.00  0.00     0.278 HD
HETATM   18  H   UNL     1      -4.813   4.586 -30.791  1.00  0.00     0.278 HD
BRANCH  16  19
HETATM   19  C   UNL     1      -5.026   6.146 -32.135  1.00  0.00     0.278 C 
BRANCH  19  20
HETATM   20  C   UNL     1      -3.576   5.898 -32.398  1.00  0.00     0.009 A 
HETATM   21  S   UNL     1      -2.963   5.983 -33.997  1.00  0.00    -0.103 SA
HETATM   22  C   UNL     1      -1.371   5.625 -33.479  1.00  0.00     0.072 A 
HETATM   23  C   UNL     1      -1.300   5.441 -32.116  1.00  0.00     0.052 A 
HETATM   24  C   UNL     1      -0.081   5.132 -31.427  1.00  0.00     0.100 C 
HETATM   25  C   UNL     1      -2.577   5.596 -31.491  1.00  0.00     0.039 A 
HETATM   26  N   UNL     1       0.892   4.872 -30.853  1.00  0.00    -0.191 NA
ENDBRANCH  19  20
ENDBRANCH  16  19
ENDBRANCH  13  16
ENDBRANCH   9  10
ENDBRANCH   7   9
TORSDOF 5
ENDMDL
MODEL 6
REMARK VINA RESULT:      -7.1      2.789      8.864
REMARK  5 active torsions:
REMARK  status: ('A' for Active; 'I' for Inactive)
REMARK    1  A    between atoms: C_7  and  O_8 
REMARK    2  A    between atoms: O_8  and  C_9 
REMARK    3  A    between atoms: C_12  and  N_13 
REMARK    4  A    between atoms: N_13  and  C_16 
REMARK    5  A    between atoms: C_16  and  C_17 
ROOT
HETATM    1  C   UNL     1      -4.616  -2.299 -33.752  1.00  0.00     0.028 A 
HETATM    2  C   UNL     1      -5.655  -2.801 -34.529  1.00  0.00     0.062 A 
HETATM    3  C   UNL     1      -5.715  -4.181 -34.891  1.00  0.00     0.101 C 
HETATM    4  N   UNL     1      -5.786  -5.298 -35.197  1.00  0.00    -0.191 NA
HETATM    5  C   UNL     1      -6.645  -1.919 -34.947  1.00  0.00     0.142 A 
HETATM    6  N   UNL     1      -6.672  -0.592 -34.647  1.00  0.00    -0.236 NA
HETATM    7  C   UNL     1      -5.646  -0.141 -33.889  1.00  0.00     0.164 A 
HETATM    8  C   UNL     1      -4.611  -0.945 -33.427  1.00  0.00     0.059 A 
ENDROOT
BRANCH   7   9
HETATM    9  O   UNL     1      -5.570   1.180 -33.520  1.00  0.00    -0.329 OA
BRANCH   9  10
HETATM   10  C   UNL     1      -6.698   1.834 -32.948  1.00  0.00     0.130 C 
HETATM   11  C   UNL     1      -7.293   1.106 -31.734  1.00  0.00     0.034 C 
HETATM   12  C   UNL     1      -8.419   1.920 -31.098  1.00  0.00     0.035 C 
HETATM   13  C   UNL     1      -9.490   2.363 -32.101  1.00  0.00     0.186 C 
HETATM   14  C   UNL     1      -8.872   3.073 -33.312  1.00  0.00     0.035 C 
HETATM   15  C   UNL     1      -7.752   2.269 -33.974  1.00  0.00     0.034 C 
BRANCH  13  16
HETATM   16  N   UNL     1     -10.292   1.191 -32.585  1.00  0.00    -0.067 N 
HETATM   17  H   UNL     1      -9.651   0.409 -32.776  1.00  0.00     0.278 HD
HETATM   18  H   UNL     1     -10.926   0.837 -31.853  1.00  0.00     0.278 HD
BRANCH  16  19
HETATM   19  C   UNL     1     -11.090   1.418 -33.833  1.00  0.00     0.278 C 
BRANCH  19  20
HETATM   20  C   UNL     1     -12.545   1.581 -33.538  1.00  0.00     0.009 A 
HETATM   21  S   UNL     1     -13.654   0.343 -33.956  1.00  0.00    -0.103 SA
HETATM   22  C   UNL     1     -14.980   1.222 -33.324  1.00  0.00     0.072 A 
HETATM   23  C   UNL     1     -14.594   2.438 -32.804  1.00  0.00     0.052 A 
HETATM   24  C   UNL     1     -15.512   3.367 -32.212  1.00  0.00     0.100 C 
HETATM   25  C   UNL     1     -13.185   2.647 -32.931  1.00  0.00     0.039 A 
HETATM   26  N   UNL     1     -16.239   4.135 -31.739  1.00  0.00    -0.191 NA
ENDBRANCH  19  20
ENDBRANCH  16  19
ENDBRANCH  13  16
ENDBRANCH   9  10
ENDBRANCH   7   9
TORSDOF 5
ENDMDL
MODEL 7
REMARK VINA RESULT:      -7.0     14.998     16.476
REMARK  5 active torsions:
REMARK  status: ('A' for Active; 'I' for Inactive)
REMARK    1  A    between atoms: C_7  and  O_8 
REMARK    2  A    between atoms: O_8  and  C_9 
REMARK    3  A    between atoms: C_12  and  N_13 
REMARK    4  A    between atoms: N_13  and  C_16 
REMARK    5  A    between atoms: C_16  and  C_17 
ROOT
HETATM    1  C   UNL     1     -10.269 -15.613 -40.428  1.00  0.00     0.028 A 
HETATM    2  C   UNL     1     -11.268 -14.861 -41.038  1.00  0.00     0.062 A 
HETATM    3  C   UNL     1     -12.155 -15.437 -41.998  1.00  0.00     0.101 C 
HETATM    4  N   UNL     1     -12.886 -15.884 -42.778  1.00  0.00    -0.191 NA
HETATM    5  C   UNL     1     -11.385 -13.520 -40.687  1.00  0.00     0.142 A 
HETATM    6  N   UNL     1     -10.590 -12.888 -39.781  1.00  0.00    -0.236 NA
HETATM    7  C   UNL     1      -9.631 -13.653 -39.208  1.00  0.00     0.164 A 
HETATM    8  C   UNL     1      -9.436 -14.997 -39.497  1.00  0.00     0.059 A 
ENDROOT
BRANCH   7   9
HETATM    9  O   UNL     1      -8.772 -13.124 -38.276  1.00  0.00    -0.329 OA
BRANCH   9  10
HETATM   10  C   UNL     1      -7.522 -12.574 -38.680  1.00  0.00     0.130 C 
HETATM   11  C   UNL     1      -7.313 -12.547 -40.201  1.00  0.00     0.034 C 
HETATM   12  C   UNL     1      -6.011 -11.837 -40.568  1.00  0.00     0.035 C 
HETATM   13  C   UNL     1      -4.790 -12.379 -39.816  1.00  0.00     0.186 C 
HETATM   14  C   UNL     1      -5.028 -12.412 -38.301  1.00  0.00     0.035 C 
HETATM   15  C   UNL     1      -6.318 -13.132 -37.909  1.00  0.00     0.034 C 
BRANCH  13  16
HETATM   16  N   UNL     1      -4.442 -13.763 -40.281  1.00  0.00    -0.067 N 
HETATM   17  H   UNL     1      -4.428 -14.391 -39.465  1.00  0.00     0.278 HD
HETATM   18  H   UNL     1      -5.173 -14.150 -40.896  1.00  0.00     0.278 HD
BRANCH  16  19
HETATM   19  C   UNL     1      -3.119 -13.907 -40.968  1.00  0.00     0.278 C 
BRANCH  19  20
HETATM   20  C   UNL     1      -2.032 -14.265 -40.007  1.00  0.00     0.009 A 
HETATM   21  S   UNL     1      -2.403 -15.100 -38.557  1.00  0.00    -0.103 SA
HETATM   22  C   UNL     1      -0.760 -15.137 -38.077  1.00  0.00     0.072 A 
HETATM   23  C   UNL     1       0.062 -14.524 -38.998  1.00  0.00     0.052 A 
HETATM   24  C   UNL     1       1.482 -14.420 -38.836  1.00  0.00     0.100 C 
HETATM   25  C   UNL     1      -0.676 -14.017 -40.113  1.00  0.00     0.039 A 
HETATM   26  N   UNL     1       2.631 -14.316 -38.720  1.00  0.00    -0.191 NA
ENDBRANCH  19  20
ENDBRANCH  16  19
ENDBRANCH  13  16
ENDBRANCH   9  10
ENDBRANCH   7   9
TORSDOF 5
ENDMDL
MODEL 8
REMARK VINA RESULT:      -7.0      3.311      8.475
REMARK  5 active torsions:
REMARK  status: ('A' for Active; 'I' for Inactive)
REMARK    1  A    between atoms: C_7  and  O_8 
REMARK    2  A    between atoms: O_8  and  C_9 
REMARK    3  A    between atoms: C_12  and  N_13 
REMARK    4  A    between atoms: N_13  and  C_16 
REMARK    5  A    between atoms: C_16  and  C_17 
ROOT
HETATM    1  C   UNL     1      -6.814  -2.142 -34.896  1.00  0.00     0.028 A 
HETATM    2  C   UNL     1      -5.653  -2.763 -34.447  1.00  0.00     0.062 A 
HETATM    3  C   UNL     1      -5.432  -4.161 -34.637  1.00  0.00     0.101 C 
HETATM    4  N   UNL     1      -5.231  -5.293 -34.781  1.00  0.00    -0.191 NA
HETATM    5  C   UNL     1      -4.701  -1.980 -33.802  1.00  0.00     0.142 A 
HETATM    6  N   UNL     1      -4.824  -0.643 -33.581  1.00  0.00    -0.236 NA
HETATM    7  C   UNL     1      -5.966  -0.076 -34.034  1.00  0.00     0.164 A 
HETATM    8  C   UNL     1      -6.974  -0.775 -34.686  1.00  0.00     0.059 A 
ENDROOT
BRANCH   7   9
HETATM    9  O   UNL     1      -6.198   1.268 -33.871  1.00  0.00    -0.329 OA
BRANCH   9  10
HETATM   10  C   UNL     1      -6.618   1.778 -32.609  1.00  0.00     0.130 C 
HETATM   11  C   UNL     1      -8.106   1.552 -32.308  1.00  0.00     0.034 C 
HETATM   12  C   UNL     1      -8.460   2.012 -30.894  1.00  0.00     0.035 C 
HETATM   13  C   UNL     1      -8.010   3.445 -30.591  1.00  0.00     0.186 C 
HETATM   14  C   UNL     1      -6.525   3.652 -30.915  1.00  0.00     0.035 C 
HETATM   15  C   UNL     1      -6.150   3.213 -32.331  1.00  0.00     0.034 C 
BRANCH  13  16
HETATM   16  N   UNL     1      -8.818   4.440 -31.372  1.00  0.00    -0.067 N 
HETATM   17  H   UNL     1      -8.303   5.331 -31.403  1.00  0.00     0.278 HD
HETATM   18  H   UNL     1      -8.914   4.159 -32.359  1.00  0.00     0.278 HD
BRANCH  16  19
HETATM   19  C   UNL     1     -10.182   4.741 -30.830  1.00  0.00     0.278 C 
BRANCH  19  20
HETATM   20  C   UNL     1     -11.257   4.127 -31.666  1.00  0.00     0.009 A 
HETATM   21  S   UNL     1     -12.874   4.087 -31.098  1.00  0.00    -0.103 SA
HETATM   22  C   UNL     1     -13.427   3.310 -32.519  1.00  0.00     0.072 A 
HETATM   23  C   UNL     1     -12.405   3.081 -33.415  1.00  0.00     0.052 A 
HETATM   24  C   UNL     1     -12.601   2.445 -34.685  1.00  0.00     0.100 C 
HETATM   25  C   UNL     1     -11.149   3.551 -32.919  1.00  0.00     0.039 A 
HETATM   26  N   UNL     1     -12.737   1.925 -35.711  1.00  0.00    -0.191 NA
ENDBRANCH  19  20
ENDBRANCH  16  19
ENDBRANCH  13  16
ENDBRANCH   9  10
ENDBRANCH   7   9
TORSDOF 5
ENDMDL
MODEL 9
REMARK VINA RESULT:      -7.0     15.340     16.660
REMARK  5 active torsions:
REMARK  status: ('A' for Active; 'I' for Inactive)
REMARK    1  A    between atoms: C_7  and  O_8 
REMARK    2  A    between atoms: O_8  and  C_9 
REMARK    3  A    between atoms: C_12  and  N_13 
REMARK    4  A    between atoms: N_13  and  C_16 
REMARK    5  A    between atoms: C_16  and  C_17 
ROOT
HETATM    1  C   UNL     1     -11.344 -13.167 -40.537  1.00  0.00     0.028 A 
HETATM    2  C   UNL     1     -11.325 -14.419 -41.146  1.00  0.00     0.062 A 
HETATM    3  C   UNL     1     -12.514 -15.008 -41.675  1.00  0.00     0.101 C 
HETATM    4  N   UNL     1     -13.465 -15.505 -42.114  1.00  0.00    -0.191 NA
HETATM    5  C   UNL     1     -10.109 -15.087 -41.230  1.00  0.00     0.142 A 
HETATM    6  N   UNL     1      -8.928 -14.603 -40.758  1.00  0.00    -0.236 NA
HETATM    7  C   UNL     1      -8.986 -13.384 -40.173  1.00  0.00     0.164 A 
HETATM    8  C   UNL     1     -10.153 -12.642 -40.041  1.00  0.00     0.059 A 
ENDROOT
BRANCH   7   9
HETATM    9  O   UNL     1      -7.856 -12.792 -39.664  1.00  0.00    -0.329 OA
BRANCH   9  10
HETATM   10  C   UNL     1      -6.582 -13.403 -39.840  1.00  0.00     0.130 C 
HETATM   11  C   UNL     1      -5.917 -13.850 -38.531  1.00  0.00     0.034 C 
HETATM   12  C   UNL     1      -4.616 -14.605 -38.800  1.00  0.00     0.035 C 
HETATM   13  C   UNL     1      -3.653 -13.845 -39.720  1.00  0.00     0.186 C 
HETATM   14  C   UNL     1      -4.343 -13.394 -41.013  1.00  0.00     0.035 C 
HETATM   15  C   UNL     1      -5.640 -12.624 -40.767  1.00  0.00     0.034 C 
BRANCH  13  16
HETATM   16  N   UNL     1      -3.087 -12.639 -39.028  1.00  0.00    -0.067 N 
HETATM   17  H   UNL     1      -2.337 -12.245 -39.613  1.00  0.00     0.278 HD
HETATM   18  H   UNL     1      -3.785 -11.883 -38.954  1.00  0.00     0.278 HD
BRANCH  16  19
HETATM   19  C   UNL     1      -2.503 -12.880 -37.670  1.00  0.00     0.278 C 
BRANCH  19  20
HETATM   20  C   UNL     1      -1.317 -13.786 -37.730  1.00  0.00     0.009 A 
HETATM   21  S   UNL     1      -1.066 -14.961 -36.507  1.00  0.00    -0.103 SA
HETATM   22  C   UNL     1       0.361 -15.537 -37.256  1.00  0.00     0.072 A 
HETATM   23  C   UNL     1       0.650 -14.850 -38.416  1.00  0.00     0.052 A 
HETATM   24  C   UNL     1       1.791 -15.137 -39.235  1.00  0.00     0.100 C 
HETATM   25  C   UNL     1      -0.320 -13.835 -38.687  1.00  0.00     0.039 A 
HETATM   26  N   UNL     1       2.712 -15.346 -39.906  1.00  0.00    -0.191 NA
ENDBRANCH  19  20
ENDBRANCH  16  19
ENDBRANCH  13  16
ENDBRANCH   9  10
ENDBRANCH   7   9
TORSDOF 5
ENDMDL
MODEL 10
REMARK VINA RESULT:      -6.9      3.888      8.184
REMARK  5 active torsions:
REMARK  status: ('A' for Active; 'I' for Inactive)
REMARK    1  A    between atoms: C_7  and  O_8 
REMARK    2  A    between atoms: O_8  and  C_9 
REMARK    3  A    between atoms: C_12  and  N_13 
REMARK    4  A    between atoms: N_13  and  C_16 
REMARK    5  A    between atoms: C_16  and  C_17 
ROOT
HETATM    1  C   UNL     1      -6.125  -2.962 -34.669  1.00  0.00     0.028 A 
HETATM    2  C   UNL     1      -4.861  -2.791 -34.112  1.00  0.00     0.062 A 
HETATM    3  C   UNL     1      -3.990  -3.899 -33.882  1.00  0.00     0.101 C 
HETATM    4  N   UNL     1      -3.266  -4.783 -33.688  1.00  0.00    -0.191 NA
HETATM    5  C   UNL     1      -4.461  -1.500 -33.783  1.00  0.00     0.142 A 
HETATM    6  N   UNL     1      -5.221  -0.386 -33.970  1.00  0.00    -0.236 NA
HETATM    7  C   UNL     1      -6.442  -0.594 -34.514  1.00  0.00     0.164 A 
HETATM    8  C   UNL     1      -6.929  -1.844 -34.873  1.00  0.00     0.059 A 
ENDROOT
BRANCH   7   9
HETATM    9  O   UNL     1      -7.294   0.457 -34.753  1.00  0.00    -0.329 OA
BRANCH   9  10
HETATM   10  C   UNL     1      -8.201   0.891 -33.745  1.00  0.00     0.130 C 
HETATM   11  C   UNL     1      -9.362   1.745 -34.275  1.00  0.00     0.034 C 
HETATM   12  C   UNL     1     -10.359   2.074 -33.164  1.00  0.00     0.035 C 
HETATM   13  C   UNL     1      -9.703   2.680 -31.918  1.00  0.00     0.186 C 
HETATM   14  C   UNL     1      -8.536   1.819 -31.417  1.00  0.00     0.035 C 
HETATM   15  C   UNL     1      -7.517   1.490 -32.509  1.00  0.00     0.034 C 
BRANCH  13  16
HETATM   16  N   UNL     1      -9.196   4.064 -32.197  1.00  0.00    -0.067 N 
HETATM   17  H   UNL     1      -8.664   4.050 -33.078  1.00  0.00     0.278 HD
HETATM   18  H   UNL     1      -9.970   4.724 -32.369  1.00  0.00     0.278 HD
BRANCH  16  19
HETATM   19  C   UNL     1      -8.298   4.652 -31.152  1.00  0.00     0.278 C 
BRANCH  19  20
HETATM   20  C   UNL     1      -6.919   4.888 -31.676  1.00  0.00     0.009 A 
HETATM   21  S   UNL     1      -5.612   5.119 -30.591  1.00  0.00    -0.103 SA
HETATM   22  C   UNL     1      -4.488   5.289 -31.872  1.00  0.00     0.072 A 
HETATM   23  C   UNL     1      -5.090   5.175 -33.106  1.00  0.00     0.052 A 
HETATM   24  C   UNL     1      -4.372   5.278 -34.342  1.00  0.00     0.100 C 
HETATM   25  C   UNL     1      -6.497   4.946 -32.992  1.00  0.00     0.039 A 
HETATM   26  N   UNL     1      -3.812   5.367 -35.353  1.00  0.00    -0.191 NA
ENDBRANCH  19  20
ENDBRANCH  16  19
ENDBRANCH  13  16
ENDBRANCH   9  10
ENDBRANCH   7   9
TORSDOF 5
ENDMDL
