MODEL 1
REMARK VINA RESULT:      -8.8      0.000      0.000
REMARK  6 active torsions:
REMARK  status: ('A' for Active; 'I' for Inactive)
REMARK    1  A    between atoms: C_7  and  S_8 
REMARK    2  A    between atoms: S_8  and  C_9 
REMARK    3  A    between atoms: C_9  and  C_10 
REMARK    4  A    between atoms: C_18  and  C_19 
REMARK    5  A    between atoms: C_26  and  C_27 
REMARK    6  A    between atoms: C_27  and  O_28 
ROOT
HETATM    1  C   UNL     1      -7.215   4.817 -29.512  1.00  0.00     0.070 C 
HETATM    2  C   UNL     1      -6.276   4.033 -30.395  1.00  0.00     0.037 A 
HETATM    3  N   UNL     1      -5.896   2.780 -29.927  1.00  0.00    -0.192 N 
HETATM    4  C   UNL     1      -5.195   1.901 -30.669  1.00  0.00     0.726 A 
HETATM    5  N   UNL     1      -4.704   2.291 -31.886  1.00  0.00    -0.082 N 
HETATM    6  N   UNL     1      -4.083   1.274 -32.512  1.00  0.00    -0.128 NA
HETATM    7  C   UNL     1      -4.208   0.303 -31.601  1.00  0.00     0.226 A 
HETATM    8  N   UNL     1      -4.882   0.650 -30.455  1.00  0.00    -0.035 NA
HETATM    9  C   UNL     1      -4.883   3.635 -32.457  1.00  0.00     0.204 A 
HETATM   10  C   UNL     1      -5.832   4.461 -31.601  1.00  0.00     0.070 A 
HETATM   11  H   UNL     1      -6.301   2.464 -29.049  1.00  0.00     0.184 HD
ENDROOT
BRANCH   7  12
HETATM   12  S   UNL     1      -3.542  -1.281 -31.878  1.00  0.00    -0.083 SA
BRANCH  12  13
HETATM   13  C   UNL     1      -3.724  -1.379 -33.680  1.00  0.00     0.123 C 
BRANCH  13  14
HETATM   14  C   UNL     1      -4.674  -2.480 -34.088  1.00  0.00    -0.027 A 
HETATM   15  C   UNL     1      -6.004  -2.239 -34.468  1.00  0.00     0.041 A 
HETATM   16 CL   UNL     1      -6.680  -0.649 -34.480  1.00  0.00    -0.084 Cl
HETATM   17  C   UNL     1      -6.837  -3.297 -34.850  1.00  0.00     0.024 A 
HETATM   18  C   UNL     1      -6.354  -4.604 -34.862  1.00  0.00     0.002 A 
HETATM   19  C   UNL     1      -5.035  -4.859 -34.496  1.00  0.00     0.001 A 
HETATM   20  C   UNL     1      -4.201  -3.806 -34.116  1.00  0.00     0.009 A 
ENDBRANCH  13  14
ENDBRANCH  12  13
ENDBRANCH   7  12
BRANCH   9  21
HETATM   21  C   UNL     1      -3.523   4.311 -32.623  1.00  0.00    -0.006 A 
HETATM   22  C   UNL     1      -3.133   4.940 -33.819  1.00  0.00     0.042 A 
HETATM   23 CL   UNL     1      -4.160   5.015 -35.205  1.00  0.00    -0.084 Cl
HETATM   24  C   UNL     1      -1.878   5.553 -33.928  1.00  0.00     0.024 A 
HETATM   25  C   UNL     1      -0.995   5.553 -32.851  1.00  0.00     0.002 A 
HETATM   26  C   UNL     1      -1.363   4.944 -31.656  1.00  0.00     0.001 A 
HETATM   27  C   UNL     1      -2.613   4.332 -31.541  1.00  0.00     0.011 A 
ENDBRANCH   9  21
BRANCH  10  28
HETATM   28  C   UNL     1      -6.244   5.765 -32.151  1.00  0.00     0.293 C 
HETATM   29  O   UNL     1      -5.822   6.842 -31.767  1.00  0.00    -0.259 OA
BRANCH  28  30
HETATM   30  O   UNL     1      -7.185   5.558 -33.103  1.00  0.00    -0.323 OA
HETATM   31  C   UNL     1      -8.468   6.095 -32.782  1.00  0.00     0.213 C 
ENDBRANCH  28  30
ENDBRANCH  10  28
TORSDOF 6
ENDMDL
MODEL 2
REMARK VINA RESULT:      -8.4      3.483      8.198
REMARK  6 active torsions:
REMARK  status: ('A' for Active; 'I' for Inactive)
REMARK    1  A    between atoms: C_7  and  S_8 
REMARK    2  A    between atoms: S_8  and  C_9 
REMARK    3  A    between atoms: C_9  and  C_10 
REMARK    4  A    between atoms: C_18  and  C_19 
REMARK    5  A    between atoms: C_26  and  C_27 
REMARK    6  A    between atoms: C_27  and  O_28 
ROOT
HETATM    1  C   UNL     1      -2.980  -2.794 -31.911  1.00  0.00     0.070 C 
HETATM    2  C   UNL     1      -3.568  -1.431 -32.185  1.00  0.00     0.037 A 
HETATM    3  N   UNL     1      -3.093  -0.388 -31.396  1.00  0.00    -0.192 N 
HETATM    4  C   UNL     1      -3.401   0.903 -31.625  1.00  0.00     0.726 A 
HETATM    5  N   UNL     1      -4.329   1.212 -32.583  1.00  0.00    -0.082 N 
HETATM    6  N   UNL     1      -4.469   2.545 -32.717  1.00  0.00    -0.128 NA
HETATM    7  C   UNL     1      -3.615   2.983 -31.785  1.00  0.00     0.226 A 
HETATM    8  N   UNL     1      -2.943   2.005 -31.092  1.00  0.00    -0.035 NA
HETATM    9  C   UNL     1      -5.040   0.216 -33.398  1.00  0.00     0.204 A 
HETATM   10  C   UNL     1      -4.474  -1.177 -33.159  1.00  0.00     0.070 A 
HETATM   11  H   UNL     1      -2.365  -0.604 -30.721  1.00  0.00     0.184 HD
ENDROOT
BRANCH   7  12
HETATM   12  S   UNL     1      -3.401   4.685 -31.491  1.00  0.00    -0.083 SA
BRANCH  12  13
HETATM   13  C   UNL     1      -1.655   4.857 -31.949  1.00  0.00     0.123 C 
BRANCH  13  14
HETATM   14  C   UNL     1      -0.881   5.651 -30.923  1.00  0.00    -0.027 A 
HETATM   15  C   UNL     1      -0.956   7.050 -30.825  1.00  0.00     0.041 A 
HETATM   16 CL   UNL     1      -1.933   7.993 -31.894  1.00  0.00    -0.084 Cl
HETATM   17  C   UNL     1      -0.227   7.734 -29.845  1.00  0.00     0.024 A 
HETATM   18  C   UNL     1       0.580   7.033 -28.951  1.00  0.00     0.002 A 
HETATM   19  C   UNL     1       0.659   5.646 -29.031  1.00  0.00     0.001 A 
HETATM   20  C   UNL     1      -0.068   4.960 -30.005  1.00  0.00     0.009 A 
ENDBRANCH  13  14
ENDBRANCH  12  13
ENDBRANCH   7  12
BRANCH   9  21
HETATM   21  C   UNL     1      -6.539   0.284 -33.107  1.00  0.00    -0.006 A 
HETATM   22  C   UNL     1      -7.504   0.351 -34.127  1.00  0.00     0.042 A 
HETATM   23 CL   UNL     1      -7.084   0.349 -35.803  1.00  0.00    -0.084 Cl
HETATM   24  C   UNL     1      -8.869   0.407 -33.818  1.00  0.00     0.024 A 
HETATM   25  C   UNL     1      -9.295   0.395 -32.492  1.00  0.00     0.002 A 
HETATM   26  C   UNL     1      -8.358   0.322 -31.467  1.00  0.00     0.001 A 
HETATM   27  C   UNL     1      -6.996   0.264 -31.769  1.00  0.00     0.011 A 
ENDBRANCH   9  21
BRANCH  10  28
HETATM   28  C   UNL     1      -4.970  -2.247 -34.043  1.00  0.00     0.293 C 
HETATM   29  O   UNL     1      -4.355  -2.701 -34.992  1.00  0.00    -0.259 OA
BRANCH  28  30
HETATM   30  O   UNL     1      -6.218  -2.594 -33.647  1.00  0.00    -0.323 OA
HETATM   31  C   UNL     1      -6.939  -3.369 -34.605  1.00  0.00     0.213 C 
ENDBRANCH  28  30
ENDBRANCH  10  28
TORSDOF 6
ENDMDL
MODEL 3
REMARK VINA RESULT:      -8.3      3.252      7.534
REMARK  6 active torsions:
REMARK  status: ('A' for Active; 'I' for Inactive)
REMARK    1  A    between atoms: C_7  and  S_8 
REMARK    2  A    between atoms: S_8  and  C_9 
REMARK    3  A    between atoms: C_9  and  C_10 
REMARK    4  A    between atoms: C_18  and  C_19 
REMARK    5  A    between atoms: C_26  and  C_27 
REMARK    6  A    between atoms: C_27  and  O_28 
ROOT
HETATM    1  C   UNL     1      -9.961   4.909 -33.365  1.00  0.00     0.070 C 
HETATM    2  C   UNL     1      -8.571   4.325 -33.312  1.00  0.00     0.037 A 
HETATM    3  N   UNL     1      -7.575   5.051 -33.958  1.00  0.00    -0.192 N 
HETATM    4  C   UNL     1      -6.267   4.745 -33.865  1.00  0.00     0.726 A 
HETATM    5  N   UNL     1      -5.890   3.594 -33.227  1.00  0.00    -0.082 N 
HETATM    6  N   UNL     1      -4.550   3.477 -33.177  1.00  0.00    -0.128 NA
HETATM    7  C   UNL     1      -4.177   4.582 -33.833  1.00  0.00     0.226 A 
HETATM    8  N   UNL     1      -5.202   5.384 -34.273  1.00  0.00    -0.035 NA
HETATM    9  C   UNL     1      -6.831   2.636 -32.627  1.00  0.00     0.204 A 
HETATM   10  C   UNL     1      -8.249   3.187 -32.651  1.00  0.00     0.070 A 
HETATM   11  H   UNL     1      -7.841   5.934 -34.387  1.00  0.00     0.184 HD
ENDROOT
BRANCH   7  12
HETATM   12  S   UNL     1      -2.495   4.944 -34.100  1.00  0.00    -0.083 SA
BRANCH  12  13
HETATM   13  C   UNL     1      -2.390   6.548 -33.261  1.00  0.00     0.123 C 
BRANCH  13  14
HETATM   14  C   UNL     1      -1.409   6.517 -32.113  1.00  0.00    -0.027 A 
HETATM   15  C   UNL     1      -1.297   7.557 -31.175  1.00  0.00     0.041 A 
HETATM   16 CL   UNL     1      -2.269   8.983 -31.268  1.00  0.00    -0.084 Cl
HETATM   17  C   UNL     1      -0.378   7.469 -30.123  1.00  0.00     0.024 A 
HETATM   18  C   UNL     1       0.436   6.346 -29.991  1.00  0.00     0.002 A 
HETATM   19  C   UNL     1       0.332   5.304 -30.908  1.00  0.00     0.001 A 
HETATM   20  C   UNL     1      -0.585   5.386 -31.958  1.00  0.00     0.009 A 
ENDBRANCH  13  14
ENDBRANCH  12  13
ENDBRANCH   7  12
BRANCH   9  21
HETATM   21  C   UNL     1      -6.726   1.289 -33.343  1.00  0.00    -0.006 A 
HETATM   22  C   UNL     1      -6.330   0.112 -32.683  1.00  0.00     0.042 A 
HETATM   23 CL   UNL     1      -5.939   0.078 -31.001  1.00  0.00    -0.084 Cl
HETATM   24  C   UNL     1      -6.251  -1.103 -33.375  1.00  0.00     0.024 A 
HETATM   25  C   UNL     1      -6.566  -1.167 -34.730  1.00  0.00     0.002 A 
HETATM   26  C   UNL     1      -6.967  -0.017 -35.401  1.00  0.00     0.001 A 
HETATM   27  C   UNL     1      -7.049   1.197 -34.716  1.00  0.00     0.011 A 
ENDBRANCH   9  21
BRANCH  10  28
HETATM   28  C   UNL     1      -9.267   2.412 -31.920  1.00  0.00     0.293 C 
HETATM   29  O   UNL     1      -9.337   2.334 -30.706  1.00  0.00    -0.259 OA
BRANCH  28  30
HETATM   30  O   UNL     1     -10.063   1.783 -32.818  1.00  0.00    -0.323 OA
HETATM   31  C   UNL     1     -10.038   0.359 -32.722  1.00  0.00     0.213 C 
ENDBRANCH  28  30
ENDBRANCH  10  28
TORSDOF 6
ENDMDL
MODEL 4
REMARK VINA RESULT:      -8.1      3.234      7.142
REMARK  6 active torsions:
REMARK  status: ('A' for Active; 'I' for Inactive)
REMARK    1  A    between atoms: C_7  and  S_8 
REMARK    2  A    between atoms: S_8  and  C_9 
REMARK    3  A    between atoms: C_9  and  C_10 
REMARK    4  A    between atoms: C_18  and  C_19 
REMARK    5  A    between atoms: C_26  and  C_27 
REMARK    6  A    between atoms: C_27  and  O_28 
ROOT
HETATM    1  C   UNL     1      -3.018  -2.981 -31.870  1.00  0.00     0.070 C 
HETATM    2  C   UNL     1      -3.571  -1.605 -32.146  1.00  0.00     0.037 A 
HETATM    3  N   UNL     1      -3.086  -0.576 -31.346  1.00  0.00    -0.192 N 
HETATM    4  C   UNL     1      -3.362   0.723 -31.574  1.00  0.00     0.726 A 
HETATM    5  N   UNL     1      -4.269   1.056 -32.543  1.00  0.00    -0.082 N 
HETATM    6  N   UNL     1      -4.378   2.392 -32.674  1.00  0.00    -0.128 NA
HETATM    7  C   UNL     1      -3.528   2.807 -31.728  1.00  0.00     0.226 A 
HETATM    8  N   UNL     1      -2.887   1.812 -31.030  1.00  0.00    -0.035 NA
HETATM    9  C   UNL     1      -4.990   0.079 -33.372  1.00  0.00     0.204 A 
HETATM   10  C   UNL     1      -4.458  -1.327 -33.132  1.00  0.00     0.070 A 
HETATM   11  H   UNL     1      -2.372  -0.811 -30.662  1.00  0.00     0.184 HD
ENDROOT
BRANCH   7  12
HETATM   12  S   UNL     1      -3.280   4.503 -31.424  1.00  0.00    -0.083 SA
BRANCH  12  13
HETATM   13  C   UNL     1      -4.781   5.174 -32.190  1.00  0.00     0.123 C 
BRANCH  13  14
HETATM   14  C   UNL     1      -6.027   4.744 -31.453  1.00  0.00    -0.027 A 
HETATM   15  C   UNL     1      -7.160   4.228 -32.104  1.00  0.00     0.041 A 
HETATM   16 CL   UNL     1      -7.232   4.059 -33.822  1.00  0.00    -0.084 Cl
HETATM   17  C   UNL     1      -8.283   3.832 -31.369  1.00  0.00     0.024 A 
HETATM   18  C   UNL     1      -8.290   3.942 -29.979  1.00  0.00     0.002 A 
HETATM   19  C   UNL     1      -7.173   4.445 -29.319  1.00  0.00     0.001 A 
HETATM   20  C   UNL     1      -6.049   4.839 -30.048  1.00  0.00     0.009 A 
ENDBRANCH  13  14
ENDBRANCH  12  13
ENDBRANCH   7  12
BRANCH   9  21
HETATM   21  C   UNL     1      -6.492   0.179 -33.102  1.00  0.00    -0.006 A 
HETATM   22  C   UNL     1      -7.438   0.298 -34.134  1.00  0.00     0.042 A 
HETATM   23 CL   UNL     1      -6.993   0.330 -35.803  1.00  0.00    -0.084 Cl
HETATM   24  C   UNL     1      -8.806   0.382 -33.844  1.00  0.00     0.024 A 
HETATM   25  C   UNL     1      -9.252   0.347 -32.525  1.00  0.00     0.002 A 
HETATM   26  C   UNL     1      -8.334   0.221 -31.488  1.00  0.00     0.001 A 
HETATM   27  C   UNL     1      -6.969   0.136 -31.772  1.00  0.00     0.011 A 
ENDBRANCH   9  21
BRANCH  10  28
HETATM   28  C   UNL     1      -4.965  -2.382 -34.027  1.00  0.00     0.293 C 
HETATM   29  O   UNL     1      -4.358  -2.826 -34.986  1.00  0.00    -0.259 OA
BRANCH  28  30
HETATM   30  O   UNL     1      -6.212  -2.729 -33.628  1.00  0.00    -0.323 OA
HETATM   31  C   UNL     1      -6.943  -3.487 -34.591  1.00  0.00     0.213 C 
ENDBRANCH  28  30
ENDBRANCH  10  28
TORSDOF 6
ENDMDL
MODEL 5
REMARK VINA RESULT:      -7.9      1.640      2.012
REMARK  6 active torsions:
REMARK  status: ('A' for Active; 'I' for Inactive)
REMARK    1  A    between atoms: C_7  and  S_8 
REMARK    2  A    between atoms: S_8  and  C_9 
REMARK    3  A    between atoms: C_9  and  C_10 
REMARK    4  A    between atoms: C_18  and  C_19 
REMARK    5  A    between atoms: C_26  and  C_27 
REMARK    6  A    between atoms: C_27  and  O_28 
ROOT
HETATM    1  C   UNL     1      -6.506   6.484 -28.429  1.00  0.00     0.070 C 
HETATM    2  C   UNL     1      -6.147   5.467 -29.484  1.00  0.00     0.037 A 
HETATM    3  N   UNL     1      -6.255   4.131 -29.111  1.00  0.00    -0.192 N 
HETATM    4  C   UNL     1      -6.124   3.113 -29.983  1.00  0.00     0.726 A 
HETATM    5  N   UNL     1      -5.730   3.375 -31.268  1.00  0.00    -0.082 N 
HETATM    6  N   UNL     1      -5.708   2.254 -32.012  1.00  0.00    -0.128 NA
HETATM    7  C   UNL     1      -6.071   1.341 -31.104  1.00  0.00     0.226 A 
HETATM    8  N   UNL     1      -6.332   1.830 -29.846  1.00  0.00    -0.035 NA
HETATM    9  C   UNL     1      -5.423   4.719 -31.780  1.00  0.00     0.204 A 
HETATM   10  C   UNL     1      -5.778   5.782 -30.749  1.00  0.00     0.070 A 
HETATM   11  H   UNL     1      -6.598   3.931 -28.175  1.00  0.00     0.184 HD
ENDROOT
BRANCH   7  12
HETATM   12  S   UNL     1      -6.188  -0.344 -31.521  1.00  0.00    -0.083 SA
BRANCH  12  13
HETATM   13  C   UNL     1      -5.261  -0.340 -33.079  1.00  0.00     0.123 C 
BRANCH  13  14
HETATM   14  C   UNL     1      -5.052  -1.738 -33.612  1.00  0.00    -0.027 A 
HETATM   15  C   UNL     1      -4.035  -2.588 -33.148  1.00  0.00     0.041 A 
HETATM   16 CL   UNL     1      -2.912  -2.093 -31.930  1.00  0.00    -0.084 Cl
HETATM   17  C   UNL     1      -3.895  -3.879 -33.668  1.00  0.00     0.024 A 
HETATM   18  C   UNL     1      -4.768  -4.340 -34.652  1.00  0.00     0.002 A 
HETATM   19  C   UNL     1      -5.786  -3.512 -35.117  1.00  0.00     0.001 A 
HETATM   20  C   UNL     1      -5.930  -2.224 -34.600  1.00  0.00     0.009 A 
ENDBRANCH  13  14
ENDBRANCH  12  13
ENDBRANCH   7  12
BRANCH   9  21
HETATM   21  C   UNL     1      -3.954   4.792 -32.197  1.00  0.00    -0.006 A 
HETATM   22  C   UNL     1      -3.555   4.870 -33.543  1.00  0.00     0.042 A 
HETATM   23 CL   UNL     1      -4.687   4.903 -34.847  1.00  0.00    -0.084 Cl
HETATM   24  C   UNL     1      -2.198   4.939 -33.882  1.00  0.00     0.024 A 
HETATM   25  C   UNL     1      -1.219   4.935 -32.891  1.00  0.00     0.002 A 
HETATM   26  C   UNL     1      -1.592   4.866 -31.553  1.00  0.00     0.001 A 
HETATM   27  C   UNL     1      -2.944   4.798 -31.209  1.00  0.00     0.011 A 
ENDBRANCH   9  21
BRANCH  10  28
HETATM   28  C   UNL     1      -5.692   7.184 -31.195  1.00  0.00     0.293 C 
HETATM   29  O   UNL     1      -4.688   7.870 -31.129  1.00  0.00    -0.259 OA
BRANCH  28  30
HETATM   30  O   UNL     1      -6.911   7.574 -31.640  1.00  0.00    -0.323 OA
HETATM   31  C   UNL     1      -7.073   8.990 -31.728  1.00  0.00     0.213 C 
ENDBRANCH  28  30
ENDBRANCH  10  28
TORSDOF 6
ENDMDL
MODEL 6
REMARK VINA RESULT:      -7.7      1.967      3.834
REMARK  6 active torsions:
REMARK  status: ('A' for Active; 'I' for Inactive)
REMARK    1  A    between atoms: C_7  and  S_8 
REMARK    2  A    between atoms: S_8  and  C_9 
REMARK    3  A    between atoms: C_9  and  C_10 
REMARK    4  A    between atoms: C_18  and  C_19 
REMARK    5  A    between atoms: C_26  and  C_27 
REMARK    6  A    between atoms: C_27  and  O_28 
ROOT
HETATM    1  C   UNL     1      -1.550   6.039 -32.559  1.00  0.00     0.070 C 
HETATM    2  C   UNL     1      -2.657   5.084 -32.184  1.00  0.00     0.037 A 
HETATM    3  N   UNL     1      -2.559   3.797 -32.703  1.00  0.00    -0.192 N 
HETATM    4  C   UNL     1      -3.377   2.793 -32.334  1.00  0.00     0.726 A 
HETATM    5  N   UNL     1      -4.445   3.062 -31.520  1.00  0.00    -0.082 N 
HETATM    6  N   UNL     1      -5.117   1.938 -31.207  1.00  0.00    -0.128 NA
HETATM    7  C   UNL     1      -4.418   1.027 -31.893  1.00  0.00     0.226 A 
HETATM    8  N   UNL     1      -3.344   1.514 -32.599  1.00  0.00    -0.035 NA
HETATM    9  C   UNL     1      -4.780   4.400 -31.011  1.00  0.00     0.204 A 
HETATM   10  C   UNL     1      -3.684   5.398 -31.360  1.00  0.00     0.070 A 
HETATM   11  H   UNL     1      -1.740   3.578 -33.264  1.00  0.00     0.184 HD
ENDROOT
BRANCH   7  12
HETATM   12  S   UNL     1      -4.870  -0.653 -31.874  1.00  0.00    -0.083 SA
BRANCH  12  13
HETATM   13  C   UNL     1      -4.199  -1.169 -33.479  1.00  0.00     0.123 C 
BRANCH  13  14
HETATM   14  C   UNL     1      -4.826  -2.456 -33.962  1.00  0.00    -0.027 A 
HETATM   15  C   UNL     1      -6.078  -2.504 -34.596  1.00  0.00     0.041 A 
HETATM   16 CL   UNL     1      -7.026  -1.083 -34.862  1.00  0.00    -0.084 Cl
HETATM   17  C   UNL     1      -6.606  -3.723 -35.035  1.00  0.00     0.024 A 
HETATM   18  C   UNL     1      -5.892  -4.906 -34.851  1.00  0.00     0.002 A 
HETATM   19  C   UNL     1      -4.647  -4.874 -34.230  1.00  0.00     0.001 A 
HETATM   20  C   UNL     1      -4.116  -3.659 -33.792  1.00  0.00     0.009 A 
ENDBRANCH  13  14
ENDBRANCH  12  13
ENDBRANCH   7  12
BRANCH   9  21
HETATM   21  C   UNL     1      -6.143   4.833 -31.550  1.00  0.00    -0.006 A 
HETATM   22  C   UNL     1      -7.232   5.120 -30.708  1.00  0.00     0.042 A 
HETATM   23 CL   UNL     1      -7.124   5.021 -28.986  1.00  0.00    -0.084 Cl
HETATM   24  C   UNL     1      -8.464   5.517 -31.242  1.00  0.00     0.024 A 
HETATM   25  C   UNL     1      -8.631   5.639 -32.619  1.00  0.00     0.002 A 
HETATM   26  C   UNL     1      -7.566   5.368 -33.471  1.00  0.00     0.001 A 
HETATM   27  C   UNL     1      -6.335   4.972 -32.944  1.00  0.00     0.011 A 
ENDBRANCH   9  21
BRANCH  10  28
HETATM   28  C   UNL     1      -3.801   6.738 -30.756  1.00  0.00     0.293 C 
HETATM   29  O   UNL     1      -4.271   7.711 -31.319  1.00  0.00    -0.259 OA
BRANCH  28  30
HETATM   30  O   UNL     1      -3.265   6.703 -29.513  1.00  0.00    -0.323 OA
HETATM   31  C   UNL     1      -4.150   7.145 -28.484  1.00  0.00     0.213 C 
ENDBRANCH  28  30
ENDBRANCH  10  28
TORSDOF 6
ENDMDL
MODEL 7
REMARK VINA RESULT:      -7.7      2.591      4.516
REMARK  6 active torsions:
REMARK  status: ('A' for Active; 'I' for Inactive)
REMARK    1  A    between atoms: C_7  and  S_8 
REMARK    2  A    between atoms: S_8  and  C_9 
REMARK    3  A    between atoms: C_9  and  C_10 
REMARK    4  A    between atoms: C_18  and  C_19 
REMARK    5  A    between atoms: C_26  and  C_27 
REMARK    6  A    between atoms: C_27  and  O_28 
ROOT
HETATM    1  C   UNL     1      -1.019   6.183 -34.141  1.00  0.00     0.070 C 
HETATM    2  C   UNL     1      -1.980   5.547 -33.167  1.00  0.00     0.037 A 
HETATM    3  N   UNL     1      -2.351   4.234 -33.440  1.00  0.00    -0.192 N 
HETATM    4  C   UNL     1      -3.072   3.483 -32.585  1.00  0.00     0.726 A 
HETATM    5  N   UNL     1      -3.590   4.061 -31.456  1.00  0.00    -0.082 N 
HETATM    6  N   UNL     1      -4.228   3.155 -30.692  1.00  0.00    -0.128 NA
HETATM    7  C   UNL     1      -4.084   2.052 -31.435  1.00  0.00     0.226 A 
HETATM    8  N   UNL     1      -3.382   2.214 -32.605  1.00  0.00    -0.035 NA
HETATM    9  C   UNL     1      -3.421   5.478 -31.101  1.00  0.00     0.204 A 
HETATM   10  C   UNL     1      -2.450   6.160 -32.055  1.00  0.00     0.070 A 
HETATM   11  H   UNL     1      -1.927   3.784 -34.247  1.00  0.00     0.184 HD
ENDROOT
BRANCH   7  12
HETATM   12  S   UNL     1      -4.760   0.531 -30.926  1.00  0.00    -0.083 SA
BRANCH  12  13
HETATM   13  C   UNL     1      -3.866  -0.589 -32.038  1.00  0.00     0.123 C 
BRANCH  13  14
HETATM   14  C   UNL     1      -4.770  -1.155 -33.108  1.00  0.00    -0.027 A 
HETATM   15  C   UNL     1      -4.669  -2.477 -33.572  1.00  0.00     0.041 A 
HETATM   16 CL   UNL     1      -3.477  -3.572 -32.966  1.00  0.00    -0.084 Cl
HETATM   17  C   UNL     1      -5.541  -2.953 -34.557  1.00  0.00     0.024 A 
HETATM   18  C   UNL     1      -6.525  -2.120 -35.088  1.00  0.00     0.002 A 
HETATM   19  C   UNL     1      -6.643  -0.810 -34.633  1.00  0.00     0.001 A 
HETATM   20  C   UNL     1      -5.775  -0.332 -33.649  1.00  0.00     0.009 A 
ENDBRANCH  13  14
ENDBRANCH  12  13
ENDBRANCH   7  12
BRANCH   9  21
HETATM   21  C   UNL     1      -4.784   6.170 -31.076  1.00  0.00    -0.006 A 
HETATM   22  C   UNL     1      -5.330   6.721 -29.904  1.00  0.00     0.042 A 
HETATM   23 CL   UNL     1      -4.505   6.676 -28.386  1.00  0.00    -0.084 Cl
HETATM   24  C   UNL     1      -6.580   7.351 -29.925  1.00  0.00     0.024 A 
HETATM   25  C   UNL     1      -7.304   7.447 -31.111  1.00  0.00     0.002 A 
HETATM   26  C   UNL     1      -6.780   6.916 -32.284  1.00  0.00     0.001 A 
HETATM   27  C   UNL     1      -5.533   6.287 -32.269  1.00  0.00     0.011 A 
ENDBRANCH   9  21
BRANCH  10  28
HETATM   28  C   UNL     1      -2.049   7.535 -31.709  1.00  0.00     0.293 C 
HETATM   29  O   UNL     1      -2.466   8.537 -32.263  1.00  0.00    -0.259 OA
BRANCH  28  30
HETATM   30  O   UNL     1      -1.123   7.483 -30.722  1.00  0.00    -0.323 OA
HETATM   31  C   UNL     1      -1.408   8.331 -29.610  1.00  0.00     0.213 C 
ENDBRANCH  28  30
ENDBRANCH  10  28
TORSDOF 6
ENDMDL
MODEL 8
REMARK VINA RESULT:      -7.7      1.790      2.234
REMARK  6 active torsions:
REMARK  status: ('A' for Active; 'I' for Inactive)
REMARK    1  A    between atoms: C_7  and  S_8 
REMARK    2  A    between atoms: S_8  and  C_9 
REMARK    3  A    between atoms: C_9  and  C_10 
REMARK    4  A    between atoms: C_18  and  C_19 
REMARK    5  A    between atoms: C_26  and  C_27 
REMARK    6  A    between atoms: C_27  and  O_28 
ROOT
HETATM    1  C   UNL     1      -6.250   5.933 -28.439  1.00  0.00     0.070 C 
HETATM    2  C   UNL     1      -5.411   5.307 -29.525  1.00  0.00     0.037 A 
HETATM    3  N   UNL     1      -5.248   3.928 -29.457  1.00  0.00    -0.192 N 
HETATM    4  C   UNL     1      -4.664   3.208 -30.435  1.00  0.00     0.726 A 
HETATM    5  N   UNL     1      -4.074   3.859 -31.485  1.00  0.00    -0.082 N 
HETATM    6  N   UNL     1      -3.594   2.987 -32.393  1.00  0.00    -0.128 NA
HETATM    7  C   UNL     1      -3.903   1.823 -31.812  1.00  0.00     0.226 A 
HETATM    8  N   UNL     1      -4.558   1.917 -30.607  1.00  0.00    -0.035 NA
HETATM    9  C   UNL     1      -4.021   5.321 -31.627  1.00  0.00     0.204 A 
HETATM   10  C   UNL     1      -4.862   5.997 -30.554  1.00  0.00     0.070 A 
HETATM   11  H   UNL     1      -5.730   3.435 -28.709  1.00  0.00     0.184 HD
ENDROOT
BRANCH   7  12
HETATM   12  S   UNL     1      -3.480   0.307 -32.556  1.00  0.00    -0.083 SA
BRANCH  12  13
HETATM   13  C   UNL     1      -5.073  -0.118 -33.311  1.00  0.00     0.123 C 
BRANCH  13  14
HETATM   14  C   UNL     1      -5.115  -1.560 -33.759  1.00  0.00    -0.027 A 
HETATM   15  C   UNL     1      -6.138  -2.080 -34.568  1.00  0.00     0.041 A 
HETATM   16 CL   UNL     1      -7.460  -1.108 -35.110  1.00  0.00    -0.084 Cl
HETATM   17  C   UNL     1      -6.119  -3.422 -34.963  1.00  0.00     0.024 A 
HETATM   18  C   UNL     1      -5.081  -4.260 -34.561  1.00  0.00     0.002 A 
HETATM   19  C   UNL     1      -4.055  -3.758 -33.764  1.00  0.00     0.001 A 
HETATM   20  C   UNL     1      -4.069  -2.419 -33.369  1.00  0.00     0.009 A 
ENDBRANCH  13  14
ENDBRANCH  12  13
ENDBRANCH   7  12
BRANCH   9  21
HETATM   21  C   UNL     1      -2.567   5.791 -31.598  1.00  0.00    -0.006 A 
HETATM   22  C   UNL     1      -1.912   6.292 -32.737  1.00  0.00     0.042 A 
HETATM   23 CL   UNL     1      -2.695   6.434 -34.271  1.00  0.00    -0.084 Cl
HETATM   24  C   UNL     1      -0.580   6.717 -32.667  1.00  0.00     0.024 A 
HETATM   25  C   UNL     1       0.121   6.654 -31.465  1.00  0.00     0.002 A 
HETATM   26  C   UNL     1      -0.509   6.169 -30.324  1.00  0.00     0.001 A 
HETATM   27  C   UNL     1      -1.838   5.745 -30.388  1.00  0.00     0.011 A 
ENDBRANCH   9  21
BRANCH  10  28
HETATM   28  C   UNL     1      -5.046   7.453 -30.685  1.00  0.00     0.293 C 
HETATM   29  O   UNL     1      -5.847   7.985 -31.434  1.00  0.00    -0.259 OA
BRANCH  28  30
HETATM   30  O   UNL     1      -4.157   8.078 -29.876  1.00  0.00    -0.323 OA
HETATM   31  C   UNL     1      -3.584   9.258 -30.440  1.00  0.00     0.213 C 
ENDBRANCH  28  30
ENDBRANCH  10  28
TORSDOF 6
ENDMDL
MODEL 9
REMARK VINA RESULT:      -7.6      3.918      7.259
REMARK  6 active torsions:
REMARK  status: ('A' for Active; 'I' for Inactive)
REMARK    1  A    between atoms: C_7  and  S_8 
REMARK    2  A    between atoms: S_8  and  C_9 
REMARK    3  A    between atoms: C_9  and  C_10 
REMARK    4  A    between atoms: C_18  and  C_19 
REMARK    5  A    between atoms: C_26  and  C_27 
REMARK    6  A    between atoms: C_27  and  O_28 
ROOT
HETATM    1  C   UNL     1      -5.302   0.729 -30.381  1.00  0.00     0.070 C 
HETATM    2  C   UNL     1      -5.034   2.077 -31.004  1.00  0.00     0.037 A 
HETATM    3  N   UNL     1      -3.728   2.312 -31.421  1.00  0.00    -0.192 N 
HETATM    4  C   UNL     1      -3.370   3.397 -32.134  1.00  0.00     0.726 A 
HETATM    5  N   UNL     1      -4.285   4.392 -32.349  1.00  0.00    -0.082 N 
HETATM    6  N   UNL     1      -3.776   5.367 -33.126  1.00  0.00    -0.128 NA
HETATM    7  C   UNL     1      -2.534   4.911 -33.321  1.00  0.00     0.226 A 
HETATM    8  N   UNL     1      -2.246   3.706 -32.725  1.00  0.00    -0.035 NA
HETATM    9  C   UNL     1      -5.665   4.369 -31.841  1.00  0.00     0.204 A 
HETATM   10  C   UNL     1      -5.983   3.022 -31.209  1.00  0.00     0.070 A 
HETATM   11  H   UNL     1      -3.058   1.556 -31.313  1.00  0.00     0.184 HD
ENDROOT
BRANCH   7  12
HETATM   12  S   UNL     1      -1.383   5.813 -34.264  1.00  0.00    -0.083 SA
BRANCH  12  13
HETATM   13  C   UNL     1      -1.581   7.449 -33.506  1.00  0.00     0.123 C 
BRANCH  13  14
HETATM   14  C   UNL     1      -1.189   7.442 -32.047  1.00  0.00    -0.027 A 
HETATM   15  C   UNL     1      -2.026   7.925 -31.029  1.00  0.00     0.041 A 
HETATM   16 CL   UNL     1      -3.584   8.595 -31.364  1.00  0.00    -0.084 Cl
HETATM   17  C   UNL     1      -1.617   7.882 -29.691  1.00  0.00     0.024 A 
HETATM   18  C   UNL     1      -0.372   7.355 -29.352  1.00  0.00     0.002 A 
HETATM   19  C   UNL     1       0.467   6.865 -30.349  1.00  0.00     0.001 A 
HETATM   20  C   UNL     1       0.061   6.904 -31.685  1.00  0.00     0.009 A 
ENDBRANCH  13  14
ENDBRANCH  12  13
ENDBRANCH   7  12
BRANCH   9  21
HETATM   21  C   UNL     1      -5.875   5.526 -30.864  1.00  0.00    -0.006 A 
HETATM   22  C   UNL     1      -6.840   6.527 -31.075  1.00  0.00     0.042 A 
HETATM   23 CL   UNL     1      -7.884   6.534 -32.451  1.00  0.00    -0.084 Cl
HETATM   24  C   UNL     1      -7.004   7.568 -30.152  1.00  0.00     0.024 A 
HETATM   25  C   UNL     1      -6.215   7.628 -29.006  1.00  0.00     0.002 A 
HETATM   26  C   UNL     1      -5.260   6.644 -28.773  1.00  0.00     0.001 A 
HETATM   27  C   UNL     1      -5.093   5.603 -29.689  1.00  0.00     0.011 A 
ENDBRANCH   9  21
BRANCH  10  28
HETATM   28  C   UNL     1      -7.387   2.795 -30.819  1.00  0.00     0.293 C 
HETATM   29  O   UNL     1      -7.833   2.984 -29.701  1.00  0.00    -0.259 OA
BRANCH  28  30
HETATM   30  O   UNL     1      -8.062   2.309 -31.888  1.00  0.00    -0.323 OA
HETATM   31  C   UNL     1      -8.920   1.209 -31.585  1.00  0.00     0.213 C 
ENDBRANCH  28  30
ENDBRANCH  10  28
TORSDOF 6
ENDMDL
MODEL 10
REMARK VINA RESULT:      -7.5      2.582      4.561
REMARK  6 active torsions:
REMARK  status: ('A' for Active; 'I' for Inactive)
REMARK    1  A    between atoms: C_7  and  S_8 
REMARK    2  A    between atoms: S_8  and  C_9 
REMARK    3  A    between atoms: C_9  and  C_10 
REMARK    4  A    between atoms: C_18  and  C_19 
REMARK    5  A    between atoms: C_26  and  C_27 
REMARK    6  A    between atoms: C_27  and  O_28 
ROOT
HETATM    1  C   UNL     1      -1.448   6.595 -33.006  1.00  0.00     0.070 C 
HETATM    2  C   UNL     1      -2.430   5.635 -32.379  1.00  0.00     0.037 A 
HETATM    3  N   UNL     1      -2.340   4.310 -32.792  1.00  0.00    -0.192 N 
HETATM    4  C   UNL     1      -3.035   3.313 -32.211  1.00  0.00     0.726 A 
HETATM    5  N   UNL     1      -3.979   3.614 -31.267  1.00  0.00    -0.082 N 
HETATM    6  N   UNL     1      -4.532   2.498 -30.754  1.00  0.00    -0.128 NA
HETATM    7  C   UNL     1      -3.895   1.555 -31.457  1.00  0.00     0.226 A 
HETATM    8  N   UNL     1      -2.971   2.016 -32.364  1.00  0.00    -0.035 NA
HETATM    9  C   UNL     1      -4.307   4.980 -30.831  1.00  0.00     0.204 A 
HETATM   10  C   UNL     1      -3.335   5.984 -31.435  1.00  0.00     0.070 A 
HETATM   11  H   UNL     1      -1.605   4.072 -33.453  1.00  0.00     0.184 HD
ENDROOT
BRANCH   7  12
HETATM   12  S   UNL     1      -4.245  -0.133 -31.219  1.00  0.00    -0.083 SA
BRANCH  12  13
HETATM   13  C   UNL     1      -6.057  -0.073 -31.212  1.00  0.00     0.123 C 
BRANCH  13  14
HETATM   14  C   UNL     1      -6.622   0.006 -32.611  1.00  0.00    -0.027 A 
HETATM   15  C   UNL     1      -7.464   1.045 -33.037  1.00  0.00     0.041 A 
HETATM   16 CL   UNL     1      -7.947   2.325 -31.981  1.00  0.00    -0.084 Cl
HETATM   17  C   UNL     1      -7.948   1.074 -34.350  1.00  0.00     0.024 A 
HETATM   18  C   UNL     1      -7.596   0.072 -35.252  1.00  0.00     0.002 A 
HETATM   19  C   UNL     1      -6.756  -0.961 -34.847  1.00  0.00     0.001 A 
HETATM   20  C   UNL     1      -6.270  -0.993 -33.539  1.00  0.00     0.009 A 
ENDBRANCH  13  14
ENDBRANCH  12  13
ENDBRANCH   7  12
BRANCH   9  21
HETATM   21  C   UNL     1      -5.759   5.301 -31.185  1.00  0.00    -0.006 A 
HETATM   22  C   UNL     1      -6.762   5.438 -30.209  1.00  0.00     0.042 A 
HETATM   23 CL   UNL     1      -6.442   5.268 -28.520  1.00  0.00    -0.084 Cl
HETATM   24  C   UNL     1      -8.079   5.738 -30.576  1.00  0.00     0.024 A 
HETATM   25  C   UNL     1      -8.420   5.909 -31.915  1.00  0.00     0.002 A 
HETATM   26  C   UNL     1      -7.443   5.785 -32.897  1.00  0.00     0.001 A 
HETATM   27  C   UNL     1      -6.127   5.488 -32.537  1.00  0.00     0.011 A 
ENDBRANCH   9  21
BRANCH  10  28
HETATM   28  C   UNL     1      -3.433   7.369 -30.941  1.00  0.00     0.293 C 
HETATM   29  O   UNL     1      -3.951   8.287 -31.555  1.00  0.00    -0.259 OA
BRANCH  28  30
HETATM   30  O   UNL     1      -2.822   7.446 -29.735  1.00  0.00    -0.323 OA
HETATM   31  C   UNL     1      -1.698   8.326 -29.706  1.00  0.00     0.213 C 
ENDBRANCH  28  30
ENDBRANCH  10  28
TORSDOF 6
ENDMDL
