MODEL 1
REMARK VINA RESULT:      -9.8      0.000      0.000
REMARK  7 active torsions:
REMARK  status: ('A' for Active; 'I' for Inactive)
REMARK    1  A    between atoms: C_3  and  S_4 
REMARK    2  A    between atoms: S_4  and  N_5 
REMARK    3  A    between atoms: N_5  and  C_6 
REMARK    4  A    between atoms: C_6  and  C_7 
REMARK    5  A    between atoms: C_20  and  C_21 
REMARK    6  A    between atoms: C_25  and  N_26 
REMARK    7  A    between atoms: N_26  and  C_27 
ROOT
HETATM    1  C   UNL     1      -4.108  -3.434 -34.445  1.00  0.00     0.050 C 
HETATM    2  C   UNL     1      -5.150  -2.392 -34.146  1.00  0.00    -0.039 A 
HETATM    3  C   UNL     1      -4.991  -1.370 -33.194  1.00  0.00     0.081 A 
HETATM    4  C   UNL     1      -6.036  -0.460 -32.951  1.00  0.00     0.039 A 
HETATM    5  C   UNL     1      -7.233  -0.502 -33.683  1.00  0.00    -0.003 A 
HETATM    6  C   UNL     1      -7.390  -1.529 -34.622  1.00  0.00     0.014 A 
HETATM    7  C   UNL     1      -6.370  -2.461 -34.842  1.00  0.00     0.009 A 
ENDROOT
BRANCH   5   8
HETATM    8  C   UNL     1      -8.295   0.487 -33.447  1.00  0.00     0.098 A 
HETATM    9  N   UNL     1      -9.471  -0.065 -33.095  1.00  0.00    -0.172 NA
HETATM   10  N   UNL     1     -10.474   0.727 -32.768  1.00  0.00    -0.262 N 
HETATM   11  H   UNL     1     -11.346   0.287 -32.495  1.00  0.00     0.191 HD
HETATM   12  C   UNL     1     -10.417   2.070 -32.769  1.00  0.00     0.129 A 
HETATM   13  C   UNL     1      -9.190   2.689 -33.134  1.00  0.00     0.022 A 
HETATM   14  C   UNL     1      -8.102   1.876 -33.511  1.00  0.00     0.009 A 
HETATM   15  C   UNL     1      -9.001   4.094 -33.121  1.00  0.00     0.016 A 
HETATM   16  C   UNL     1      -6.893   2.494 -33.922  1.00  0.00     0.015 A 
HETATM   17  C   UNL     1      -6.740   3.878 -33.914  1.00  0.00     0.001 A 
HETATM   18  C   UNL     1      -7.793   4.679 -33.503  1.00  0.00     0.001 A 
BRANCH  12  19
HETATM   19  N   UNL     1     -11.511   2.832 -32.364  1.00  0.00    -0.370 N 
HETATM   20  H   UNL     1     -11.260   3.465 -31.601  1.00  0.00     0.161 HD
BRANCH  19  21
HETATM   21  C   UNL     1     -12.524   3.401 -33.261  1.00  0.00     0.083 C 
HETATM   22  C   UNL     1     -13.203   2.299 -34.090  1.00  0.00     0.025 C 
HETATM   23  C   UNL     1     -14.068   1.368 -33.241  1.00  0.00     0.002 C 
HETATM   24  C   UNL     1     -15.099   2.144 -32.428  1.00  0.00     0.000 C 
HETATM   25  C   UNL     1     -14.446   3.233 -31.584  1.00  0.00     0.002 C 
HETATM   26  C   UNL     1     -13.573   4.161 -32.431  1.00  0.00     0.025 C 
ENDBRANCH  19  21
ENDBRANCH  12  19
ENDBRANCH   5   8
BRANCH   3  27
HETATM   27  S   UNL     1      -3.492  -1.150 -32.232  1.00  0.00     0.242 S 
HETATM   28  O   UNL     1      -3.186  -2.419 -31.608  1.00  0.00    -0.206 OA
HETATM   29  O   UNL     1      -2.522  -0.449 -33.036  1.00  0.00    -0.206 OA
BRANCH  27  30
HETATM   30  N   UNL     1      -4.026  -0.084 -31.027  1.00  0.00    -0.208 NA
HETATM   31  H   UNL     1      -3.890  -0.493 -30.098  1.00  0.00     0.140 HD
BRANCH  30  32
HETATM   32  C   UNL     1      -3.471   1.277 -31.121  1.00  0.00     0.182 C 
BRANCH  32  33
HETATM   33  C   UNL     1      -4.548   2.252 -30.797  1.00  0.00     0.119 A 
HETATM   34  N   UNL     1      -5.795   1.967 -30.472  1.00  0.00    -0.232 NA
HETATM   35  C   UNL     1      -6.392   3.182 -30.221  1.00  0.00     0.085 A 
HETATM   36  C   UNL     1      -5.498   4.227 -30.431  1.00  0.00     0.062 A 
HETATM   37  C   UNL     1      -7.700   3.474 -29.807  1.00  0.00     0.034 A 
HETATM   38  N   UNL     1      -4.335   3.609 -30.808  1.00  0.00    -0.342 N 
HETATM   39  C   UNL     1      -5.834   5.570 -30.258  1.00  0.00     0.032 A 
HETATM   40  H   UNL     1      -3.468   4.069 -31.051  1.00  0.00     0.167 HD
HETATM   41  C   UNL     1      -7.142   5.843 -29.842  1.00  0.00     0.002 A 
HETATM   42  C   UNL     1      -8.061   4.814 -29.618  1.00  0.00     0.002 A 
ENDBRANCH  32  33
ENDBRANCH  30  32
ENDBRANCH  27  30
ENDBRANCH   3  27
TORSDOF 7
ENDMDL
MODEL 2
REMARK VINA RESULT:      -9.4      4.665      9.469
REMARK  7 active torsions:
REMARK  status: ('A' for Active; 'I' for Inactive)
REMARK    1  A    between atoms: C_3  and  S_4 
REMARK    2  A    between atoms: S_4  and  N_5 
REMARK    3  A    between atoms: N_5  and  C_6 
REMARK    4  A    between atoms: C_6  and  C_7 
REMARK    5  A    between atoms: C_20  and  C_21 
REMARK    6  A    between atoms: C_25  and  N_26 
REMARK    7  A    between atoms: N_26  and  C_27 
ROOT
HETATM    1  C   UNL     1      -9.304   3.252 -30.649  1.00  0.00     0.050 C 
HETATM    2  C   UNL     1      -8.118   4.012 -30.124  1.00  0.00    -0.039 A 
HETATM    3  C   UNL     1      -6.783   3.608 -30.300  1.00  0.00     0.081 A 
HETATM    4  C   UNL     1      -5.735   4.361 -29.739  1.00  0.00     0.039 A 
HETATM    5  C   UNL     1      -5.979   5.557 -29.046  1.00  0.00    -0.003 A 
HETATM    6  C   UNL     1      -7.311   5.948 -28.863  1.00  0.00     0.014 A 
HETATM    7  C   UNL     1      -8.360   5.184 -29.386  1.00  0.00     0.009 A 
ENDROOT
BRANCH   5   8
HETATM    8  C   UNL     1      -4.867   6.354 -28.507  1.00  0.00     0.098 A 
HETATM    9  N   UNL     1      -4.491   5.979 -27.270  1.00  0.00    -0.172 NA
HETATM   10  N   UNL     1      -3.443   6.561 -26.719  1.00  0.00    -0.262 N 
HETATM   11  H   UNL     1      -3.172   6.253 -25.791  1.00  0.00     0.191 HD
HETATM   12  C   UNL     1      -2.712   7.526 -27.303  1.00  0.00     0.129 A 
HETATM   13  C   UNL     1      -3.079   7.947 -28.611  1.00  0.00     0.022 A 
HETATM   14  C   UNL     1      -4.206   7.364 -29.223  1.00  0.00     0.009 A 
HETATM   15  C   UNL     1      -2.350   8.920 -29.341  1.00  0.00     0.016 A 
HETATM   16  C   UNL     1      -4.602   7.818 -30.508  1.00  0.00     0.015 A 
HETATM   17  C   UNL     1      -3.875   8.786 -31.196  1.00  0.00     0.001 A 
HETATM   18  C   UNL     1      -2.741   9.331 -30.616  1.00  0.00     0.001 A 
BRANCH  12  19
HETATM   19  N   UNL     1      -1.590   8.055 -26.668  1.00  0.00    -0.370 N 
HETATM   20  H   UNL     1      -1.856   8.685 -25.908  1.00  0.00     0.161 HD
BRANCH  19  21
HETATM   21  C   UNL     1      -0.352   7.317 -26.384  1.00  0.00     0.083 C 
HETATM   22  C   UNL     1       0.250   6.739 -27.674  1.00  0.00     0.025 C 
HETATM   23  C   UNL     1       0.776   7.820 -28.618  1.00  0.00     0.002 C 
HETATM   24  C   UNL     1       1.774   8.738 -27.920  1.00  0.00     0.000 C 
HETATM   25  C   UNL     1       1.192   9.337 -26.645  1.00  0.00     0.002 C 
HETATM   26  C   UNL     1       0.658   8.257 -25.703  1.00  0.00     0.025 C 
ENDBRANCH  19  21
ENDBRANCH  12  19
ENDBRANCH   5   8
BRANCH   3  27
HETATM   27  S   UNL     1      -6.315   2.140 -31.221  1.00  0.00     0.242 S 
HETATM   28  O   UNL     1      -6.939   1.005 -30.575  1.00  0.00    -0.206 OA
HETATM   29  O   UNL     1      -6.490   2.399 -32.629  1.00  0.00    -0.206 OA
BRANCH  27  30
HETATM   30  N   UNL     1      -4.650   2.073 -30.914  1.00  0.00    -0.208 NA
HETATM   31  H   UNL     1      -4.432   1.305 -30.273  1.00  0.00     0.140 HD
BRANCH  30  32
HETATM   32  C   UNL     1      -3.804   2.048 -32.119  1.00  0.00     0.182 C 
BRANCH  32  33
HETATM   33  C   UNL     1      -3.056   3.331 -32.201  1.00  0.00     0.119 A 
HETATM   34  N   UNL     1      -2.113   3.745 -31.376  1.00  0.00    -0.232 NA
HETATM   35  C   UNL     1      -1.694   4.956 -31.880  1.00  0.00     0.085 A 
HETATM   36  C   UNL     1      -2.421   5.299 -33.016  1.00  0.00     0.062 A 
HETATM   37  C   UNL     1      -0.692   5.825 -31.422  1.00  0.00     0.034 A 
HETATM   38  N   UNL     1      -3.288   4.254 -33.192  1.00  0.00    -0.342 N 
HETATM   39  C   UNL     1      -2.213   6.478 -33.733  1.00  0.00     0.032 A 
HETATM   40  H   UNL     1      -3.981   4.172 -33.924  1.00  0.00     0.167 HD
HETATM   41  C   UNL     1      -1.208   7.331 -33.262  1.00  0.00     0.002 A 
HETATM   42  C   UNL     1      -0.457   7.012 -32.128  1.00  0.00     0.002 A 
ENDBRANCH  32  33
ENDBRANCH  30  32
ENDBRANCH  27  30
ENDBRANCH   3  27
TORSDOF 7
ENDMDL
MODEL 3
REMARK VINA RESULT:      -9.2      4.410      7.546
REMARK  7 active torsions:
REMARK  status: ('A' for Active; 'I' for Inactive)
REMARK    1  A    between atoms: C_3  and  S_4 
REMARK    2  A    between atoms: S_4  and  N_5 
REMARK    3  A    between atoms: N_5  and  C_6 
REMARK    4  A    between atoms: C_6  and  C_7 
REMARK    5  A    between atoms: C_20  and  C_21 
REMARK    6  A    between atoms: C_25  and  N_26 
REMARK    7  A    between atoms: N_26  and  C_27 
ROOT
HETATM    1  C   UNL     1       1.046   8.099 -28.578  1.00  0.00     0.050 C 
HETATM    2  C   UNL     1      -0.011   7.320 -29.310  1.00  0.00    -0.039 A 
HETATM    3  C   UNL     1      -1.242   6.942 -28.747  1.00  0.00     0.081 A 
HETATM    4  C   UNL     1      -2.158   6.179 -29.494  1.00  0.00     0.039 A 
HETATM    5  C   UNL     1      -1.904   5.827 -30.828  1.00  0.00    -0.003 A 
HETATM    6  C   UNL     1      -0.672   6.196 -31.380  1.00  0.00     0.014 A 
HETATM    7  C   UNL     1       0.260   6.923 -30.631  1.00  0.00     0.009 A 
ENDROOT
BRANCH   5   8
HETATM    8  C   UNL     1      -2.895   5.069 -31.608  1.00  0.00     0.098 A 
HETATM    9  N   UNL     1      -2.489   3.824 -31.921  1.00  0.00    -0.172 NA
HETATM   10  N   UNL     1      -3.330   3.017 -32.540  1.00  0.00    -0.262 N 
HETATM   11  H   UNL     1      -3.005   2.081 -32.755  1.00  0.00     0.191 HD
HETATM   12  C   UNL     1      -4.582   3.350 -32.899  1.00  0.00     0.129 A 
HETATM   13  C   UNL     1      -5.045   4.656 -32.584  1.00  0.00     0.022 A 
HETATM   14  C   UNL     1      -4.169   5.554 -31.942  1.00  0.00     0.009 A 
HETATM   15  C   UNL     1      -6.362   5.098 -32.869  1.00  0.00     0.016 A 
HETATM   16  C   UNL     1      -4.614   6.874 -31.670  1.00  0.00     0.015 A 
HETATM   17  C   UNL     1      -5.909   7.284 -31.976  1.00  0.00     0.001 A 
HETATM   18  C   UNL     1      -6.788   6.392 -32.567  1.00  0.00     0.001 A 
BRANCH  12  19
HETATM   19  N   UNL     1      -5.421   2.419 -33.509  1.00  0.00    -0.370 N 
HETATM   20  H   UNL     1      -4.964   1.977 -34.310  1.00  0.00     0.161 HD
BRANCH  19  21
HETATM   21  C   UNL     1      -6.329   1.507 -32.802  1.00  0.00     0.083 C 
HETATM   22  C   UNL     1      -7.649   1.343 -33.570  1.00  0.00     0.025 C 
HETATM   23  C   UNL     1      -7.475   0.599 -34.894  1.00  0.00     0.002 C 
HETATM   24  C   UNL     1      -6.796  -0.751 -34.694  1.00  0.00     0.000 C 
HETATM   25  C   UNL     1      -5.474  -0.612 -33.948  1.00  0.00     0.002 C 
HETATM   26  C   UNL     1      -5.645   0.140 -32.627  1.00  0.00     0.025 C 
ENDBRANCH  19  21
ENDBRANCH  12  19
ENDBRANCH   5   8
BRANCH   3  27
HETATM   27  S   UNL     1      -1.733   7.379 -27.076  1.00  0.00     0.242 S 
HETATM   28  O   UNL     1      -0.693   6.916 -26.183  1.00  0.00    -0.206 OA
HETATM   29  O   UNL     1      -2.183   8.749 -27.067  1.00  0.00    -0.206 OA
BRANCH  27  30
HETATM   30  N   UNL     1      -3.092   6.391 -26.861  1.00  0.00    -0.208 NA
HETATM   31  H   UNL     1      -2.927   5.707 -26.118  1.00  0.00     0.140 HD
BRANCH  30  32
HETATM   32  C   UNL     1      -4.358   7.120 -26.674  1.00  0.00     0.182 C 
BRANCH  32  33
HETATM   33  C   UNL     1      -5.415   6.451 -27.479  1.00  0.00     0.119 A 
HETATM   34  N   UNL     1      -6.615   6.927 -27.751  1.00  0.00    -0.232 NA
HETATM   35  C   UNL     1      -7.209   5.979 -28.554  1.00  0.00     0.085 A 
HETATM   36  C   UNL     1      -6.364   4.891 -28.746  1.00  0.00     0.062 A 
HETATM   37  C   UNL     1      -8.473   5.978 -29.163  1.00  0.00     0.034 A 
HETATM   38  N   UNL     1      -5.233   5.211 -28.042  1.00  0.00    -0.342 N 
HETATM   39  C   UNL     1      -6.708   3.778 -29.514  1.00  0.00     0.032 A 
HETATM   40  H   UNL     1      -4.406   4.637 -27.951  1.00  0.00     0.167 HD
HETATM   41  C   UNL     1      -7.972   3.795 -30.115  1.00  0.00     0.002 A 
HETATM   42  C   UNL     1      -8.841   4.876 -29.945  1.00  0.00     0.002 A 
ENDBRANCH  32  33
ENDBRANCH  30  32
ENDBRANCH  27  30
ENDBRANCH   3  27
TORSDOF 7
ENDMDL
MODEL 4
REMARK VINA RESULT:      -9.1      4.481      7.763
REMARK  7 active torsions:
REMARK  status: ('A' for Active; 'I' for Inactive)
REMARK    1  A    between atoms: C_3  and  S_4 
REMARK    2  A    between atoms: S_4  and  N_5 
REMARK    3  A    between atoms: N_5  and  C_6 
REMARK    4  A    between atoms: C_6  and  C_7 
REMARK    5  A    between atoms: C_20  and  C_21 
REMARK    6  A    between atoms: C_25  and  N_26 
REMARK    7  A    between atoms: N_26  and  C_27 
ROOT
HETATM    1  C   UNL     1      -6.058   9.203 -26.674  1.00  0.00     0.050 C 
HETATM    2  C   UNL     1      -5.880   8.004 -27.563  1.00  0.00    -0.039 A 
HETATM    3  C   UNL     1      -4.647   7.365 -27.785  1.00  0.00     0.081 A 
HETATM    4  C   UNL     1      -4.565   6.271 -28.665  1.00  0.00     0.039 A 
HETATM    5  C   UNL     1      -5.705   5.749 -29.296  1.00  0.00    -0.003 A 
HETATM    6  C   UNL     1      -6.927   6.397 -29.081  1.00  0.00     0.014 A 
HETATM    7  C   UNL     1      -7.010   7.509 -28.236  1.00  0.00     0.009 A 
ENDROOT
BRANCH   5   8
HETATM    8  C   UNL     1      -5.606   4.576 -30.177  1.00  0.00     0.098 A 
HETATM    9  N   UNL     1      -5.753   3.405 -29.527  1.00  0.00    -0.172 NA
HETATM   10  N   UNL     1      -5.775   2.287 -30.226  1.00  0.00    -0.262 N 
HETATM   11  H   UNL     1      -5.898   1.420 -29.715  1.00  0.00     0.191 HD
HETATM   12  C   UNL     1      -5.649   2.220 -31.563  1.00  0.00     0.129 A 
HETATM   13  C   UNL     1      -5.494   3.436 -32.283  1.00  0.00     0.022 A 
HETATM   14  C   UNL     1      -5.444   4.650 -31.569  1.00  0.00     0.009 A 
HETATM   15  C   UNL     1      -5.404   3.489 -33.698  1.00  0.00     0.016 A 
HETATM   16  C   UNL     1      -5.241   5.860 -32.283  1.00  0.00     0.015 A 
HETATM   17  C   UNL     1      -5.140   5.879 -33.672  1.00  0.00     0.001 A 
HETATM   18  C   UNL     1      -5.232   4.693 -34.381  1.00  0.00     0.001 A 
BRANCH  12  19
HETATM   19  N   UNL     1      -5.731   0.998 -32.228  1.00  0.00    -0.370 N 
HETATM   20  H   UNL     1      -4.854   0.477 -32.155  1.00  0.00     0.161 HD
BRANCH  19  21
HETATM   21  C   UNL     1      -6.909   0.122 -32.247  1.00  0.00     0.083 C 
HETATM   22  C   UNL     1      -8.144   0.877 -32.764  1.00  0.00     0.025 C 
HETATM   23  C   UNL     1      -8.038   1.240 -34.244  1.00  0.00     0.002 C 
HETATM   24  C   UNL     1      -7.755   0.015 -35.106  1.00  0.00     0.000 C 
HETATM   25  C   UNL     1      -6.523  -0.742 -34.621  1.00  0.00     0.002 C 
HETATM   26  C   UNL     1      -6.623  -1.099 -33.137  1.00  0.00     0.025 C 
ENDBRANCH  19  21
ENDBRANCH  12  19
ENDBRANCH   5   8
BRANCH   3  27
HETATM   27  S   UNL     1      -3.119   7.878 -26.994  1.00  0.00     0.242 S 
HETATM   28  O   UNL     1      -2.784   9.188 -27.508  1.00  0.00    -0.206 OA
HETATM   29  O   UNL     1      -3.220   7.623 -25.578  1.00  0.00    -0.206 OA
BRANCH  27  30
HETATM   30  N   UNL     1      -2.021   6.761 -27.640  1.00  0.00    -0.208 NA
HETATM   31  H   UNL     1      -2.516   6.014 -28.136  1.00  0.00     0.140 HD
BRANCH  30  32
HETATM   32  C   UNL     1      -0.949   7.355 -28.456  1.00  0.00     0.182 C 
BRANCH  32  33
HETATM   33  C   UNL     1      -1.147   6.944 -29.873  1.00  0.00     0.119 A 
HETATM   34  N   UNL     1      -1.076   7.723 -30.935  1.00  0.00    -0.232 NA
HETATM   35  C   UNL     1      -1.285   6.890 -32.012  1.00  0.00     0.085 A 
HETATM   36  C   UNL     1      -1.521   5.585 -31.591  1.00  0.00     0.062 A 
HETATM   37  C   UNL     1      -1.288   7.177 -33.385  1.00  0.00     0.034 A 
HETATM   38  N   UNL     1      -1.439   5.648 -30.225  1.00  0.00    -0.342 N 
HETATM   39  C   UNL     1      -1.770   4.530 -32.469  1.00  0.00     0.032 A 
HETATM   40  H   UNL     1      -1.569   4.877 -29.585  1.00  0.00     0.167 HD
HETATM   41  C   UNL     1      -1.766   4.834 -33.836  1.00  0.00     0.002 A 
HETATM   42  C   UNL     1      -1.527   6.134 -34.289  1.00  0.00     0.002 A 
ENDBRANCH  32  33
ENDBRANCH  30  32
ENDBRANCH  27  30
ENDBRANCH   3  27
TORSDOF 7
ENDMDL
MODEL 5
REMARK VINA RESULT:      -9.1      3.600      8.797
REMARK  7 active torsions:
REMARK  status: ('A' for Active; 'I' for Inactive)
REMARK    1  A    between atoms: C_3  and  S_4 
REMARK    2  A    between atoms: S_4  and  N_5 
REMARK    3  A    between atoms: N_5  and  C_6 
REMARK    4  A    between atoms: C_6  and  C_7 
REMARK    5  A    between atoms: C_20  and  C_21 
REMARK    6  A    between atoms: C_25  and  N_26 
REMARK    7  A    between atoms: N_26  and  C_27 
ROOT
HETATM    1  C   UNL     1     -10.789   3.164 -34.687  1.00  0.00     0.050 C 
HETATM    2  C   UNL     1      -9.493   3.573 -34.043  1.00  0.00    -0.039 A 
HETATM    3  C   UNL     1      -8.673   2.704 -33.303  1.00  0.00     0.081 A 
HETATM    4  C   UNL     1      -7.495   3.182 -32.702  1.00  0.00     0.039 A 
HETATM    5  C   UNL     1      -7.072   4.510 -32.869  1.00  0.00    -0.003 A 
HETATM    6  C   UNL     1      -7.898   5.374 -33.598  1.00  0.00     0.014 A 
HETATM    7  C   UNL     1      -9.090   4.914 -34.167  1.00  0.00     0.009 A 
ENDROOT
BRANCH   5   8
HETATM    8  C   UNL     1      -5.812   4.980 -32.272  1.00  0.00     0.098 A 
HETATM    9  N   UNL     1      -5.882   5.143 -30.937  1.00  0.00    -0.172 NA
HETATM   10  N   UNL     1      -4.788   5.472 -30.278  1.00  0.00    -0.262 N 
HETATM   11  H   UNL     1      -4.864   5.578 -29.271  1.00  0.00     0.191 HD
HETATM   12  C   UNL     1      -3.587   5.673 -30.846  1.00  0.00     0.129 A 
HETATM   13  C   UNL     1      -3.474   5.509 -32.253  1.00  0.00     0.022 A 
HETATM   14  C   UNL     1      -4.626   5.178 -32.995  1.00  0.00     0.009 A 
HETATM   15  C   UNL     1      -2.247   5.645 -32.951  1.00  0.00     0.016 A 
HETATM   16  C   UNL     1      -4.525   5.062 -34.405  1.00  0.00     0.015 A 
HETATM   17  C   UNL     1      -3.309   5.216 -35.066  1.00  0.00     0.001 A 
HETATM   18  C   UNL     1      -2.166   5.499 -34.336  1.00  0.00     0.001 A 
BRANCH  12  19
HETATM   19  N   UNL     1      -2.470   5.973 -30.067  1.00  0.00    -0.370 N 
HETATM   20  H   UNL     1      -1.645   5.462 -30.389  1.00  0.00     0.161 HD
BRANCH  19  21
HETATM   21  C   UNL     1      -2.141   7.303 -29.539  1.00  0.00     0.083 C 
HETATM   22  C   UNL     1      -1.767   7.224 -28.050  1.00  0.00     0.025 C 
HETATM   23  C   UNL     1      -0.449   6.489 -27.809  1.00  0.00     0.002 C 
HETATM   24  C   UNL     1       0.690   7.097 -28.619  1.00  0.00     0.000 C 
HETATM   25  C   UNL     1       0.349   7.171 -30.103  1.00  0.00     0.002 C 
HETATM   26  C   UNL     1      -0.974   7.899 -30.346  1.00  0.00     0.025 C 
ENDBRANCH  19  21
ENDBRANCH  12  19
ENDBRANCH   5   8
BRANCH   3  27
HETATM   27  S   UNL     1      -9.050   0.965 -33.062  1.00  0.00     0.242 S 
HETATM   28  O   UNL     1      -8.248   0.497 -31.952  1.00  0.00    -0.206 OA
HETATM   29  O   UNL     1     -10.481   0.792 -33.086  1.00  0.00    -0.206 OA
BRANCH  27  30
HETATM   30  N   UNL     1      -8.427   0.291 -34.486  1.00  0.00    -0.208 NA
HETATM   31  H   UNL     1      -8.974   0.590 -35.297  1.00  0.00     0.140 HD
BRANCH  30  32
HETATM   32  C   UNL     1      -6.982   0.500 -34.683  1.00  0.00     0.182 C 
BRANCH  32  33
HETATM   33  C   UNL     1      -6.289  -0.810 -34.546  1.00  0.00     0.119 A 
HETATM   34  N   UNL     1      -5.093  -1.016 -34.029  1.00  0.00    -0.232 NA
HETATM   35  C   UNL     1      -4.905  -2.379 -34.079  1.00  0.00     0.085 A 
HETATM   36  C   UNL     1      -5.996  -3.009 -34.669  1.00  0.00     0.062 A 
HETATM   37  C   UNL     1      -3.824  -3.156 -33.637  1.00  0.00     0.034 A 
HETATM   38  N   UNL     1      -6.858  -1.988 -34.967  1.00  0.00    -0.342 N 
HETATM   39  C   UNL     1      -6.076  -4.390 -34.856  1.00  0.00     0.032 A 
HETATM   40  H   UNL     1      -7.758  -2.081 -35.418  1.00  0.00     0.167 HD
HETATM   41  C   UNL     1      -4.990  -5.150 -34.406  1.00  0.00     0.002 A 
HETATM   42  C   UNL     1      -3.882  -4.546 -33.805  1.00  0.00     0.002 A 
ENDBRANCH  32  33
ENDBRANCH  30  32
ENDBRANCH  27  30
ENDBRANCH   3  27
TORSDOF 7
ENDMDL
MODEL 6
REMARK VINA RESULT:      -9.0      2.780      6.545
REMARK  7 active torsions:
REMARK  status: ('A' for Active; 'I' for Inactive)
REMARK    1  A    between atoms: C_3  and  S_4 
REMARK    2  A    between atoms: S_4  and  N_5 
REMARK    3  A    between atoms: N_5  and  C_6 
REMARK    4  A    between atoms: C_6  and  C_7 
REMARK    5  A    between atoms: C_20  and  C_21 
REMARK    6  A    between atoms: C_25  and  N_26 
REMARK    7  A    between atoms: N_26  and  C_27 
ROOT
HETATM    1  C   UNL     1      -3.779  -3.956 -33.275  1.00  0.00     0.050 C 
HETATM    2  C   UNL     1      -3.883  -2.517 -32.853  1.00  0.00    -0.039 A 
HETATM    3  C   UNL     1      -4.803  -1.602 -33.395  1.00  0.00     0.081 A 
HETATM    4  C   UNL     1      -4.805  -0.262 -32.967  1.00  0.00     0.039 A 
HETATM    5  C   UNL     1      -3.943   0.187 -31.955  1.00  0.00    -0.003 A 
HETATM    6  C   UNL     1      -3.021  -0.725 -31.427  1.00  0.00     0.014 A 
HETATM    7  C   UNL     1      -2.988  -2.050 -31.874  1.00  0.00     0.009 A 
ENDROOT
BRANCH   5   8
HETATM    8  C   UNL     1      -3.992   1.581 -31.489  1.00  0.00     0.098 A 
HETATM    9  N   UNL     1      -2.853   2.263 -31.719  1.00  0.00    -0.172 NA
HETATM   10  N   UNL     1      -2.811   3.548 -31.427  1.00  0.00    -0.262 N 
HETATM   11  H   UNL     1      -1.946   4.042 -31.620  1.00  0.00     0.191 HD
HETATM   12  C   UNL     1      -3.832   4.245 -30.897  1.00  0.00     0.129 A 
HETATM   13  C   UNL     1      -5.050   3.558 -30.642  1.00  0.00     0.022 A 
HETATM   14  C   UNL     1      -5.127   2.179 -30.920  1.00  0.00     0.009 A 
HETATM   15  C   UNL     1      -6.207   4.203 -30.133  1.00  0.00     0.016 A 
HETATM   16  C   UNL     1      -6.327   1.483 -30.620  1.00  0.00     0.015 A 
HETATM   17  C   UNL     1      -7.443   2.140 -30.106  1.00  0.00     0.001 A 
HETATM   18  C   UNL     1      -7.386   3.504 -29.871  1.00  0.00     0.001 A 
BRANCH  12  19
HETATM   19  N   UNL     1      -3.717   5.614 -30.663  1.00  0.00    -0.370 N 
HETATM   20  H   UNL     1      -2.836   5.837 -30.193  1.00  0.00     0.161 HD
BRANCH  19  21
HETATM   21  C   UNL     1      -4.147   6.669 -31.588  1.00  0.00     0.083 C 
HETATM   22  C   UNL     1      -4.260   8.020 -30.864  1.00  0.00     0.025 C 
HETATM   23  C   UNL     1      -2.904   8.568 -30.420  1.00  0.00     0.002 C 
HETATM   24  C   UNL     1      -1.926   8.661 -31.585  1.00  0.00     0.000 C 
HETATM   25  C   UNL     1      -1.784   7.327 -32.310  1.00  0.00     0.002 C 
HETATM   26  C   UNL     1      -3.141   6.773 -32.748  1.00  0.00     0.025 C 
ENDBRANCH  19  21
ENDBRANCH  12  19
ENDBRANCH   5   8
BRANCH   3  27
HETATM   27  S   UNL     1      -6.011  -2.049 -34.645  1.00  0.00     0.242 S 
HETATM   28  O   UNL     1      -5.299  -2.701 -35.723  1.00  0.00    -0.206 OA
HETATM   29  O   UNL     1      -7.140  -2.672 -34.000  1.00  0.00    -0.206 OA
BRANCH  27  30
HETATM   30  N   UNL     1      -6.507  -0.522 -35.188  1.00  0.00    -0.208 NA
HETATM   31  H   UNL     1      -6.434  -0.460 -36.207  1.00  0.00     0.140 HD
BRANCH  30  32
HETATM   32  C   UNL     1      -7.829  -0.097 -34.698  1.00  0.00     0.182 C 
BRANCH  32  33
HETATM   33  C   UNL     1      -7.746   1.330 -34.284  1.00  0.00     0.119 A 
HETATM   34  N   UNL     1      -6.693   2.118 -34.387  1.00  0.00    -0.232 NA
HETATM   35  C   UNL     1      -7.109   3.344 -33.919  1.00  0.00     0.085 A 
HETATM   36  C   UNL     1      -8.432   3.290 -33.493  1.00  0.00     0.062 A 
HETATM   37  C   UNL     1      -6.411   4.558 -33.828  1.00  0.00     0.034 A 
HETATM   38  N   UNL     1      -8.811   1.994 -33.726  1.00  0.00    -0.342 N 
HETATM   39  C   UNL     1      -9.115   4.387 -32.966  1.00  0.00     0.032 A 
HETATM   40  H   UNL     1      -9.717   1.593 -33.524  1.00  0.00     0.167 HD
HETATM   41  C   UNL     1      -8.403   5.590 -32.885  1.00  0.00     0.002 A 
HETATM   42  C   UNL     1      -7.075   5.677 -33.310  1.00  0.00     0.002 A 
ENDBRANCH  32  33
ENDBRANCH  30  32
ENDBRANCH  27  30
ENDBRANCH   3  27
TORSDOF 7
ENDMDL
MODEL 7
REMARK VINA RESULT:      -9.0      3.802      8.041
REMARK  7 active torsions:
REMARK  status: ('A' for Active; 'I' for Inactive)
REMARK    1  A    between atoms: C_3  and  S_4 
REMARK    2  A    between atoms: S_4  and  N_5 
REMARK    3  A    between atoms: N_5  and  C_6 
REMARK    4  A    between atoms: C_6  and  C_7 
REMARK    5  A    between atoms: C_20  and  C_21 
REMARK    6  A    between atoms: C_25  and  N_26 
REMARK    7  A    between atoms: N_26  and  C_27 
ROOT
HETATM    1  C   UNL     1     -12.887   5.283 -35.308  1.00  0.00     0.050 C 
HETATM    2  C   UNL     1     -11.483   5.052 -34.824  1.00  0.00    -0.039 A 
HETATM    3  C   UNL     1     -10.960   3.788 -34.501  1.00  0.00     0.081 A 
HETATM    4  C   UNL     1      -9.645   3.668 -34.016  1.00  0.00     0.039 A 
HETATM    5  C   UNL     1      -8.801   4.783 -33.899  1.00  0.00    -0.003 A 
HETATM    6  C   UNL     1      -9.330   6.041 -34.211  1.00  0.00     0.014 A 
HETATM    7  C   UNL     1     -10.650   6.172 -34.657  1.00  0.00     0.009 A 
ENDROOT
BRANCH   5   8
HETATM    8  C   UNL     1      -7.414   4.631 -33.435  1.00  0.00     0.098 A 
HETATM    9  N   UNL     1      -6.502   4.801 -34.412  1.00  0.00    -0.172 NA
HETATM   10  N   UNL     1      -5.221   4.780 -34.097  1.00  0.00    -0.262 N 
HETATM   11  H   UNL     1      -4.554   4.921 -34.848  1.00  0.00     0.191 HD
HETATM   12  C   UNL     1      -4.743   4.587 -32.855  1.00  0.00     0.129 A 
HETATM   13  C   UNL     1      -5.676   4.405 -31.799  1.00  0.00     0.022 A 
HETATM   14  C   UNL     1      -7.053   4.400 -32.098  1.00  0.00     0.009 A 
HETATM   15  C   UNL     1      -5.287   4.245 -30.444  1.00  0.00     0.016 A 
HETATM   16  C   UNL     1      -7.984   4.171 -31.052  1.00  0.00     0.015 A 
HETATM   17  C   UNL     1      -7.572   4.001 -29.733  1.00  0.00     0.001 A 
HETATM   18  C   UNL     1      -6.221   4.048 -29.427  1.00  0.00     0.001 A 
BRANCH  12  19
HETATM   19  N   UNL     1      -3.373   4.625 -32.603  1.00  0.00    -0.370 N 
HETATM   20  H   UNL     1      -2.938   3.717 -32.779  1.00  0.00     0.161 HD
BRANCH  19  21
HETATM   21  C   UNL     1      -2.485   5.749 -32.926  1.00  0.00     0.083 C 
HETATM   22  C   UNL     1      -2.883   7.006 -32.136  1.00  0.00     0.025 C 
HETATM   23  C   UNL     1      -2.629   6.867 -30.635  1.00  0.00     0.002 C 
HETATM   24  C   UNL     1      -1.183   6.481 -30.343  1.00  0.00     0.000 C 
HETATM   25  C   UNL     1      -0.770   5.226 -31.104  1.00  0.00     0.002 C 
HETATM   26  C   UNL     1      -1.031   5.360 -32.605  1.00  0.00     0.025 C 
ENDBRANCH  19  21
ENDBRANCH  12  19
ENDBRANCH   5   8
BRANCH   3  27
HETATM   27  S   UNL     1     -11.898   2.266 -34.666  1.00  0.00     0.242 S 
HETATM   28  O   UNL     1     -12.749   2.152 -33.501  1.00  0.00    -0.206 OA
HETATM   29  O   UNL     1     -12.433   2.192 -36.003  1.00  0.00    -0.206 OA
BRANCH  27  30
HETATM   30  N   UNL     1     -10.671   1.105 -34.539  1.00  0.00    -0.208 NA
HETATM   31  H   UNL     1      -9.779   1.484 -34.869  1.00  0.00     0.140 HD
BRANCH  30  32
HETATM   32  C   UNL     1     -10.551   0.480 -33.210  1.00  0.00     0.182 C 
BRANCH  32  33
HETATM   33  C   UNL     1      -9.123   0.517 -32.795  1.00  0.00     0.119 A 
HETATM   34  N   UNL     1      -8.079   0.686 -33.584  1.00  0.00    -0.232 NA
HETATM   35  C   UNL     1      -6.986   0.691 -32.746  1.00  0.00     0.085 A 
HETATM   36  C   UNL     1      -7.373   0.487 -31.426  1.00  0.00     0.062 A 
HETATM   37  C   UNL     1      -5.626   0.866 -33.041  1.00  0.00     0.034 A 
HETATM   38  N   UNL     1      -8.736   0.368 -31.485  1.00  0.00    -0.342 N 
HETATM   39  C   UNL     1      -6.472   0.439 -30.361  1.00  0.00     0.032 A 
HETATM   40  H   UNL     1      -9.354   0.200 -30.703  1.00  0.00     0.167 HD
HETATM   41  C   UNL     1      -5.119   0.618 -30.673  1.00  0.00     0.002 A 
HETATM   42  C   UNL     1      -4.701   0.830 -31.989  1.00  0.00     0.002 A 
ENDBRANCH  32  33
ENDBRANCH  30  32
ENDBRANCH  27  30
ENDBRANCH   3  27
TORSDOF 7
ENDMDL
MODEL 8
REMARK VINA RESULT:      -9.0      3.326      5.202
REMARK  7 active torsions:
REMARK  status: ('A' for Active; 'I' for Inactive)
REMARK    1  A    between atoms: C_3  and  S_4 
REMARK    2  A    between atoms: S_4  and  N_5 
REMARK    3  A    between atoms: N_5  and  C_6 
REMARK    4  A    between atoms: C_6  and  C_7 
REMARK    5  A    between atoms: C_20  and  C_21 
REMARK    6  A    between atoms: C_25  and  N_26 
REMARK    7  A    between atoms: N_26  and  C_27 
ROOT
HETATM    1  C   UNL     1      -1.287   6.800 -33.745  1.00  0.00     0.050 C 
HETATM    2  C   UNL     1      -2.662   6.191 -33.759  1.00  0.00    -0.039 A 
HETATM    3  C   UNL     1      -3.578   6.291 -32.698  1.00  0.00     0.081 A 
HETATM    4  C   UNL     1      -4.830   5.655 -32.781  1.00  0.00     0.039 A 
HETATM    5  C   UNL     1      -5.226   4.960 -33.934  1.00  0.00    -0.003 A 
HETATM    6  C   UNL     1      -4.305   4.853 -34.983  1.00  0.00     0.014 A 
HETATM    7  C   UNL     1      -3.043   5.451 -34.892  1.00  0.00     0.009 A 
ENDROOT
BRANCH   5   8
HETATM    8  C   UNL     1      -6.557   4.342 -34.020  1.00  0.00     0.098 A 
HETATM    9  N   UNL     1      -7.559   5.238 -34.104  1.00  0.00    -0.172 NA
HETATM   10  N   UNL     1      -8.791   4.801 -34.278  1.00  0.00    -0.262 N 
HETATM   11  H   UNL     1      -9.527   5.496 -34.350  1.00  0.00     0.191 HD
HETATM   12  C   UNL     1      -9.136   3.505 -34.370  1.00  0.00     0.129 A 
HETATM   13  C   UNL     1      -8.105   2.530 -34.286  1.00  0.00     0.022 A 
HETATM   14  C   UNL     1      -6.778   2.957 -34.079  1.00  0.00     0.009 A 
HETATM   15  C   UNL     1      -8.345   1.139 -34.421  1.00  0.00     0.016 A 
HETATM   16  C   UNL     1      -5.755   1.982 -33.947  1.00  0.00     0.015 A 
HETATM   17  C   UNL     1      -6.023   0.621 -34.069  1.00  0.00     0.001 A 
HETATM   18  C   UNL     1      -7.319   0.199 -34.316  1.00  0.00     0.001 A 
BRANCH  12  19
HETATM   19  N   UNL     1     -10.459   3.132 -34.601  1.00  0.00    -0.370 N 
HETATM   20  H   UNL     1     -10.512   2.314 -35.212  1.00  0.00     0.161 HD
BRANCH  19  21
HETATM   21  C   UNL     1     -11.533   3.161 -33.600  1.00  0.00     0.083 C 
HETATM   22  C   UNL     1     -12.909   3.260 -34.276  1.00  0.00     0.025 C 
HETATM   23  C   UNL     1     -13.279   1.996 -35.052  1.00  0.00     0.002 C 
HETATM   24  C   UNL     1     -13.198   0.753 -34.174  1.00  0.00     0.000 C 
HETATM   25  C   UNL     1     -11.834   0.624 -33.504  1.00  0.00     0.002 C 
HETATM   26  C   UNL     1     -11.458   1.891 -32.734  1.00  0.00     0.025 C 
ENDBRANCH  19  21
ENDBRANCH  12  19
ENDBRANCH   5   8
BRANCH   3  27
HETATM   27  S   UNL     1      -3.238   7.205 -31.191  1.00  0.00     0.242 S 
HETATM   28  O   UNL     1      -2.362   6.390 -30.377  1.00  0.00    -0.206 OA
HETATM   29  O   UNL     1      -2.902   8.564 -31.536  1.00  0.00    -0.206 OA
BRANCH  27  30
HETATM   30  N   UNL     1      -4.768   7.223 -30.463  1.00  0.00    -0.208 NA
HETATM   31  H   UNL     1      -5.497   7.007 -31.148  1.00  0.00     0.140 HD
BRANCH  30  32
HETATM   32  C   UNL     1      -4.882   6.394 -29.251  1.00  0.00     0.182 C 
BRANCH  32  33
HETATM   33  C   UNL     1      -5.604   5.141 -29.599  1.00  0.00     0.119 A 
HETATM   34  N   UNL     1      -6.881   5.031 -29.914  1.00  0.00    -0.232 NA
HETATM   35  C   UNL     1      -7.073   3.697 -30.195  1.00  0.00     0.085 A 
HETATM   36  C   UNL     1      -5.896   2.978 -30.014  1.00  0.00     0.062 A 
HETATM   37  C   UNL     1      -8.229   3.022 -30.614  1.00  0.00     0.034 A 
HETATM   38  N   UNL     1      -4.979   3.918 -29.624  1.00  0.00    -0.342 N 
HETATM   39  C   UNL     1      -5.798   1.601 -30.222  1.00  0.00     0.032 A 
HETATM   40  H   UNL     1      -4.010   3.745 -29.395  1.00  0.00     0.167 HD
HETATM   41  C   UNL     1      -6.961   0.945 -30.643  1.00  0.00     0.002 A 
HETATM   42  C   UNL     1      -8.157   1.641 -30.837  1.00  0.00     0.002 A 
ENDBRANCH  32  33
ENDBRANCH  30  32
ENDBRANCH  27  30
ENDBRANCH   3  27
TORSDOF 7
ENDMDL
MODEL 9
REMARK VINA RESULT:      -8.9      4.665     10.076
REMARK  7 active torsions:
REMARK  status: ('A' for Active; 'I' for Inactive)
REMARK    1  A    between atoms: C_3  and  S_4 
REMARK    2  A    between atoms: S_4  and  N_5 
REMARK    3  A    between atoms: N_5  and  C_6 
REMARK    4  A    between atoms: C_6  and  C_7 
REMARK    5  A    between atoms: C_20  and  C_21 
REMARK    6  A    between atoms: C_25  and  N_26 
REMARK    7  A    between atoms: N_26  and  C_27 
ROOT
HETATM    1  C   UNL     1      -7.795   3.995 -33.679  1.00  0.00     0.050 C 
HETATM    2  C   UNL     1      -6.691   4.514 -32.800  1.00  0.00    -0.039 A 
HETATM    3  C   UNL     1      -6.196   3.834 -31.673  1.00  0.00     0.081 A 
HETATM    4  C   UNL     1      -5.186   4.413 -30.884  1.00  0.00     0.039 A 
HETATM    5  C   UNL     1      -4.602   5.643 -31.224  1.00  0.00    -0.003 A 
HETATM    6  C   UNL     1      -5.106   6.321 -32.340  1.00  0.00     0.014 A 
HETATM    7  C   UNL     1      -6.137   5.769 -33.109  1.00  0.00     0.009 A 
ENDROOT
BRANCH   5   8
HETATM    8  C   UNL     1      -3.515   6.210 -30.412  1.00  0.00     0.098 A 
HETATM    9  N   UNL     1      -3.949   6.860 -29.315  1.00  0.00    -0.172 NA
HETATM   10  N   UNL     1      -3.061   7.331 -28.462  1.00  0.00    -0.262 N 
HETATM   11  H   UNL     1      -3.413   7.806 -27.638  1.00  0.00     0.191 HD
HETATM   12  C   UNL     1      -1.729   7.222 -28.608  1.00  0.00     0.129 A 
HETATM   13  C   UNL     1      -1.234   6.542 -29.754  1.00  0.00     0.022 A 
HETATM   14  C   UNL     1      -2.151   6.043 -30.700  1.00  0.00     0.009 A 
HETATM   15  C   UNL     1       0.148   6.324 -29.984  1.00  0.00     0.016 A 
HETATM   16  C   UNL     1      -1.657   5.406 -31.868  1.00  0.00     0.015 A 
HETATM   17  C   UNL     1      -0.292   5.219 -32.075  1.00  0.00     0.001 A 
HETATM   18  C   UNL     1       0.612   5.670 -31.127  1.00  0.00     0.001 A 
BRANCH  12  19
HETATM   19  N   UNL     1      -0.861   7.710 -27.633  1.00  0.00    -0.370 N 
HETATM   20  H   UNL     1      -0.317   6.954 -27.209  1.00  0.00     0.161 HD
BRANCH  19  21
HETATM   21  C   UNL     1      -0.109   8.968 -27.722  1.00  0.00     0.083 C 
HETATM   22  C   UNL     1      -0.483   9.913 -26.569  1.00  0.00     0.025 C 
HETATM   23  C   UNL     1      -0.017   9.400 -25.208  1.00  0.00     0.002 C 
HETATM   24  C   UNL     1       1.480   9.107 -25.200  1.00  0.00     0.000 C 
HETATM   25  C   UNL     1       1.873   8.156 -26.325  1.00  0.00     0.002 C 
HETATM   26  C   UNL     1       1.399   8.664 -27.689  1.00  0.00     0.025 C 
ENDBRANCH  19  21
ENDBRANCH  12  19
ENDBRANCH   5   8
BRANCH   3  27
HETATM   27  S   UNL     1      -6.797   2.224 -31.156  1.00  0.00     0.242 S 
HETATM   28  O   UNL     1      -5.842   1.687 -30.210  1.00  0.00    -0.206 OA
HETATM   29  O   UNL     1      -8.199   2.331 -30.836  1.00  0.00    -0.206 OA
BRANCH  27  30
HETATM   30  N   UNL     1      -6.665   1.342 -32.597  1.00  0.00    -0.208 NA
HETATM   31  H   UNL     1      -7.156   1.818 -33.358  1.00  0.00     0.140 HD
BRANCH  30  32
HETATM   32  C   UNL     1      -5.287   0.976 -32.968  1.00  0.00     0.182 C 
BRANCH  32  33
HETATM   33  C   UNL     1      -5.279  -0.440 -33.425  1.00  0.00     0.119 A 
HETATM   34  N   UNL     1      -4.254  -1.271 -33.389  1.00  0.00    -0.232 NA
HETATM   35  C   UNL     1      -4.739  -2.466 -33.872  1.00  0.00     0.085 A 
HETATM   36  C   UNL     1      -6.076  -2.348 -34.238  1.00  0.00     0.062 A 
HETATM   37  C   UNL     1      -4.095  -3.703 -34.026  1.00  0.00     0.034 A 
HETATM   38  N   UNL     1      -6.392  -1.046 -33.954  1.00  0.00    -0.342 N 
HETATM   39  C   UNL     1      -6.823  -3.402 -34.765  1.00  0.00     0.032 A 
HETATM   40  H   UNL     1      -7.289  -0.605 -34.106  1.00  0.00     0.167 HD
HETATM   41  C   UNL     1      -6.165  -4.629 -34.910  1.00  0.00     0.002 A 
HETATM   42  C   UNL     1      -4.824  -4.780 -34.546  1.00  0.00     0.002 A 
ENDBRANCH  32  33
ENDBRANCH  30  32
ENDBRANCH  27  30
ENDBRANCH   3  27
TORSDOF 7
ENDMDL
MODEL 10
REMARK VINA RESULT:      -8.9      3.478      8.258
REMARK  7 active torsions:
REMARK  status: ('A' for Active; 'I' for Inactive)
REMARK    1  A    between atoms: C_3  and  S_4 
REMARK    2  A    between atoms: S_4  and  N_5 
REMARK    3  A    between atoms: N_5  and  C_6 
REMARK    4  A    between atoms: C_6  and  C_7 
REMARK    5  A    between atoms: C_20  and  C_21 
REMARK    6  A    between atoms: C_25  and  N_26 
REMARK    7  A    between atoms: N_26  and  C_27 
ROOT
HETATM    1  C   UNL     1      -5.150  -1.618 -33.576  1.00  0.00     0.050 C 
HETATM    2  C   UNL     1      -4.885  -0.193 -33.176  1.00  0.00    -0.039 A 
HETATM    3  C   UNL     1      -5.758   0.875 -33.446  1.00  0.00     0.081 A 
HETATM    4  C   UNL     1      -5.411   2.186 -33.069  1.00  0.00     0.039 A 
HETATM    5  C   UNL     1      -4.228   2.459 -32.366  1.00  0.00    -0.003 A 
HETATM    6  C   UNL     1      -3.357   1.393 -32.110  1.00  0.00     0.014 A 
HETATM    7  C   UNL     1      -3.678   0.093 -32.515  1.00  0.00     0.009 A 
ENDROOT
BRANCH   5   8
HETATM    8  C   UNL     1      -3.905   3.829 -31.940  1.00  0.00     0.098 A 
HETATM    9  N   UNL     1      -4.476   4.173 -30.769  1.00  0.00    -0.172 NA
HETATM   10  N   UNL     1      -4.186   5.345 -30.240  1.00  0.00    -0.262 N 
HETATM   11  H   UNL     1      -4.619   5.577 -29.352  1.00  0.00     0.191 HD
HETATM   12  C   UNL     1      -3.356   6.248 -30.792  1.00  0.00     0.129 A 
HETATM   13  C   UNL     1      -2.734   5.919 -32.027  1.00  0.00     0.022 A 
HETATM   14  C   UNL     1      -3.037   4.684 -32.635  1.00  0.00     0.009 A 
HETATM   15  C   UNL     1      -1.804   6.772 -32.674  1.00  0.00     0.016 A 
HETATM   16  C   UNL     1      -2.454   4.375 -33.892  1.00  0.00     0.015 A 
HETATM   17  C   UNL     1      -1.554   5.240 -34.511  1.00  0.00     0.001 A 
HETATM   18  C   UNL     1      -1.221   6.436 -33.897  1.00  0.00     0.001 A 
BRANCH  12  19
HETATM   19  N   UNL     1      -3.068   7.446 -30.140  1.00  0.00    -0.370 N 
HETATM   20  H   UNL     1      -3.463   8.245 -30.642  1.00  0.00     0.161 HD
BRANCH  19  21
HETATM   21  C   UNL     1      -3.065   7.637 -28.685  1.00  0.00     0.083 C 
HETATM   22  C   UNL     1      -1.763   7.105 -28.065  1.00  0.00     0.025 C 
HETATM   23  C   UNL     1      -0.539   7.929 -28.462  1.00  0.00     0.002 C 
HETATM   24  C   UNL     1      -0.726   9.407 -28.136  1.00  0.00     0.000 C 
HETATM   25  C   UNL     1      -2.005   9.962 -28.755  1.00  0.00     0.002 C 
HETATM   26  C   UNL     1      -3.230   9.133 -28.366  1.00  0.00     0.025 C 
ENDBRANCH  19  21
ENDBRANCH  12  19
ENDBRANCH   5   8
BRANCH   3  27
HETATM   27  S   UNL     1      -7.336   0.668 -34.275  1.00  0.00     0.242 S 
HETATM   28  O   UNL     1      -7.084   0.690 -35.700  1.00  0.00    -0.206 OA
HETATM   29  O   UNL     1      -8.051  -0.418 -33.651  1.00  0.00    -0.206 OA
BRANCH  27  30
HETATM   30  N   UNL     1      -8.123   2.109 -33.856  1.00  0.00    -0.208 NA
HETATM   31  H   UNL     1      -8.687   2.453 -34.637  1.00  0.00     0.140 HD
BRANCH  30  32
HETATM   32  C   UNL     1      -8.892   2.045 -32.601  1.00  0.00     0.182 C 
BRANCH  32  33
HETATM   33  C   UNL     1     -10.318   1.776 -32.931  1.00  0.00     0.119 A 
HETATM   34  N   UNL     1     -11.260   2.676 -33.141  1.00  0.00    -0.232 NA
HETATM   35  C   UNL     1     -12.390   1.954 -33.453  1.00  0.00     0.085 A 
HETATM   36  C   UNL     1     -12.136   0.587 -33.398  1.00  0.00     0.062 A 
HETATM   37  C   UNL     1     -13.676   2.397 -33.796  1.00  0.00     0.034 A 
HETATM   38  N   UNL     1     -10.813   0.500 -33.053  1.00  0.00    -0.342 N 
HETATM   39  C   UNL     1     -13.103  -0.384 -33.663  1.00  0.00     0.032 A 
HETATM   40  H   UNL     1     -10.289  -0.353 -32.913  1.00  0.00     0.167 HD
HETATM   41  C   UNL     1     -14.379   0.077 -34.006  1.00  0.00     0.002 A 
HETATM   42  C   UNL     1     -14.663   1.443 -34.074  1.00  0.00     0.002 A 
ENDBRANCH  32  33
ENDBRANCH  30  32
ENDBRANCH  27  30
ENDBRANCH   3  27
TORSDOF 7
ENDMDL
