MODEL 1
REMARK VINA RESULT:      -9.2      0.000      0.000
REMARK  4 active torsions:
REMARK  status: ('A' for Active; 'I' for Inactive)
REMARK       I    between atoms: N_6  and  C_7 
REMARK    1  A    between atoms: C_7  and  C_8 
REMARK    2  A    between atoms: C_9  and  N_10 
REMARK       I    between atoms: N_10  and  C_11 
REMARK    3  A    between atoms: C_11  and  C_12 
REMARK    4  A    between atoms: N_20  and  C_21 
ROOT
HETATM    1  C   UNL     1      -6.467   3.693 -32.136  1.00  0.00     0.097 A 
HETATM    2  C   UNL     1      -7.167   2.716 -32.832  1.00  0.00     0.149 A 
HETATM    3  N   UNL     1      -8.460   3.208 -33.033  1.00  0.00    -0.217 N 
HETATM    4  N   UNL     1      -8.552   4.501 -32.633  1.00  0.00    -0.177 NA
HETATM    5  C   UNL     1      -7.363   4.784 -32.114  1.00  0.00     0.160 A 
ENDROOT
BRANCH   2   6
HETATM    6  N   UNL     1      -6.666   1.513 -33.322  1.00  0.00    -0.306 N 
HETATM    7  C   UNL     1      -6.516   0.348 -32.500  1.00  0.00     0.258 C 
HETATM    8  O   UNL     1      -6.906   0.348 -31.342  1.00  0.00    -0.267 OA
HETATM    9  H   UNL     1      -6.524   1.439 -34.326  1.00  0.00     0.170 HD
BRANCH   7  10
HETATM   10  C   UNL     1      -6.126  -0.872 -33.236  1.00  0.00     0.049 A 
HETATM   11  C   UNL     1      -4.791  -1.242 -33.435  1.00  0.00     0.026 A 
HETATM   12 BR   UNL     1      -3.339  -0.324 -32.632  1.00  0.00    -0.050 Br
HETATM   13  C   UNL     1      -4.493  -2.340 -34.247  1.00  0.00     0.020 A 
HETATM   14  C   UNL     1      -5.521  -3.061 -34.859  1.00  0.00     0.001 A 
HETATM   15  C   UNL     1      -6.852  -2.700 -34.649  1.00  0.00     0.001 A 
HETATM   16  C   UNL     1      -7.158  -1.611 -33.833  1.00  0.00     0.018 A 
ENDBRANCH   7  10
ENDBRANCH   2   6
BRANCH   1  17
HETATM   17  C   UNL     1      -5.077   3.680 -31.723  1.00  0.00     0.259 C 
HETATM   18  N   UNL     1      -4.090   3.862 -32.702  1.00  0.00    -0.345 N 
HETATM   19  C   UNL     1      -2.692   3.625 -32.315  1.00  0.00     0.154 C 
HETATM   20  C   UNL     1      -4.259   4.681 -33.912  1.00  0.00     0.154 C 
HETATM   21  C   UNL     1      -1.928   4.948 -32.141  1.00  0.00     0.254 C 
HETATM   22  N   UNL     1      -2.035   5.763 -33.432  1.00  0.00    -0.072 N 
HETATM   23  C   UNL     1      -1.245   7.039 -33.358  1.00  0.00     0.269 C 
HETATM   24  H   UNL     1      -1.612   5.201 -34.184  1.00  0.00     0.279 HD
HETATM   25  C   UNL     1      -3.491   6.016 -33.805  1.00  0.00     0.254 C 
HETATM   26  O   UNL     1      -4.768   3.478 -30.550  1.00  0.00    -0.267 OA
ENDBRANCH   1  17
BRANCH   3  27
HETATM   27  C   UNL     1      -9.620   2.521 -33.508  1.00  0.00     0.060 A 
HETATM   28  C   UNL     1     -10.031   1.291 -32.974  1.00  0.00     0.031 A 
HETATM   29  C   UNL     1     -11.180   0.658 -33.461  1.00  0.00     0.002 A 
HETATM   30  C   UNL     1     -11.937   1.253 -34.464  1.00  0.00     0.000 A 
HETATM   31  C   UNL     1     -11.552   2.487 -34.983  1.00  0.00     0.002 A 
HETATM   32  C   UNL     1     -10.402   3.120 -34.509  1.00  0.00     0.031 A 
ENDBRANCH   3  27
TORSDOF 4
ENDMDL
MODEL 2
REMARK VINA RESULT:      -9.1      2.216      6.253
REMARK  4 active torsions:
REMARK  status: ('A' for Active; 'I' for Inactive)
REMARK       I    between atoms: N_6  and  C_7 
REMARK    1  A    between atoms: C_7  and  C_8 
REMARK    2  A    between atoms: C_9  and  N_10 
REMARK       I    between atoms: N_10  and  C_11 
REMARK    3  A    between atoms: C_11  and  C_12 
REMARK    4  A    between atoms: N_20  and  C_21 
ROOT
HETATM    1  C   UNL     1      -7.963   4.477 -33.742  1.00  0.00     0.097 A 
HETATM    2  C   UNL     1      -6.705   3.893 -33.816  1.00  0.00     0.149 A 
HETATM    3  N   UNL     1      -5.775   4.891 -33.507  1.00  0.00    -0.217 N 
HETATM    4  N   UNL     1      -6.401   6.022 -33.093  1.00  0.00    -0.177 NA
HETATM    5  C   UNL     1      -7.697   5.762 -33.224  1.00  0.00     0.160 A 
ENDROOT
BRANCH   2   6
HETATM    6  N   UNL     1      -6.413   2.554 -34.063  1.00  0.00    -0.306 N 
HETATM    7  C   UNL     1      -6.264   1.591 -33.012  1.00  0.00     0.258 C 
HETATM    8  O   UNL     1      -6.473   1.901 -31.848  1.00  0.00    -0.267 OA
HETATM    9  H   UNL     1      -6.433   2.241 -35.029  1.00  0.00     0.170 HD
BRANCH   7  10
HETATM   10  C   UNL     1      -6.121   0.197 -33.477  1.00  0.00     0.049 A 
HETATM   11  C   UNL     1      -4.917  -0.512 -33.387  1.00  0.00     0.026 A 
HETATM   12 BR   UNL     1      -3.389   0.169 -32.495  1.00  0.00    -0.050 Br
HETATM   13  C   UNL     1      -4.819  -1.783 -33.960  1.00  0.00     0.020 A 
HETATM   14  C   UNL     1      -5.915  -2.340 -34.624  1.00  0.00     0.001 A 
HETATM   15  C   UNL     1      -7.118  -1.639 -34.702  1.00  0.00     0.001 A 
HETATM   16  C   UNL     1      -7.227  -0.375 -34.124  1.00  0.00     0.018 A 
ENDBRANCH   7  10
ENDBRANCH   2   6
BRANCH   1  17
HETATM   17  C   UNL     1      -9.256   3.850 -33.937  1.00  0.00     0.259 C 
HETATM   18  N   UNL     1      -9.854   3.203 -32.847  1.00  0.00    -0.345 N 
HETATM   19  C   UNL     1     -11.048   2.386 -33.108  1.00  0.00     0.154 C 
HETATM   20  C   UNL     1      -9.688   3.611 -31.443  1.00  0.00     0.154 C 
HETATM   21  C   UNL     1     -12.326   3.095 -32.633  1.00  0.00     0.254 C 
HETATM   22  N   UNL     1     -12.185   3.444 -31.150  1.00  0.00    -0.072 N 
HETATM   23  C   UNL     1     -13.432   4.075 -30.599  1.00  0.00     0.269 C 
HETATM   24  H   UNL     1     -12.053   2.560 -30.638  1.00  0.00     0.279 HD
HETATM   25  C   UNL     1     -10.954   4.309 -30.902  1.00  0.00     0.254 C 
HETATM   26  O   UNL     1      -9.800   3.854 -35.041  1.00  0.00    -0.267 OA
ENDBRANCH   1  17
BRANCH   3  27
HETATM   27  C   UNL     1      -4.353   4.868 -33.641  1.00  0.00     0.060 A 
HETATM   28  C   UNL     1      -3.707   5.262 -34.822  1.00  0.00     0.031 A 
HETATM   29  C   UNL     1      -2.311   5.235 -34.906  1.00  0.00     0.002 A 
HETATM   30  C   UNL     1      -1.549   4.837 -33.813  1.00  0.00     0.000 A 
HETATM   31  C   UNL     1      -2.179   4.468 -32.627  1.00  0.00     0.002 A 
HETATM   32  C   UNL     1      -3.573   4.484 -32.538  1.00  0.00     0.031 A 
ENDBRANCH   3  27
TORSDOF 4
ENDMDL
MODEL 3
REMARK VINA RESULT:      -8.8      1.591      5.979
REMARK  4 active torsions:
REMARK  status: ('A' for Active; 'I' for Inactive)
REMARK       I    between atoms: N_6  and  C_7 
REMARK    1  A    between atoms: C_7  and  C_8 
REMARK    2  A    between atoms: C_9  and  N_10 
REMARK       I    between atoms: N_10  and  C_11 
REMARK    3  A    between atoms: C_11  and  C_12 
REMARK    4  A    between atoms: N_20  and  C_21 
ROOT
HETATM    1  C   UNL     1      -7.725   4.121 -31.976  1.00  0.00     0.097 A 
HETATM    2  C   UNL     1      -6.561   3.657 -32.575  1.00  0.00     0.149 A 
HETATM    3  N   UNL     1      -5.599   4.660 -32.423  1.00  0.00    -0.217 N 
HETATM    4  N   UNL     1      -6.062   5.656 -31.625  1.00  0.00    -0.177 NA
HETATM    5  C   UNL     1      -7.318   5.321 -31.356  1.00  0.00     0.160 A 
ENDROOT
BRANCH   2   6
HETATM    6  N   UNL     1      -6.351   2.403 -33.142  1.00  0.00    -0.306 N 
HETATM    7  C   UNL     1      -5.924   1.271 -32.373  1.00  0.00     0.258 C 
HETATM    8  O   UNL     1      -5.808   1.349 -31.159  1.00  0.00    -0.267 OA
HETATM    9  H   UNL     1      -6.633   2.273 -34.109  1.00  0.00     0.170 HD
BRANCH   7  10
HETATM   10  C   UNL     1      -5.915  -0.005 -33.118  1.00  0.00     0.049 A 
HETATM   11  C   UNL     1      -4.770  -0.799 -33.247  1.00  0.00     0.026 A 
HETATM   12 BR   UNL     1      -3.152  -0.425 -32.331  1.00  0.00    -0.050 Br
HETATM   13  C   UNL     1      -4.801  -1.928 -34.070  1.00  0.00     0.020 A 
HETATM   14  C   UNL     1      -5.967  -2.259 -34.764  1.00  0.00     0.001 A 
HETATM   15  C   UNL     1      -7.112  -1.475 -34.625  1.00  0.00     0.001 A 
HETATM   16  C   UNL     1      -7.092  -0.352 -33.798  1.00  0.00     0.018 A 
ENDBRANCH   7  10
ENDBRANCH   2   6
BRANCH   1  17
HETATM   17  C   UNL     1      -8.996   3.436 -31.832  1.00  0.00     0.259 C 
HETATM   18  N   UNL     1     -10.115   3.963 -32.490  1.00  0.00    -0.345 N 
HETATM   19  C   UNL     1     -11.431   3.398 -32.160  1.00  0.00     0.154 C 
HETATM   20  C   UNL     1     -10.064   4.687 -33.770  1.00  0.00     0.154 C 
HETATM   21  C   UNL     1     -11.941   2.478 -33.282  1.00  0.00     0.254 C 
HETATM   22  N   UNL     1     -11.967   3.258 -34.598  1.00  0.00    -0.072 N 
HETATM   23  C   UNL     1     -12.528   2.440 -35.726  1.00  0.00     0.269 C 
HETATM   24  H   UNL     1     -12.606   4.055 -34.469  1.00  0.00     0.279 HD
HETATM   25  C   UNL     1     -10.590   3.819 -34.933  1.00  0.00     0.254 C 
HETATM   26  O   UNL     1      -9.098   2.437 -31.121  1.00  0.00    -0.267 OA
ENDBRANCH   1  17
BRANCH   3  27
HETATM   27  C   UNL     1      -4.311   4.770 -33.031  1.00  0.00     0.060 A 
HETATM   28  C   UNL     1      -3.134   4.409 -32.361  1.00  0.00     0.031 A 
HETATM   29  C   UNL     1      -1.894   4.521 -32.999  1.00  0.00     0.002 A 
HETATM   30  C   UNL     1      -1.819   4.974 -34.312  1.00  0.00     0.000 A 
HETATM   31  C   UNL     1      -2.984   5.311 -34.996  1.00  0.00     0.002 A 
HETATM   32  C   UNL     1      -4.224   5.210 -34.363  1.00  0.00     0.031 A 
ENDBRANCH   3  27
TORSDOF 4
ENDMDL
MODEL 4
REMARK VINA RESULT:      -8.6      1.949      5.002
REMARK  4 active torsions:
REMARK  status: ('A' for Active; 'I' for Inactive)
REMARK       I    between atoms: N_6  and  C_7 
REMARK    1  A    between atoms: C_7  and  C_8 
REMARK    2  A    between atoms: C_9  and  N_10 
REMARK       I    between atoms: N_10  and  C_11 
REMARK    3  A    between atoms: C_11  and  C_12 
REMARK    4  A    between atoms: N_20  and  C_21 
ROOT
HETATM    1  C   UNL     1      -4.544   2.179 -31.751  1.00  0.00     0.097 A 
HETATM    2  C   UNL     1      -5.410   1.421 -32.528  1.00  0.00     0.149 A 
HETATM    3  N   UNL     1      -4.941   0.105 -32.493  1.00  0.00    -0.217 N 
HETATM    4  N   UNL     1      -3.919  -0.020 -31.609  1.00  0.00    -0.177 NA
HETATM    5  C   UNL     1      -3.699   1.212 -31.166  1.00  0.00     0.160 A 
ENDROOT
BRANCH   2   6
HETATM    6  N   UNL     1      -6.576   1.856 -33.155  1.00  0.00    -0.306 N 
HETATM    7  C   UNL     1      -7.836   1.927 -32.475  1.00  0.00     0.258 C 
HETATM    8  O   UNL     1      -7.915   1.683 -31.281  1.00  0.00    -0.267 OA
HETATM    9  H   UNL     1      -6.487   2.250 -34.087  1.00  0.00     0.170 HD
BRANCH   7  10
HETATM   10  C   UNL     1      -8.915   2.566 -33.256  1.00  0.00     0.049 A 
HETATM   11  C   UNL     1     -10.071   1.883 -33.650  1.00  0.00     0.026 A 
HETATM   12 BR   UNL     1     -10.469   0.121 -33.075  1.00  0.00    -0.050 Br
HETATM   13  C   UNL     1     -10.992   2.512 -34.493  1.00  0.00     0.020 A 
HETATM   14  C   UNL     1     -10.756   3.813 -34.943  1.00  0.00     0.001 A 
HETATM   15  C   UNL     1      -9.610   4.499 -34.540  1.00  0.00     0.001 A 
HETATM   16  C   UNL     1      -8.692   3.881 -33.691  1.00  0.00     0.018 A 
ENDBRANCH   7  10
ENDBRANCH   2   6
BRANCH   1  17
HETATM   17  C   UNL     1      -4.621   3.594 -31.440  1.00  0.00     0.259 C 
HETATM   18  N   UNL     1      -3.426   4.316 -31.324  1.00  0.00    -0.345 N 
HETATM   19  C   UNL     1      -3.503   5.684 -30.793  1.00  0.00     0.154 C 
HETATM   20  C   UNL     1      -2.199   4.023 -32.081  1.00  0.00     0.154 C 
HETATM   21  C   UNL     1      -3.336   6.728 -31.909  1.00  0.00     0.254 C 
HETATM   22  N   UNL     1      -2.018   6.473 -32.642  1.00  0.00    -0.072 N 
HETATM   23  C   UNL     1      -1.754   7.506 -33.701  1.00  0.00     0.269 C 
HETATM   24  H   UNL     1      -1.260   6.563 -31.950  1.00  0.00     0.279 HD
HETATM   25  C   UNL     1      -1.966   5.057 -33.204  1.00  0.00     0.254 C 
HETATM   26  O   UNL     1      -5.706   4.140 -31.247  1.00  0.00    -0.267 OA
ENDBRANCH   1  17
BRANCH   3  27
HETATM   27  C   UNL     1      -5.346  -1.016 -33.282  1.00  0.00     0.060 A 
HETATM   28  C   UNL     1      -6.694  -1.289 -33.557  1.00  0.00     0.031 A 
HETATM   29  C   UNL     1      -7.045  -2.390 -34.345  1.00  0.00     0.002 A 
HETATM   30  C   UNL     1      -6.060  -3.214 -34.879  1.00  0.00     0.000 A 
HETATM   31  C   UNL     1      -4.717  -2.937 -34.634  1.00  0.00     0.002 A 
HETATM   32  C   UNL     1      -4.359  -1.845 -33.841  1.00  0.00     0.031 A 
ENDBRANCH   3  27
TORSDOF 4
ENDMDL
MODEL 5
REMARK VINA RESULT:      -8.5      2.134      6.118
REMARK  4 active torsions:
REMARK  status: ('A' for Active; 'I' for Inactive)
REMARK       I    between atoms: N_6  and  C_7 
REMARK    1  A    between atoms: C_7  and  C_8 
REMARK    2  A    between atoms: C_9  and  N_10 
REMARK       I    between atoms: N_10  and  C_11 
REMARK    3  A    between atoms: C_11  and  C_12 
REMARK    4  A    between atoms: N_20  and  C_21 
ROOT
HETATM    1  C   UNL     1      -8.987   2.079 -33.294  1.00  0.00     0.097 A 
HETATM    2  C   UNL     1      -7.711   1.636 -33.618  1.00  0.00     0.149 A 
HETATM    3  N   UNL     1      -7.761   0.239 -33.643  1.00  0.00    -0.217 N 
HETATM    4  N   UNL     1      -9.037  -0.202 -33.505  1.00  0.00    -0.177 NA
HETATM    5  C   UNL     1      -9.758   0.897 -33.311  1.00  0.00     0.160 A 
ENDROOT
BRANCH   2   6
HETATM    6  N   UNL     1      -6.608   2.420 -33.944  1.00  0.00    -0.306 N 
HETATM    7  C   UNL     1      -5.927   3.233 -32.981  1.00  0.00     0.258 C 
HETATM    8  O   UNL     1      -6.247   3.203 -31.802  1.00  0.00    -0.267 OA
HETATM    9  H   UNL     1      -6.209   2.303 -34.872  1.00  0.00     0.170 HD
BRANCH   7  10
HETATM   10  C   UNL     1      -4.686   3.860 -33.479  1.00  0.00     0.049 A 
HETATM   11  C   UNL     1      -3.443   3.674 -32.861  1.00  0.00     0.026 A 
HETATM   12 BR   UNL     1      -3.179   2.457 -31.431  1.00  0.00    -0.050 Br
HETATM   13  C   UNL     1      -2.334   4.396 -33.310  1.00  0.00     0.020 A 
HETATM   14  C   UNL     1      -2.466   5.302 -34.365  1.00  0.00     0.001 A 
HETATM   15  C   UNL     1      -3.701   5.477 -34.989  1.00  0.00     0.001 A 
HETATM   16  C   UNL     1      -4.810   4.753 -34.553  1.00  0.00     0.018 A 
ENDBRANCH   7  10
ENDBRANCH   2   6
BRANCH   1  17
HETATM   17  C   UNL     1      -9.462   3.445 -33.183  1.00  0.00     0.259 C 
HETATM   18  N   UNL     1     -10.072   3.842 -31.985  1.00  0.00    -0.345 N 
HETATM   19  C   UNL     1     -10.745   5.148 -31.962  1.00  0.00     0.154 C 
HETATM   20  C   UNL     1      -9.725   3.310 -30.658  1.00  0.00     0.154 C 
HETATM   21  C   UNL     1      -9.915   6.193 -31.199  1.00  0.00     0.254 C 
HETATM   22  N   UNL     1      -9.627   5.672 -29.789  1.00  0.00    -0.072 N 
HETATM   23  C   UNL     1      -8.880   6.679 -28.960  1.00  0.00     0.269 C 
HETATM   24  H   UNL     1     -10.534   5.527 -29.325  1.00  0.00     0.279 HD
HETATM   25  C   UNL     1      -8.909   4.328 -29.834  1.00  0.00     0.254 C 
HETATM   26  O   UNL     1      -9.367   4.225 -34.129  1.00  0.00    -0.267 OA
ENDBRANCH   1  17
BRANCH   3  27
HETATM   27  C   UNL     1      -6.684  -0.698 -33.719  1.00  0.00     0.060 A 
HETATM   28  C   UNL     1      -5.580  -0.639 -32.856  1.00  0.00     0.031 A 
HETATM   29  C   UNL     1      -4.553  -1.584 -32.957  1.00  0.00     0.002 A 
HETATM   30  C   UNL     1      -4.628  -2.603 -33.901  1.00  0.00     0.000 A 
HETATM   31  C   UNL     1      -5.732  -2.686 -34.745  1.00  0.00     0.002 A 
HETATM   32  C   UNL     1      -6.756  -1.741 -34.656  1.00  0.00     0.031 A 
ENDBRANCH   3  27
TORSDOF 4
ENDMDL
MODEL 6
REMARK VINA RESULT:      -8.1      2.828      5.725
REMARK  4 active torsions:
REMARK  status: ('A' for Active; 'I' for Inactive)
REMARK       I    between atoms: N_6  and  C_7 
REMARK    1  A    between atoms: C_7  and  C_8 
REMARK    2  A    between atoms: C_9  and  N_10 
REMARK       I    between atoms: N_10  and  C_11 
REMARK    3  A    between atoms: C_11  and  C_12 
REMARK    4  A    between atoms: N_20  and  C_21 
ROOT
HETATM    1  C   UNL     1      -6.421   2.733 -32.977  1.00  0.00     0.097 A 
HETATM    2  C   UNL     1      -6.956   1.518 -33.387  1.00  0.00     0.149 A 
HETATM    3  N   UNL     1      -5.951   0.558 -33.229  1.00  0.00    -0.217 N 
HETATM    4  N   UNL     1      -4.873   1.088 -32.597  1.00  0.00    -0.177 NA
HETATM    5  C   UNL     1      -5.166   2.374 -32.441  1.00  0.00     0.160 A 
ENDROOT
BRANCH   2   6
HETATM    6  N   UNL     1      -8.265   1.271 -33.793  1.00  0.00    -0.306 N 
HETATM    7  C   UNL     1      -9.329   1.035 -32.864  1.00  0.00     0.258 C 
HETATM    8  O   UNL     1      -9.139   1.127 -31.660  1.00  0.00    -0.267 OA
HETATM    9  H   UNL     1      -8.478   1.388 -34.780  1.00  0.00     0.170 HD
BRANCH   7  10
HETATM   10  C   UNL     1     -10.670   0.957 -33.478  1.00  0.00     0.049 A 
HETATM   11  C   UNL     1     -11.224   2.005 -34.223  1.00  0.00     0.026 A 
HETATM   12 BR   UNL     1     -10.250   3.566 -34.682  1.00  0.00    -0.050 Br
HETATM   13  C   UNL     1     -12.545   1.913 -34.669  1.00  0.00     0.020 A 
HETATM   14  C   UNL     1     -13.310   0.783 -34.369  1.00  0.00     0.001 A 
HETATM   15  C   UNL     1     -12.754  -0.267 -33.638  1.00  0.00     0.001 A 
HETATM   16  C   UNL     1     -11.433  -0.186 -33.198  1.00  0.00     0.018 A 
ENDBRANCH   7  10
ENDBRANCH   2   6
BRANCH   1  17
HETATM   17  C   UNL     1      -7.076   4.025 -32.911  1.00  0.00     0.259 C 
HETATM   18  N   UNL     1      -7.851   4.323 -31.782  1.00  0.00    -0.345 N 
HETATM   19  C   UNL     1      -8.685   5.532 -31.825  1.00  0.00     0.154 C 
HETATM   20  C   UNL     1      -7.579   3.815 -30.428  1.00  0.00     0.154 C 
HETATM   21  C   UNL     1      -8.077   6.661 -30.975  1.00  0.00     0.254 C 
HETATM   22  N   UNL     1      -7.873   6.157 -29.545  1.00  0.00    -0.072 N 
HETATM   23  C   UNL     1      -7.350   7.235 -28.638  1.00  0.00     0.269 C 
HETATM   24  H   UNL     1      -8.797   5.890 -29.179  1.00  0.00     0.279 HD
HETATM   25  C   UNL     1      -6.989   4.915 -29.520  1.00  0.00     0.254 C 
HETATM   26  O   UNL     1      -6.984   4.828 -33.839  1.00  0.00    -0.267 OA
ENDBRANCH   1  17
BRANCH   3  27
HETATM   27  C   UNL     1      -5.917  -0.793 -33.692  1.00  0.00     0.060 A 
HETATM   28  C   UNL     1      -7.069  -1.461 -34.134  1.00  0.00     0.031 A 
HETATM   29  C   UNL     1      -6.989  -2.781 -34.591  1.00  0.00     0.002 A 
HETATM   30  C   UNL     1      -5.763  -3.435 -34.632  1.00  0.00     0.000 A 
HETATM   31  C   UNL     1      -4.609  -2.773 -34.221  1.00  0.00     0.002 A 
HETATM   32  C   UNL     1      -4.682  -1.459 -33.754  1.00  0.00     0.031 A 
ENDBRANCH   3  27
TORSDOF 4
ENDMDL
MODEL 7
REMARK VINA RESULT:      -8.1      2.275      6.572
REMARK  4 active torsions:
REMARK  status: ('A' for Active; 'I' for Inactive)
REMARK       I    between atoms: N_6  and  C_7 
REMARK    1  A    between atoms: C_7  and  C_8 
REMARK    2  A    between atoms: C_9  and  N_10 
REMARK       I    between atoms: N_10  and  C_11 
REMARK    3  A    between atoms: C_11  and  C_12 
REMARK    4  A    between atoms: N_20  and  C_21 
ROOT
HETATM    1  C   UNL     1      -9.103   1.707 -32.443  1.00  0.00     0.097 A 
HETATM    2  C   UNL     1      -7.813   1.426 -32.873  1.00  0.00     0.149 A 
HETATM    3  N   UNL     1      -7.774   0.062 -33.177  1.00  0.00    -0.217 N 
HETATM    4  N   UNL     1      -9.015  -0.484 -33.106  1.00  0.00    -0.177 NA
HETATM    5  C   UNL     1      -9.797   0.502 -32.682  1.00  0.00     0.160 A 
ENDROOT
BRANCH   2   6
HETATM    6  N   UNL     1      -6.772   2.333 -33.056  1.00  0.00    -0.306 N 
HETATM    7  C   UNL     1      -6.033   2.890 -31.962  1.00  0.00     0.258 C 
HETATM    8  O   UNL     1      -6.240   2.519 -30.816  1.00  0.00    -0.267 OA
HETATM    9  H   UNL     1      -6.458   2.498 -34.009  1.00  0.00     0.170 HD
BRANCH   7  10
HETATM   10  C   UNL     1      -4.865   3.701 -32.364  1.00  0.00     0.049 A 
HETATM   11  C   UNL     1      -4.974   5.036 -32.769  1.00  0.00     0.026 A 
HETATM   12 BR   UNL     1      -6.598   6.010 -32.672  1.00  0.00    -0.050 Br
HETATM   13  C   UNL     1      -3.847   5.705 -33.255  1.00  0.00     0.020 A 
HETATM   14  C   UNL     1      -2.620   5.041 -33.342  1.00  0.00     0.001 A 
HETATM   15  C   UNL     1      -2.510   3.715 -32.927  1.00  0.00     0.001 A 
HETATM   16  C   UNL     1      -3.628   3.044 -32.431  1.00  0.00     0.018 A 
ENDBRANCH   7  10
ENDBRANCH   2   6
BRANCH   1  17
HETATM   17  C   UNL     1      -9.660   2.988 -32.051  1.00  0.00     0.259 C 
HETATM   18  N   UNL     1      -9.827   3.971 -33.036  1.00  0.00    -0.345 N 
HETATM   19  C   UNL     1     -10.178   5.328 -32.594  1.00  0.00     0.154 C 
HETATM   20  C   UNL     1     -10.129   3.691 -34.448  1.00  0.00     0.154 C 
HETATM   21  C   UNL     1     -11.659   5.640 -32.866  1.00  0.00     0.254 C 
HETATM   22  N   UNL     1     -11.950   5.429 -34.354  1.00  0.00    -0.072 N 
HETATM   23  C   UNL     1     -13.366   5.789 -34.706  1.00  0.00     0.269 C 
HETATM   24  H   UNL     1     -11.345   6.075 -34.879  1.00  0.00     0.279 HD
HETATM   25  C   UNL     1     -11.601   4.010 -34.788  1.00  0.00     0.254 C 
HETATM   26  O   UNL     1      -9.943   3.220 -30.877  1.00  0.00    -0.267 OA
ENDBRANCH   1  17
BRANCH   3  27
HETATM   27  C   UNL     1      -6.644  -0.765 -33.460  1.00  0.00     0.060 A 
HETATM   28  C   UNL     1      -5.490  -0.753 -32.662  1.00  0.00     0.031 A 
HETATM   29  C   UNL     1      -4.410  -1.588 -32.968  1.00  0.00     0.002 A 
HETATM   30  C   UNL     1      -4.479  -2.454 -34.055  1.00  0.00     0.000 A 
HETATM   31  C   UNL     1      -5.630  -2.493 -34.838  1.00  0.00     0.002 A 
HETATM   32  C   UNL     1      -6.708  -1.656 -34.544  1.00  0.00     0.031 A 
ENDBRANCH   3  27
TORSDOF 4
ENDMDL
MODEL 8
REMARK VINA RESULT:      -7.7      2.588      5.041
REMARK  4 active torsions:
REMARK  status: ('A' for Active; 'I' for Inactive)
REMARK       I    between atoms: N_6  and  C_7 
REMARK    1  A    between atoms: C_7  and  C_8 
REMARK    2  A    between atoms: C_9  and  N_10 
REMARK       I    between atoms: N_10  and  C_11 
REMARK    3  A    between atoms: C_11  and  C_12 
REMARK    4  A    between atoms: N_20  and  C_21 
ROOT
HETATM    1  C   UNL     1      -4.687   1.968 -32.585  1.00  0.00     0.097 A 
HETATM    2  C   UNL     1      -6.032   2.232 -32.366  1.00  0.00     0.149 A 
HETATM    3  N   UNL     1      -6.753   1.202 -32.978  1.00  0.00    -0.217 N 
HETATM    4  N   UNL     1      -5.918   0.232 -33.430  1.00  0.00    -0.177 NA
HETATM    5  C   UNL     1      -4.697   0.690 -33.182  1.00  0.00     0.160 A 
ENDROOT
BRANCH   2   6
HETATM    6  N   UNL     1      -6.573   3.269 -31.610  1.00  0.00    -0.306 N 
HETATM    7  C   UNL     1      -6.940   3.110 -30.234  1.00  0.00     0.258 C 
HETATM    8  O   UNL     1      -6.710   2.064 -29.644  1.00  0.00    -0.267 OA
HETATM    9  H   UNL     1      -6.586   4.196 -32.028  1.00  0.00     0.170 HD
BRANCH   7  10
HETATM   10  C   UNL     1      -7.339   4.362 -29.560  1.00  0.00     0.049 A 
HETATM   11  C   UNL     1      -8.606   4.936 -29.718  1.00  0.00     0.026 A 
HETATM   12 BR   UNL     1     -10.010   4.083 -30.665  1.00  0.00    -0.050 Br
HETATM   13  C   UNL     1      -8.873   6.186 -29.152  1.00  0.00     0.020 A 
HETATM   14  C   UNL     1      -7.880   6.859 -28.436  1.00  0.00     0.001 A 
HETATM   15  C   UNL     1      -6.623   6.281 -28.268  1.00  0.00     0.001 A 
HETATM   16  C   UNL     1      -6.351   5.030 -28.821  1.00  0.00     0.018 A 
ENDBRANCH   7  10
ENDBRANCH   2   6
BRANCH   1  17
HETATM   17  C   UNL     1      -3.537   2.719 -32.118  1.00  0.00     0.259 C 
HETATM   18  N   UNL     1      -3.159   3.868 -32.827  1.00  0.00    -0.345 N 
HETATM   19  C   UNL     1      -1.872   4.489 -32.484  1.00  0.00     0.154 C 
HETATM   20  C   UNL     1      -4.094   4.752 -33.539  1.00  0.00     0.154 C 
HETATM   21  C   UNL     1      -2.072   5.776 -31.667  1.00  0.00     0.254 C 
HETATM   22  N   UNL     1      -2.979   6.730 -32.448  1.00  0.00    -0.072 N 
HETATM   23  C   UNL     1      -3.157   8.043 -31.740  1.00  0.00     0.269 C 
HETATM   24  H   UNL     1      -2.507   6.940 -33.339  1.00  0.00     0.279 HD
HETATM   25  C   UNL     1      -4.316   6.075 -32.776  1.00  0.00     0.254 C 
HETATM   26  O   UNL     1      -2.887   2.338 -31.146  1.00  0.00    -0.267 OA
ENDBRANCH   1  17
BRANCH   3  27
HETATM   27  C   UNL     1      -8.158   1.108 -33.221  1.00  0.00     0.060 A 
HETATM   28  C   UNL     1      -8.957   0.124 -32.621  1.00  0.00     0.031 A 
HETATM   29  C   UNL     1     -10.331   0.076 -32.878  1.00  0.00     0.002 A 
HETATM   30  C   UNL     1     -10.922   1.016 -33.715  1.00  0.00     0.000 A 
HETATM   31  C   UNL     1     -10.142   2.014 -34.296  1.00  0.00     0.002 A 
HETATM   32  C   UNL     1      -8.768   2.063 -34.051  1.00  0.00     0.031 A 
ENDBRANCH   3  27
TORSDOF 4
ENDMDL
MODEL 9
REMARK VINA RESULT:      -7.7      2.965      5.463
REMARK  4 active torsions:
REMARK  status: ('A' for Active; 'I' for Inactive)
REMARK       I    between atoms: N_6  and  C_7 
REMARK    1  A    between atoms: C_7  and  C_8 
REMARK    2  A    between atoms: C_9  and  N_10 
REMARK       I    between atoms: N_10  and  C_11 
REMARK    3  A    between atoms: C_11  and  C_12 
REMARK    4  A    between atoms: N_20  and  C_21 
ROOT
HETATM    1  C   UNL     1      -6.609   2.220 -30.585  1.00  0.00     0.097 A 
HETATM    2  C   UNL     1      -7.127   1.328 -31.514  1.00  0.00     0.149 A 
HETATM    3  N   UNL     1      -6.130   0.379 -31.766  1.00  0.00    -0.217 N 
HETATM    4  N   UNL     1      -5.079   0.549 -30.924  1.00  0.00    -0.177 NA
HETATM    5  C   UNL     1      -5.377   1.634 -30.220  1.00  0.00     0.160 A 
ENDROOT
BRANCH   2   6
HETATM    6  N   UNL     1      -8.417   1.314 -32.037  1.00  0.00    -0.306 N 
HETATM    7  C   UNL     1      -8.792   2.084 -33.186  1.00  0.00     0.258 C 
HETATM    8  O   UNL     1      -7.957   2.725 -33.806  1.00  0.00    -0.267 OA
HETATM    9  H   UNL     1      -9.070   0.635 -31.654  1.00  0.00     0.170 HD
BRANCH   7  10
HETATM   10  C   UNL     1     -10.155   1.810 -33.686  1.00  0.00     0.049 A 
HETATM   11  C   UNL     1     -10.918   2.767 -34.365  1.00  0.00     0.026 A 
HETATM   12 BR   UNL     1     -10.227   4.456 -34.881  1.00  0.00    -0.050 Br
HETATM   13  C   UNL     1     -12.245   2.482 -34.699  1.00  0.00     0.020 A 
HETATM   14  C   UNL     1     -12.808   1.251 -34.352  1.00  0.00     0.001 A 
HETATM   15  C   UNL     1     -12.043   0.293 -33.686  1.00  0.00     0.001 A 
HETATM   16  C   UNL     1     -10.715   0.567 -33.359  1.00  0.00     0.018 A 
ENDBRANCH   7  10
ENDBRANCH   2   6
BRANCH   1  17
HETATM   17  C   UNL     1      -7.264   3.359 -29.971  1.00  0.00     0.259 C 
HETATM   18  N   UNL     1      -6.476   4.450 -29.581  1.00  0.00    -0.345 N 
HETATM   19  C   UNL     1      -7.111   5.494 -28.764  1.00  0.00     0.154 C 
HETATM   20  C   UNL     1      -5.244   4.874 -30.263  1.00  0.00     0.154 C 
HETATM   21  C   UNL     1      -7.401   6.755 -29.594  1.00  0.00     0.254 C 
HETATM   22  N   UNL     1      -6.101   7.243 -30.237  1.00  0.00    -0.072 N 
HETATM   23  C   UNL     1      -6.297   8.519 -31.005  1.00  0.00     0.269 C 
HETATM   24  H   UNL     1      -5.444   7.459 -29.473  1.00  0.00     0.279 HD
HETATM   25  C   UNL     1      -5.469   6.154 -31.096  1.00  0.00     0.254 C 
HETATM   26  O   UNL     1      -8.477   3.354 -29.764  1.00  0.00    -0.267 OA
ENDBRANCH   1  17
BRANCH   3  27
HETATM   27  C   UNL     1      -6.078  -0.622 -32.784  1.00  0.00     0.060 A 
HETATM   28  C   UNL     1      -7.205  -0.981 -33.537  1.00  0.00     0.031 A 
HETATM   29  C   UNL     1      -7.107  -1.959 -34.534  1.00  0.00     0.002 A 
HETATM   30  C   UNL     1      -5.885  -2.568 -34.800  1.00  0.00     0.000 A 
HETATM   31  C   UNL     1      -4.754  -2.200 -34.076  1.00  0.00     0.002 A 
HETATM   32  C   UNL     1      -4.847  -1.232 -33.074  1.00  0.00     0.031 A 
ENDBRANCH   3  27
TORSDOF 4
ENDMDL
MODEL 10
REMARK VINA RESULT:      -7.7      2.914      6.347
REMARK  4 active torsions:
REMARK  status: ('A' for Active; 'I' for Inactive)
REMARK       I    between atoms: N_6  and  C_7 
REMARK    1  A    between atoms: C_7  and  C_8 
REMARK    2  A    between atoms: C_9  and  N_10 
REMARK       I    between atoms: N_10  and  C_11 
REMARK    3  A    between atoms: C_11  and  C_12 
REMARK    4  A    between atoms: N_20  and  C_21 
ROOT
HETATM    1  C   UNL     1      -7.448   3.887 -31.841  1.00  0.00     0.097 A 
HETATM    2  C   UNL     1      -6.286   3.290 -32.310  1.00  0.00     0.149 A 
HETATM    3  N   UNL     1      -6.608   1.967 -32.626  1.00  0.00    -0.217 N 
HETATM    4  N   UNL     1      -7.945   1.758 -32.523  1.00  0.00    -0.177 NA
HETATM    5  C   UNL     1      -8.436   2.905 -32.069  1.00  0.00     0.160 A 
ENDROOT
BRANCH   2   6
HETATM    6  N   UNL     1      -5.052   3.902 -32.517  1.00  0.00    -0.306 N 
HETATM    7  C   UNL     1      -4.765   4.686 -33.681  1.00  0.00     0.258 C 
HETATM    8  O   UNL     1      -5.636   4.918 -34.507  1.00  0.00    -0.267 OA
HETATM    9  H   UNL     1      -4.386   3.885 -31.748  1.00  0.00     0.170 HD
BRANCH   7  10
HETATM   10  C   UNL     1      -3.465   5.386 -33.641  1.00  0.00     0.049 A 
HETATM   11  C   UNL     1      -3.238   6.516 -32.847  1.00  0.00     0.026 A 
HETATM   12 BR   UNL     1      -4.508   7.167 -31.598  1.00  0.00    -0.050 Br
HETATM   13  C   UNL     1      -2.024   7.202 -32.952  1.00  0.00     0.020 A 
HETATM   14  C   UNL     1      -1.047   6.765 -33.850  1.00  0.00     0.001 A 
HETATM   15  C   UNL     1      -1.269   5.632 -34.631  1.00  0.00     0.001 A 
HETATM   16  C   UNL     1      -2.473   4.936 -34.524  1.00  0.00     0.018 A 
ENDBRANCH   7  10
ENDBRANCH   2   6
BRANCH   1  17
HETATM   17  C   UNL     1      -7.647   5.262 -31.423  1.00  0.00     0.259 C 
HETATM   18  N   UNL     1      -7.778   5.529 -30.053  1.00  0.00    -0.345 N 
HETATM   19  C   UNL     1      -8.199   6.880 -29.658  1.00  0.00     0.154 C 
HETATM   20  C   UNL     1      -7.119   4.758 -28.987  1.00  0.00     0.154 C 
HETATM   21  C   UNL     1      -7.019   7.694 -29.102  1.00  0.00     0.254 C 
HETATM   22  N   UNL     1      -6.387   6.928 -27.938  1.00  0.00    -0.072 N 
HETATM   23  C   UNL     1      -5.270   7.702 -27.296  1.00  0.00     0.269 C 
HETATM   24  H   UNL     1      -7.113   6.811 -27.217  1.00  0.00     0.279 HD
HETATM   25  C   UNL     1      -5.937   5.538 -28.372  1.00  0.00     0.254 C 
HETATM   26  O   UNL     1      -7.734   6.167 -32.250  1.00  0.00    -0.267 OA
ENDBRANCH   1  17
BRANCH   3  27
HETATM   27  C   UNL     1      -5.736   0.882 -32.948  1.00  0.00     0.060 A 
HETATM   28  C   UNL     1      -4.423   0.808 -32.461  1.00  0.00     0.031 A 
HETATM   29  C   UNL     1      -3.606  -0.279 -32.791  1.00  0.00     0.002 A 
HETATM   30  C   UNL     1      -4.096  -1.308 -33.589  1.00  0.00     0.000 A 
HETATM   31  C   UNL     1      -5.407  -1.257 -34.057  1.00  0.00     0.002 A 
HETATM   32  C   UNL     1      -6.225  -0.171 -33.739  1.00  0.00     0.031 A 
ENDBRANCH   3  27
TORSDOF 4
ENDMDL
