MODEL 1
REMARK VINA RESULT:      -8.8      0.000      0.000
REMARK  7 active torsions:
REMARK  status: ('A' for Active; 'I' for Inactive)
REMARK    1  A    between atoms: C_3  and  O_4 
REMARK    2  A    between atoms: C_5  and  C_6 
REMARK       I    between atoms: C_6  and  N_7 
REMARK    3  A    between atoms: N_7  and  C_8 
REMARK    4  A    between atoms: C_8  and  C_9 
REMARK    5  A    between atoms: C_9  and  C_10 
REMARK    6  A    between atoms: C_10  and  C_11 
REMARK    7  A    between atoms: C_15  and  C_16 
ROOT
HETATM    1  C   UNL     1      -5.682   3.900 -31.986  1.00  0.00     0.126 C 
ENDROOT
BRANCH   1   2
HETATM    2  N   UNL     1      -4.740   2.822 -31.670  1.00  0.00    -0.352 N 
HETATM    3  C   UNL     1      -3.348   2.961 -31.706  1.00  0.00     0.256 C 
HETATM    4  O   UNL     1      -2.591   2.265 -31.023  1.00  0.00    -0.267 OA
HETATM    5  C   UNL     1      -5.260   1.750 -30.831  1.00  0.00     0.152 C 
BRANCH   3   6
HETATM    6  C   UNL     1      -2.701   4.009 -32.532  1.00  0.00     0.065 A 
HETATM    7  C   UNL     1      -1.873   4.958 -31.909  1.00  0.00     0.087 A 
HETATM    8  C   UNL     1      -1.248   5.966 -32.653  1.00  0.00    -0.028 A 
HETATM    9  C   UNL     1      -0.368   6.983 -31.984  1.00  0.00     0.051 C 
HETATM   10  C   UNL     1      -1.439   5.996 -34.041  1.00  0.00     0.009 A 
HETATM   11  C   UNL     1      -2.212   5.021 -34.675  1.00  0.00     0.002 A 
HETATM   12  C   UNL     1      -2.828   4.017 -33.925  1.00  0.00     0.020 A 
BRANCH   7  13
HETATM   13  O   UNL     1      -1.631   4.923 -30.557  1.00  0.00    -0.359 OA
HETATM   14  H   UNL     1      -2.458   5.201 -30.104  1.00  0.00     0.218 HD
ENDBRANCH   7  13
ENDBRANCH   3   6
ENDBRANCH   1   2
BRANCH   1  15
HETATM   15  C   UNL     1      -6.890   3.423 -32.797  1.00  0.00     0.026 C 
BRANCH  15  16
HETATM   16  C   UNL     1      -6.433   2.914 -34.164  1.00  0.00     0.060 C 
BRANCH  16  17
HETATM   17  C   UNL     1      -6.630   1.456 -34.405  1.00  0.00     0.030 A 
HETATM   18  N   UNL     1      -7.712   0.894 -35.021  1.00  0.00    -0.282 N 
HETATM   19  H   UNL     1      -8.535   1.355 -35.395  1.00  0.00     0.189 HD
HETATM   20  N   UNL     1      -7.642  -0.440 -35.130  1.00  0.00    -0.174 NA
HETATM   21  C   UNL     1      -6.459  -0.774 -34.586  1.00  0.00     0.089 A 
HETATM   22  C   UNL     1      -5.802   0.394 -34.109  1.00  0.00     0.060 A 
BRANCH  21  23
HETATM   23  C   UNL     1      -5.990  -2.166 -34.539  1.00  0.00    -0.006 A 
HETATM   24  C   UNL     1      -6.837  -3.216 -34.927  1.00  0.00     0.014 A 
HETATM   25  C   UNL     1      -6.400  -4.543 -34.893  1.00  0.00     0.001 A 
HETATM   26  C   UNL     1      -5.106  -4.840 -34.472  1.00  0.00     0.000 A 
HETATM   27  C   UNL     1      -4.250  -3.810 -34.086  1.00  0.00     0.001 A 
HETATM   28  C   UNL     1      -4.689  -2.483 -34.119  1.00  0.00     0.014 A 
ENDBRANCH  21  23
ENDBRANCH  16  17
ENDBRANCH  15  16
ENDBRANCH   1  15
TORSDOF 7
ENDMDL
MODEL 2
REMARK VINA RESULT:      -8.7      3.136      5.459
REMARK  7 active torsions:
REMARK  status: ('A' for Active; 'I' for Inactive)
REMARK    1  A    between atoms: C_3  and  O_4 
REMARK    2  A    between atoms: C_5  and  C_6 
REMARK       I    between atoms: C_6  and  N_7 
REMARK    3  A    between atoms: N_7  and  C_8 
REMARK    4  A    between atoms: C_8  and  C_9 
REMARK    5  A    between atoms: C_9  and  C_10 
REMARK    6  A    between atoms: C_10  and  C_11 
REMARK    7  A    between atoms: C_15  and  C_16 
ROOT
HETATM    1  C   UNL     1      -5.215   3.475 -32.023  1.00  0.00     0.126 C 
ENDROOT
BRANCH   1   2
HETATM    2  N   UNL     1      -5.799   4.409 -32.991  1.00  0.00    -0.352 N 
HETATM    3  C   UNL     1      -6.951   4.143 -33.740  1.00  0.00     0.256 C 
HETATM    4  O   UNL     1      -7.688   5.036 -34.169  1.00  0.00    -0.267 OA
HETATM    5  C   UNL     1      -5.464   5.814 -32.800  1.00  0.00     0.152 C 
BRANCH   3   6
HETATM    6  C   UNL     1      -7.388   2.752 -34.011  1.00  0.00     0.065 A 
HETATM    7  C   UNL     1      -8.616   2.307 -33.492  1.00  0.00     0.087 A 
HETATM    8  C   UNL     1      -9.061   1.000 -33.721  1.00  0.00    -0.028 A 
HETATM    9  C   UNL     1     -10.371   0.524 -33.161  1.00  0.00     0.051 C 
HETATM   10  C   UNL     1      -8.273   0.146 -34.505  1.00  0.00     0.009 A 
HETATM   11  C   UNL     1      -7.081   0.600 -35.073  1.00  0.00     0.002 A 
HETATM   12  C   UNL     1      -6.647   1.907 -34.843  1.00  0.00     0.020 A 
BRANCH   7  13
HETATM   13  O   UNL     1      -9.430   3.138 -32.761  1.00  0.00    -0.359 OA
HETATM   14  H   UNL     1      -9.243   2.969 -31.811  1.00  0.00     0.218 HD
ENDBRANCH   7  13
ENDBRANCH   3   6
ENDBRANCH   1   2
BRANCH   1  15
HETATM   15  C   UNL     1      -3.862   2.915 -32.472  1.00  0.00     0.026 C 
BRANCH  15  16
HETATM   16  C   UNL     1      -3.340   1.918 -31.437  1.00  0.00     0.060 C 
BRANCH  16  17
HETATM   17  C   UNL     1      -3.405   0.484 -31.839  1.00  0.00     0.030 A 
HETATM   18  N   UNL     1      -2.657  -0.524 -31.299  1.00  0.00    -0.282 N 
HETATM   19  H   UNL     1      -1.953  -0.467 -30.571  1.00  0.00     0.189 HD
HETATM   20  N   UNL     1      -2.915  -1.730 -31.822  1.00  0.00    -0.174 NA
HETATM   21  C   UNL     1      -3.886  -1.519 -32.727  1.00  0.00     0.089 A 
HETATM   22  C   UNL     1      -4.210  -0.135 -32.771  1.00  0.00     0.060 A 
BRANCH  21  23
HETATM   23  C   UNL     1      -4.474  -2.618 -33.507  1.00  0.00    -0.006 A 
HETATM   24  C   UNL     1      -3.865  -3.882 -33.528  1.00  0.00     0.014 A 
HETATM   25  C   UNL     1      -4.419  -4.936 -34.260  1.00  0.00     0.001 A 
HETATM   26  C   UNL     1      -5.594  -4.740 -34.983  1.00  0.00     0.000 A 
HETATM   27  C   UNL     1      -6.213  -3.492 -34.972  1.00  0.00     0.001 A 
HETATM   28  C   UNL     1      -5.658  -2.438 -34.240  1.00  0.00     0.014 A 
ENDBRANCH  21  23
ENDBRANCH  16  17
ENDBRANCH  15  16
ENDBRANCH   1  15
TORSDOF 7
ENDMDL
MODEL 3
REMARK VINA RESULT:      -8.6      2.232      3.698
REMARK  7 active torsions:
REMARK  status: ('A' for Active; 'I' for Inactive)
REMARK    1  A    between atoms: C_3  and  O_4 
REMARK    2  A    between atoms: C_5  and  C_6 
REMARK       I    between atoms: C_6  and  N_7 
REMARK    3  A    between atoms: N_7  and  C_8 
REMARK    4  A    between atoms: C_8  and  C_9 
REMARK    5  A    between atoms: C_9  and  C_10 
REMARK    6  A    between atoms: C_10  and  C_11 
REMARK    7  A    between atoms: C_15  and  C_16 
ROOT
HETATM    1  C   UNL     1      -6.192   3.737 -33.655  1.00  0.00     0.126 C 
ENDROOT
BRANCH   1   2
HETATM    2  N   UNL     1      -5.669   4.604 -32.594  1.00  0.00    -0.352 N 
HETATM    3  C   UNL     1      -4.887   4.151 -31.525  1.00  0.00     0.256 C 
HETATM    4  O   UNL     1      -4.086   4.877 -30.930  1.00  0.00    -0.267 OA
HETATM    5  C   UNL     1      -5.545   6.016 -32.931  1.00  0.00     0.152 C 
BRANCH   3   6
HETATM    6  C   UNL     1      -4.937   2.737 -31.081  1.00  0.00     0.065 A 
HETATM    7  C   UNL     1      -3.918   1.857 -31.485  1.00  0.00     0.087 A 
HETATM    8  C   UNL     1      -3.931   0.513 -31.091  1.00  0.00    -0.028 A 
HETATM    9  C   UNL     1      -2.844  -0.427 -31.528  1.00  0.00     0.051 C 
HETATM   10  C   UNL     1      -4.966   0.064 -30.261  1.00  0.00     0.009 A 
HETATM   11  C   UNL     1      -5.950   0.946 -29.808  1.00  0.00     0.002 A 
HETATM   12  C   UNL     1      -5.926   2.285 -30.201  1.00  0.00     0.020 A 
BRANCH   7  13
HETATM   13  O   UNL     1      -2.866   2.283 -32.259  1.00  0.00    -0.359 OA
HETATM   14  H   UNL     1      -2.850   3.265 -32.216  1.00  0.00     0.218 HD
ENDBRANCH   7  13
ENDBRANCH   3   6
ENDBRANCH   1   2
BRANCH   1  15
HETATM   15  C   UNL     1      -7.722   3.678 -33.681  1.00  0.00     0.026 C 
BRANCH  15  16
HETATM   16  C   UNL     1      -8.206   2.382 -33.029  1.00  0.00     0.060 C 
BRANCH  16  17
HETATM   17  C   UNL     1      -7.807   1.126 -33.725  1.00  0.00     0.030 A 
HETATM   18  N   UNL     1      -8.098   0.814 -35.023  1.00  0.00    -0.282 N 
HETATM   19  H   UNL     1      -8.622   1.358 -35.701  1.00  0.00     0.189 HD
HETATM   20  N   UNL     1      -7.612  -0.370 -35.419  1.00  0.00    -0.174 NA
HETATM   21  C   UNL     1      -6.954  -0.853 -34.350  1.00  0.00     0.089 A 
HETATM   22  C   UNL     1      -7.067   0.058 -33.264  1.00  0.00     0.060 A 
BRANCH  21  23
HETATM   23  C   UNL     1      -6.244  -2.139 -34.390  1.00  0.00    -0.006 A 
HETATM   24  C   UNL     1      -4.896  -2.222 -34.007  1.00  0.00     0.014 A 
HETATM   25  C   UNL     1      -4.213  -3.441 -34.035  1.00  0.00     0.001 A 
HETATM   26  C   UNL     1      -4.871  -4.598 -34.446  1.00  0.00     0.000 A 
HETATM   27  C   UNL     1      -6.209  -4.536 -34.828  1.00  0.00     0.001 A 
HETATM   28  C   UNL     1      -6.892  -3.315 -34.800  1.00  0.00     0.014 A 
ENDBRANCH  21  23
ENDBRANCH  16  17
ENDBRANCH  15  16
ENDBRANCH   1  15
TORSDOF 7
ENDMDL
MODEL 4
REMARK VINA RESULT:      -8.5      1.961      3.274
REMARK  7 active torsions:
REMARK  status: ('A' for Active; 'I' for Inactive)
REMARK    1  A    between atoms: C_3  and  O_4 
REMARK    2  A    between atoms: C_5  and  C_6 
REMARK       I    between atoms: C_6  and  N_7 
REMARK    3  A    between atoms: N_7  and  C_8 
REMARK    4  A    between atoms: C_8  and  C_9 
REMARK    5  A    between atoms: C_9  and  C_10 
REMARK    6  A    between atoms: C_10  and  C_11 
REMARK    7  A    between atoms: C_15  and  C_16 
ROOT
HETATM    1  C   UNL     1      -3.686   4.951 -32.615  1.00  0.00     0.126 C 
ENDROOT
BRANCH   1   2
HETATM    2  N   UNL     1      -2.964   5.775 -33.590  1.00  0.00    -0.352 N 
HETATM    3  C   UNL     1      -1.800   6.496 -33.297  1.00  0.00     0.256 C 
HETATM    4  O   UNL     1      -0.961   6.783 -34.155  1.00  0.00    -0.267 OA
HETATM    5  C   UNL     1      -3.178   5.437 -34.991  1.00  0.00     0.152 C 
BRANCH   3   6
HETATM    6  C   UNL     1      -1.479   6.907 -31.909  1.00  0.00     0.065 A 
HETATM    7  C   UNL     1      -0.615   6.108 -31.141  1.00  0.00     0.087 A 
HETATM    8  C   UNL     1      -0.291   6.459 -29.825  1.00  0.00    -0.028 A 
HETATM    9  C   UNL     1       0.628   5.601 -29.004  1.00  0.00     0.051 C 
HETATM   10  C   UNL     1      -0.822   7.642 -29.292  1.00  0.00     0.009 A 
HETATM   11  C   UNL     1      -1.634   8.471 -30.069  1.00  0.00     0.002 A 
HETATM   12  C   UNL     1      -1.947   8.115 -31.382  1.00  0.00     0.020 A 
BRANCH   7  13
HETATM   13  O   UNL     1      -0.043   4.970 -31.655  1.00  0.00    -0.359 OA
HETATM   14  H   UNL     1      -0.689   4.238 -31.535  1.00  0.00     0.218 HD
ENDBRANCH   7  13
ENDBRANCH   3   6
ENDBRANCH   1   2
BRANCH   1  15
HETATM   15  C   UNL     1      -3.218   3.493 -32.599  1.00  0.00     0.026 C 
BRANCH  15  16
HETATM   16  C   UNL     1      -4.209   2.635 -31.810  1.00  0.00     0.060 C 
BRANCH  16  17
HETATM   17  C   UNL     1      -4.854   1.532 -32.577  1.00  0.00     0.030 A 
HETATM   18  N   UNL     1      -5.909   1.674 -33.434  1.00  0.00    -0.282 N 
HETATM   19  H   UNL     1      -6.417   2.519 -33.674  1.00  0.00     0.189 HD
HETATM   20  N   UNL     1      -6.295   0.530 -34.014  1.00  0.00    -0.174 NA
HETATM   21  C   UNL     1      -5.450  -0.404 -33.543  1.00  0.00     0.089 A 
HETATM   22  C   UNL     1      -4.538   0.190 -32.628  1.00  0.00     0.060 A 
BRANCH  21  23
HETATM   23  C   UNL     1      -5.526  -1.807 -33.971  1.00  0.00    -0.006 A 
HETATM   24  C   UNL     1      -6.735  -2.345 -34.442  1.00  0.00     0.014 A 
HETATM   25  C   UNL     1      -6.817  -3.676 -34.858  1.00  0.00     0.001 A 
HETATM   26  C   UNL     1      -5.689  -4.492 -34.810  1.00  0.00     0.000 A 
HETATM   27  C   UNL     1      -4.480  -3.976 -34.348  1.00  0.00     0.001 A 
HETATM   28  C   UNL     1      -4.399  -2.643 -33.931  1.00  0.00     0.014 A 
ENDBRANCH  21  23
ENDBRANCH  16  17
ENDBRANCH  15  16
ENDBRANCH   1  15
TORSDOF 7
ENDMDL
MODEL 5
REMARK VINA RESULT:      -8.5      2.701      3.943
REMARK  7 active torsions:
REMARK  status: ('A' for Active; 'I' for Inactive)
REMARK    1  A    between atoms: C_3  and  O_4 
REMARK    2  A    between atoms: C_5  and  C_6 
REMARK       I    between atoms: C_6  and  N_7 
REMARK    3  A    between atoms: N_7  and  C_8 
REMARK    4  A    between atoms: C_8  and  C_9 
REMARK    5  A    between atoms: C_9  and  C_10 
REMARK    6  A    between atoms: C_10  and  C_11 
REMARK    7  A    between atoms: C_15  and  C_16 
ROOT
HETATM    1  C   UNL     1      -3.462   4.882 -32.530  1.00  0.00     0.126 C 
ENDROOT
BRANCH   1   2
HETATM    2  N   UNL     1      -2.925   5.788 -33.550  1.00  0.00    -0.352 N 
HETATM    3  C   UNL     1      -1.743   6.525 -33.400  1.00  0.00     0.256 C 
HETATM    4  O   UNL     1      -1.062   6.893 -34.361  1.00  0.00    -0.267 OA
HETATM    5  C   UNL     1      -3.358   5.535 -34.917  1.00  0.00     0.152 C 
BRANCH   3   6
HETATM    6  C   UNL     1      -1.208   6.856 -32.058  1.00  0.00     0.065 A 
HETATM    7  C   UNL     1      -1.790   7.908 -31.330  1.00  0.00     0.087 A 
HETATM    8  C   UNL     1      -1.311   8.256 -30.061  1.00  0.00    -0.028 A 
HETATM    9  C   UNL     1      -1.930   9.384 -29.287  1.00  0.00     0.051 C 
HETATM   10  C   UNL     1      -0.255   7.514 -29.513  1.00  0.00     0.009 A 
HETATM   11  C   UNL     1       0.288   6.430 -30.205  1.00  0.00     0.002 A 
HETATM   12  C   UNL     1      -0.199   6.088 -31.468  1.00  0.00     0.020 A 
BRANCH   7  13
HETATM   13  O   UNL     1      -2.856   8.619 -31.824  1.00  0.00    -0.359 OA
HETATM   14  H   UNL     1      -2.493   9.330 -32.398  1.00  0.00     0.218 HD
ENDBRANCH   7  13
ENDBRANCH   3   6
ENDBRANCH   1   2
BRANCH   1  15
HETATM   15  C   UNL     1      -2.719   3.543 -32.467  1.00  0.00     0.026 C 
BRANCH  15  16
HETATM   16  C   UNL     1      -3.324   2.662 -31.374  1.00  0.00     0.060 C 
BRANCH  16  17
HETATM   17  C   UNL     1      -3.552   1.238 -31.751  1.00  0.00     0.030 A 
HETATM   18  N   UNL     1      -2.980   0.156 -31.144  1.00  0.00    -0.282 N 
HETATM   19  H   UNL     1      -2.322   0.141 -30.372  1.00  0.00     0.189 HD
HETATM   20  N   UNL     1      -3.361  -1.020 -31.660  1.00  0.00    -0.174 NA
HETATM   21  C   UNL     1      -4.235  -0.709 -32.632  1.00  0.00     0.089 A 
HETATM   22  C   UNL     1      -4.370   0.703 -32.724  1.00  0.00     0.060 A 
BRANCH  21  23
HETATM   23  C   UNL     1      -4.911  -1.742 -33.429  1.00  0.00    -0.006 A 
HETATM   24  C   UNL     1      -4.250  -2.937 -33.756  1.00  0.00     0.014 A 
HETATM   25  C   UNL     1      -4.886  -3.929 -34.507  1.00  0.00     0.001 A 
HETATM   26  C   UNL     1      -6.196  -3.742 -34.942  1.00  0.00     0.000 A 
HETATM   27  C   UNL     1      -6.869  -2.564 -34.625  1.00  0.00     0.001 A 
HETATM   28  C   UNL     1      -6.232  -1.571 -33.874  1.00  0.00     0.014 A 
ENDBRANCH  21  23
ENDBRANCH  16  17
ENDBRANCH  15  16
ENDBRANCH   1  15
TORSDOF 7
ENDMDL
MODEL 6
REMARK VINA RESULT:      -8.2      2.449      3.332
REMARK  7 active torsions:
REMARK  status: ('A' for Active; 'I' for Inactive)
REMARK    1  A    between atoms: C_3  and  O_4 
REMARK    2  A    between atoms: C_5  and  C_6 
REMARK       I    between atoms: C_6  and  N_7 
REMARK    3  A    between atoms: N_7  and  C_8 
REMARK    4  A    between atoms: C_8  and  C_9 
REMARK    5  A    between atoms: C_9  and  C_10 
REMARK    6  A    between atoms: C_10  and  C_11 
REMARK    7  A    between atoms: C_15  and  C_16 
ROOT
HETATM    1  C   UNL     1      -5.660   3.179 -31.940  1.00  0.00     0.126 C 
ENDROOT
BRANCH   1   2
HETATM    2  N   UNL     1      -6.027   4.560 -31.613  1.00  0.00    -0.352 N 
HETATM    3  C   UNL     1      -5.226   5.673 -31.896  1.00  0.00     0.256 C 
HETATM    4  O   UNL     1      -5.691   6.804 -32.061  1.00  0.00    -0.267 OA
HETATM    5  C   UNL     1      -7.452   4.816 -31.446  1.00  0.00     0.152 C 
BRANCH   3   6
HETATM    6  C   UNL     1      -3.760   5.539 -32.076  1.00  0.00     0.065 A 
HETATM    7  C   UNL     1      -3.230   5.511 -33.377  1.00  0.00     0.087 A 
HETATM    8  C   UNL     1      -1.852   5.381 -33.589  1.00  0.00    -0.028 A 
HETATM    9  C   UNL     1      -1.287   5.347 -34.980  1.00  0.00     0.051 C 
HETATM   10  C   UNL     1      -1.003   5.308 -32.476  1.00  0.00     0.009 A 
HETATM   11  C   UNL     1      -1.517   5.394 -31.181  1.00  0.00     0.002 A 
HETATM   12  C   UNL     1      -2.892   5.528 -30.979  1.00  0.00     0.020 A 
BRANCH   7  13
HETATM   13  O   UNL     1      -4.035   5.630 -34.483  1.00  0.00    -0.359 OA
HETATM   14  H   UNL     1      -4.926   5.901 -34.169  1.00  0.00     0.218 HD
ENDBRANCH   7  13
ENDBRANCH   3   6
ENDBRANCH   1   2
BRANCH   1  15
HETATM   15  C   UNL     1      -4.927   2.467 -30.799  1.00  0.00     0.026 C 
BRANCH  15  16
HETATM   16  C   UNL     1      -3.582   1.936 -31.293  1.00  0.00     0.060 C 
BRANCH  16  17
HETATM   17  C   UNL     1      -3.586   0.523 -31.769  1.00  0.00     0.030 A 
HETATM   18  N   UNL     1      -2.733  -0.457 -31.347  1.00  0.00    -0.282 N 
HETATM   19  H   UNL     1      -1.978  -0.389 -30.673  1.00  0.00     0.189 HD
HETATM   20  N   UNL     1      -2.953  -1.650 -31.917  1.00  0.00    -0.174 NA
HETATM   21  C   UNL     1      -4.005  -1.460 -32.731  1.00  0.00     0.089 A 
HETATM   22  C   UNL     1      -4.421  -0.102 -32.671  1.00  0.00     0.060 A 
BRANCH  21  23
HETATM   23  C   UNL     1      -4.581  -2.555 -33.525  1.00  0.00    -0.006 A 
HETATM   24  C   UNL     1      -3.967  -3.817 -33.549  1.00  0.00     0.014 A 
HETATM   25  C   UNL     1      -4.510  -4.867 -34.295  1.00  0.00     0.001 A 
HETATM   26  C   UNL     1      -5.678  -4.670 -35.028  1.00  0.00     0.000 A 
HETATM   27  C   UNL     1      -6.302  -3.425 -35.014  1.00  0.00     0.001 A 
HETATM   28  C   UNL     1      -5.758  -2.374 -34.268  1.00  0.00     0.014 A 
ENDBRANCH  21  23
ENDBRANCH  16  17
ENDBRANCH  15  16
ENDBRANCH   1  15
TORSDOF 7
ENDMDL
MODEL 7
REMARK VINA RESULT:      -8.2      4.375      7.802
REMARK  7 active torsions:
REMARK  status: ('A' for Active; 'I' for Inactive)
REMARK    1  A    between atoms: C_3  and  O_4 
REMARK    2  A    between atoms: C_5  and  C_6 
REMARK       I    between atoms: C_6  and  N_7 
REMARK    3  A    between atoms: N_7  and  C_8 
REMARK    4  A    between atoms: C_8  and  C_9 
REMARK    5  A    between atoms: C_9  and  C_10 
REMARK    6  A    between atoms: C_10  and  C_11 
REMARK    7  A    between atoms: C_15  and  C_16 
ROOT
HETATM    1  C   UNL     1      -6.109  -0.730 -31.634  1.00  0.00     0.126 C 
ENDROOT
BRANCH   1   2
HETATM    2  N   UNL     1      -4.791  -0.260 -32.071  1.00  0.00    -0.352 N 
HETATM    3  C   UNL     1      -4.011  -0.903 -33.039  1.00  0.00     0.256 C 
HETATM    4  O   UNL     1      -3.178  -0.307 -33.727  1.00  0.00    -0.267 OA
HETATM    5  C   UNL     1      -4.519   1.156 -31.859  1.00  0.00     0.152 C 
BRANCH   3   6
HETATM    6  C   UNL     1      -4.188  -2.345 -33.336  1.00  0.00     0.065 A 
HETATM    7  C   UNL     1      -5.118  -2.733 -34.316  1.00  0.00     0.087 A 
HETATM    8  C   UNL     1      -5.318  -4.085 -34.621  1.00  0.00    -0.028 A 
HETATM    9  C   UNL     1      -6.316  -4.498 -35.665  1.00  0.00     0.051 C 
HETATM   10  C   UNL     1      -4.552  -5.048 -33.952  1.00  0.00     0.009 A 
HETATM   11  C   UNL     1      -3.584  -4.667 -33.019  1.00  0.00     0.002 A 
HETATM   12  C   UNL     1      -3.388  -3.316 -32.725  1.00  0.00     0.020 A 
BRANCH   7  13
HETATM   13  O   UNL     1      -5.847  -1.807 -35.020  1.00  0.00    -0.359 OA
HETATM   14  H   UNL     1      -5.479  -1.776 -35.932  1.00  0.00     0.218 HD
ENDBRANCH   7  13
ENDBRANCH   3   6
ENDBRANCH   1   2
BRANCH   1  15
HETATM   15  C   UNL     1      -7.231   0.271 -31.928  1.00  0.00     0.026 C 
BRANCH  15  16
HETATM   16  C   UNL     1      -7.792   0.029 -33.330  1.00  0.00     0.060 C 
BRANCH  16  17
HETATM   17  C   UNL     1      -9.102   0.681 -33.617  1.00  0.00     0.030 A 
HETATM   18  N   UNL     1      -9.293   1.734 -34.466  1.00  0.00    -0.282 N 
HETATM   19  H   UNL     1      -8.602   2.235 -35.015  1.00  0.00     0.189 HD
HETATM   20  N   UNL     1     -10.570   2.127 -34.564  1.00  0.00    -0.174 NA
HETATM   21  C   UNL     1     -11.256   1.290 -33.767  1.00  0.00     0.089 A 
HETATM   22  C   UNL     1     -10.362   0.376 -33.147  1.00  0.00     0.060 A 
BRANCH  21  23
HETATM   23  C   UNL     1     -12.716   1.377 -33.623  1.00  0.00    -0.006 A 
HETATM   24  C   UNL     1     -13.294   2.330 -32.771  1.00  0.00     0.014 A 
HETATM   25  C   UNL     1     -14.681   2.426 -32.632  1.00  0.00     0.001 A 
HETATM   26  C   UNL     1     -15.513   1.567 -33.346  1.00  0.00     0.000 A 
HETATM   27  C   UNL     1     -14.958   0.615 -34.199  1.00  0.00     0.001 A 
HETATM   28  C   UNL     1     -13.570   0.520 -34.337  1.00  0.00     0.014 A 
ENDBRANCH  21  23
ENDBRANCH  16  17
ENDBRANCH  15  16
ENDBRANCH   1  15
TORSDOF 7
ENDMDL
MODEL 8
REMARK VINA RESULT:      -8.0      2.227      3.684
REMARK  7 active torsions:
REMARK  status: ('A' for Active; 'I' for Inactive)
REMARK    1  A    between atoms: C_3  and  O_4 
REMARK    2  A    between atoms: C_5  and  C_6 
REMARK       I    between atoms: C_6  and  N_7 
REMARK    3  A    between atoms: N_7  and  C_8 
REMARK    4  A    between atoms: C_8  and  C_9 
REMARK    5  A    between atoms: C_9  and  C_10 
REMARK    6  A    between atoms: C_10  and  C_11 
REMARK    7  A    between atoms: C_15  and  C_16 
ROOT
HETATM    1  C   UNL     1      -8.423   3.811 -32.562  1.00  0.00     0.126 C 
ENDROOT
BRANCH   1   2
HETATM    2  N   UNL     1      -8.582   3.839 -31.104  1.00  0.00    -0.352 N 
HETATM    3  C   UNL     1      -7.543   3.599 -30.197  1.00  0.00     0.256 C 
HETATM    4  O   UNL     1      -7.536   4.062 -29.054  1.00  0.00    -0.267 OA
HETATM    5  C   UNL     1      -9.709   4.615 -30.603  1.00  0.00     0.152 C 
BRANCH   3   6
HETATM    6  C   UNL     1      -6.349   2.812 -30.588  1.00  0.00     0.065 A 
HETATM    7  C   UNL     1      -5.167   3.489 -30.935  1.00  0.00     0.087 A 
HETATM    8  C   UNL     1      -4.019   2.782 -31.314  1.00  0.00    -0.028 A 
HETATM    9  C   UNL     1      -2.758   3.508 -31.689  1.00  0.00     0.051 C 
HETATM   10  C   UNL     1      -4.058   1.382 -31.315  1.00  0.00     0.009 A 
HETATM   11  C   UNL     1      -5.211   0.701 -30.915  1.00  0.00     0.002 A 
HETATM   12  C   UNL     1      -6.349   1.414 -30.534  1.00  0.00     0.020 A 
BRANCH   7  13
HETATM   13  O   UNL     1      -5.086   4.859 -30.896  1.00  0.00    -0.359 OA
HETATM   14  H   UNL     1      -4.783   5.109 -29.994  1.00  0.00     0.218 HD
ENDBRANCH   7  13
ENDBRANCH   3   6
ENDBRANCH   1   2
BRANCH   1  15
HETATM   15  C   UNL     1      -9.553   3.059 -33.273  1.00  0.00     0.026 C 
BRANCH  15  16
HETATM   16  C   UNL     1      -9.591   1.605 -32.800  1.00  0.00     0.060 C 
BRANCH  16  17
HETATM   17  C   UNL     1      -8.725   0.660 -33.561  1.00  0.00     0.030 A 
HETATM   18  N   UNL     1      -8.434   0.751 -34.893  1.00  0.00    -0.282 N 
HETATM   19  H   UNL     1      -8.754   1.442 -35.563  1.00  0.00     0.189 HD
HETATM   20  N   UNL     1      -7.618  -0.214 -35.337  1.00  0.00    -0.174 NA
HETATM   21  C   UNL     1      -7.338  -0.961 -34.255  1.00  0.00     0.089 A 
HETATM   22  C   UNL     1      -8.027  -0.445 -33.123  1.00  0.00     0.060 A 
BRANCH  21  23
HETATM   23  C   UNL     1      -6.435  -2.119 -34.322  1.00  0.00    -0.006 A 
HETATM   24  C   UNL     1      -5.106  -2.013 -33.883  1.00  0.00     0.014 A 
HETATM   25  C   UNL     1      -4.241  -3.109 -33.936  1.00  0.00     0.001 A 
HETATM   26  C   UNL     1      -4.693  -4.331 -34.429  1.00  0.00     0.000 A 
HETATM   27  C   UNL     1      -6.010  -4.455 -34.868  1.00  0.00     0.001 A 
HETATM   28  C   UNL     1      -6.875  -3.357 -34.815  1.00  0.00     0.014 A 
ENDBRANCH  21  23
ENDBRANCH  16  17
ENDBRANCH  15  16
ENDBRANCH   1  15
TORSDOF 7
ENDMDL
MODEL 9
REMARK VINA RESULT:      -8.0      1.505      2.043
REMARK  7 active torsions:
REMARK  status: ('A' for Active; 'I' for Inactive)
REMARK    1  A    between atoms: C_3  and  O_4 
REMARK    2  A    between atoms: C_5  and  C_6 
REMARK       I    between atoms: C_6  and  N_7 
REMARK    3  A    between atoms: N_7  and  C_8 
REMARK    4  A    between atoms: C_8  and  C_9 
REMARK    5  A    between atoms: C_9  and  C_10 
REMARK    6  A    between atoms: C_10  and  C_11 
REMARK    7  A    between atoms: C_15  and  C_16 
ROOT
HETATM    1  C   UNL     1      -5.101   3.513 -30.883  1.00  0.00     0.126 C 
ENDROOT
BRANCH   1   2
HETATM    2  N   UNL     1      -5.372   4.937 -30.664  1.00  0.00    -0.352 N 
HETATM    3  C   UNL     1      -4.804   5.969 -31.420  1.00  0.00     0.256 C 
HETATM    4  O   UNL     1      -5.349   7.067 -31.566  1.00  0.00    -0.267 OA
HETATM    5  C   UNL     1      -6.623   5.248 -29.985  1.00  0.00     0.152 C 
BRANCH   3   6
HETATM    6  C   UNL     1      -3.526   5.776 -32.147  1.00  0.00     0.065 A 
HETATM    7  C   UNL     1      -2.320   5.784 -31.424  1.00  0.00     0.087 A 
HETATM    8  C   UNL     1      -1.092   5.610 -32.074  1.00  0.00    -0.028 A 
HETATM    9  C   UNL     1       0.196   5.624 -31.301  1.00  0.00     0.051 C 
HETATM   10  C   UNL     1      -1.086   5.397 -33.459  1.00  0.00     0.009 A 
HETATM   11  C   UNL     1      -2.284   5.329 -34.174  1.00  0.00     0.002 A 
HETATM   12  C   UNL     1      -3.504   5.498 -33.517  1.00  0.00     0.020 A 
BRANCH   7  13
HETATM   13  O   UNL     1      -2.302   5.942 -30.060  1.00  0.00    -0.359 OA
HETATM   14  H   UNL     1      -3.109   5.508 -29.704  1.00  0.00     0.218 HD
ENDBRANCH   7  13
ENDBRANCH   3   6
ENDBRANCH   1   2
BRANCH   1  15
HETATM   15  C   UNL     1      -6.251   2.785 -31.586  1.00  0.00     0.026 C 
BRANCH  15  16
HETATM   16  C   UNL     1      -5.968   2.685 -33.085  1.00  0.00     0.060 C 
BRANCH  16  17
HETATM   17  C   UNL     1      -6.155   1.333 -33.684  1.00  0.00     0.030 A 
HETATM   18  N   UNL     1      -6.977   1.040 -34.735  1.00  0.00    -0.282 N 
HETATM   19  H   UNL     1      -7.581   1.666 -35.257  1.00  0.00     0.189 HD
HETATM   20  N   UNL     1      -6.955  -0.250 -35.098  1.00  0.00    -0.174 NA
HETATM   21  C   UNL     1      -6.069  -0.831 -34.271  1.00  0.00     0.089 A 
HETATM   22  C   UNL     1      -5.555   0.134 -33.362  1.00  0.00     0.060 A 
BRANCH  21  23
HETATM   23  C   UNL     1      -5.735  -2.259 -34.369  1.00  0.00    -0.006 A 
HETATM   24  C   UNL     1      -4.464  -2.721 -33.994  1.00  0.00     0.014 A 
HETATM   25  C   UNL     1      -4.138  -4.078 -34.076  1.00  0.00     0.001 A 
HETATM   26  C   UNL     1      -5.082  -4.994 -34.535  1.00  0.00     0.000 A 
HETATM   27  C   UNL     1      -6.350  -4.554 -34.909  1.00  0.00     0.001 A 
HETATM   28  C   UNL     1      -6.674  -3.196 -34.827  1.00  0.00     0.014 A 
ENDBRANCH  21  23
ENDBRANCH  16  17
ENDBRANCH  15  16
ENDBRANCH   1  15
TORSDOF 7
ENDMDL
MODEL 10
REMARK VINA RESULT:      -7.9      4.864      7.643
REMARK  7 active torsions:
REMARK  status: ('A' for Active; 'I' for Inactive)
REMARK    1  A    between atoms: C_3  and  O_4 
REMARK    2  A    between atoms: C_5  and  C_6 
REMARK       I    between atoms: C_6  and  N_7 
REMARK    3  A    between atoms: N_7  and  C_8 
REMARK    4  A    between atoms: C_8  and  C_9 
REMARK    5  A    between atoms: C_9  and  C_10 
REMARK    6  A    between atoms: C_10  and  C_11 
REMARK    7  A    between atoms: C_15  and  C_16 
ROOT
HETATM    1  C   UNL     1     -10.355   4.078 -31.911  1.00  0.00     0.126 C 
ENDROOT
BRANCH   1   2
HETATM    2  N   UNL     1     -10.022   4.169 -33.336  1.00  0.00    -0.352 N 
HETATM    3  C   UNL     1     -10.674   3.445 -34.342  1.00  0.00     0.256 C 
HETATM    4  O   UNL     1     -10.739   3.838 -35.510  1.00  0.00    -0.267 OA
HETATM    5  C   UNL     1      -9.350   5.393 -33.754  1.00  0.00     0.152 C 
BRANCH   3   6
HETATM    6  C   UNL     1     -11.383   2.178 -34.040  1.00  0.00     0.065 A 
HETATM    7  C   UNL     1     -12.765   2.094 -34.282  1.00  0.00     0.087 A 
HETATM    8  C   UNL     1     -13.472   0.917 -34.006  1.00  0.00    -0.028 A 
HETATM    9  C   UNL     1     -14.950   0.829 -34.261  1.00  0.00     0.051 C 
HETATM   10  C   UNL     1     -12.771  -0.190 -33.509  1.00  0.00     0.009 A 
HETATM   11  C   UNL     1     -11.388  -0.132 -33.322  1.00  0.00     0.002 A 
HETATM   12  C   UNL     1     -10.691   1.044 -33.605  1.00  0.00     0.020 A 
BRANCH   7  13
HETATM   13  O   UNL     1     -13.467   3.147 -34.814  1.00  0.00    -0.359 OA
HETATM   14  H   UNL     1     -13.559   3.824 -34.106  1.00  0.00     0.218 HD
ENDBRANCH   7  13
ENDBRANCH   3   6
ENDBRANCH   1   2
BRANCH   1  15
HETATM   15  C   UNL     1      -9.147   4.310 -30.998  1.00  0.00     0.026 C 
BRANCH  15  16
HETATM   16  C   UNL     1      -8.588   2.969 -30.521  1.00  0.00     0.060 C 
BRANCH  16  17
HETATM   17  C   UNL     1      -7.779   2.219 -31.524  1.00  0.00     0.030 A 
HETATM   18  N   UNL     1      -6.897   2.775 -32.406  1.00  0.00    -0.282 N 
HETATM   19  H   UNL     1      -6.660   3.755 -32.528  1.00  0.00     0.189 HD
HETATM   20  N   UNL     1      -6.281   1.883 -33.194  1.00  0.00    -0.174 NA
HETATM   21  C   UNL     1      -6.757   0.687 -32.806  1.00  0.00     0.089 A 
HETATM   22  C   UNL     1      -7.710   0.863 -31.765  1.00  0.00     0.060 A 
BRANCH  21  23
HETATM   23  C   UNL     1      -6.297  -0.567 -33.418  1.00  0.00    -0.006 A 
HETATM   24  C   UNL     1      -4.937  -0.914 -33.399  1.00  0.00     0.014 A 
HETATM   25  C   UNL     1      -4.490  -2.107 -33.972  1.00  0.00     0.001 A 
HETATM   26  C   UNL     1      -5.399  -2.975 -34.573  1.00  0.00     0.000 A 
HETATM   27  C   UNL     1      -6.753  -2.648 -34.600  1.00  0.00     0.001 A 
HETATM   28  C   UNL     1      -7.200  -1.453 -34.027  1.00  0.00     0.014 A 
ENDBRANCH  21  23
ENDBRANCH  16  17
ENDBRANCH  15  16
ENDBRANCH   1  15
TORSDOF 7
ENDMDL
