MODEL 1
REMARK VINA RESULT:      -8.9      0.000      0.000
REMARK  12 active torsions:
REMARK  status: ('A' for Active; 'I' for Inactive)
REMARK    1  A    between atoms: C_2  and  N_3 
REMARK    2  A    between atoms: N_3  and  C_5 
REMARK    3  A    between atoms: N_3  and  C_37 
REMARK    4  A    between atoms: C_5  and  C_6 
REMARK    5  A    between atoms: C_6  and  C_7 
REMARK    6  A    between atoms: C_7  and  N_8 
REMARK    7  A    between atoms: N_8  and  C_9 
REMARK    8  A    between atoms: C_9  and  N_10 
REMARK    9  A    between atoms: N_10  and  C_11 
REMARK   10  A    between atoms: N_10  and  C_26 
REMARK   11  A    between atoms: C_11  and  C_12 
REMARK   12  A    between atoms: C_26  and  C_27 
ROOT
HETATM    1  N   UNL     1      -5.692   0.776 -32.602  1.00  0.00    -0.350 N 
ENDROOT
BRANCH   1   2
HETATM    2  C   UNL     1      -4.476   1.331 -32.159  1.00  0.00     0.170 C 
HETATM    3  S   UNL     1      -3.286   0.486 -31.322  1.00  0.00    -0.041 SA
BRANCH   2   4
HETATM    4  N   UNL     1      -4.303   2.661 -32.510  1.00  0.00    -0.367 N 
HETATM    5  H   UNL     1      -5.093   3.268 -32.325  1.00  0.00     0.161 HD
BRANCH   4   6
HETATM    6  C   UNL     1      -3.021   3.322 -32.698  1.00  0.00     0.123 C 
BRANCH   6   7
HETATM    7  C   UNL     1      -2.662   4.194 -31.499  1.00  0.00     0.047 C 
BRANCH   7   8
HETATM    8  C   UNL     1      -2.979   5.651 -31.803  1.00  0.00     0.236 C 
BRANCH   8   9
HETATM    9  N   UNL     1      -1.741   6.476 -32.124  1.00  0.00    -0.072 N 
HETATM   10  H   UNL     1      -1.815   7.317 -31.535  1.00  0.00     0.279 HD
BRANCH   9  11
HETATM   11  C   UNL     1      -1.678   6.993 -33.554  1.00  0.00     0.230 C 
HETATM   12  C   UNL     1      -1.194   5.921 -34.514  1.00  0.00     0.034 C 
ENDBRANCH   9  11
BRANCH   9  13
HETATM   13  C   UNL     1      -0.420   5.829 -31.739  1.00  0.00     0.230 C 
HETATM   14  C   UNL     1       0.543   6.836 -31.136  1.00  0.00     0.034 C 
ENDBRANCH   9  13
ENDBRANCH   8   9
ENDBRANCH   7   8
ENDBRANCH   6   7
ENDBRANCH   4   6
ENDBRANCH   2   4
ENDBRANCH   1   2
BRANCH   1  15
HETATM   15  C   UNL     1      -6.790   0.412 -31.685  1.00  0.00     0.169 C 
BRANCH  15  16
HETATM   16  C   UNL     1      -8.130   0.927 -32.143  1.00  0.00     0.029 A 
HETATM   17  C   UNL     1      -8.293   2.414 -32.164  1.00  0.00     0.253 A 
HETATM   18  O   UNL     1      -7.344   3.173 -31.977  1.00  0.00    -0.268 OA
HETATM   19  N   UNL     1      -9.535   2.913 -32.452  1.00  0.00    -0.322 N 
HETATM   20  C   UNL     1     -10.617   2.116 -32.842  1.00  0.00     0.048 A 
HETATM   21  H   UNL     1      -9.640   3.915 -32.397  1.00  0.00     0.169 HD
HETATM   22  C   UNL     1     -10.446   0.716 -32.910  1.00  0.00    -0.006 A 
HETATM   23  C   UNL     1     -11.829   2.720 -33.180  1.00  0.00     0.070 A 
HETATM   24  C   UNL     1     -11.506  -0.096 -33.327  1.00  0.00     0.053 A 
HETATM   25  C   UNL     1      -9.157   0.144 -32.519  1.00  0.00     0.028 A 
HETATM   26  C   UNL     1     -12.692   0.523 -33.664  1.00  0.00     0.106 A 
HETATM   27  C   UNL     1     -12.849   1.889 -33.592  1.00  0.00     0.107 A 
HETATM   28  O   UNL     1     -13.820  -0.102 -34.095  1.00  0.00    -0.323 OA
HETATM   29  O   UNL     1     -14.090   2.290 -33.974  1.00  0.00    -0.323 OA
HETATM   30  C   UNL     1     -14.711   1.020 -34.270  1.00  0.00     0.352 A 
ENDBRANCH  15  16
ENDBRANCH   1  15
BRANCH   1  31
HETATM   31  C   UNL     1      -5.849   0.288 -33.990  1.00  0.00     0.164 C 
BRANCH  31  32
HETATM   32  C   UNL     1      -5.756  -1.214 -34.146  1.00  0.00    -0.037 A 
HETATM   33  C   UNL     1      -4.570  -1.904 -33.841  1.00  0.00     0.048 A 
HETATM   34  C   UNL     1      -4.544  -3.273 -34.017  1.00  0.00     0.105 A 
HETATM   35  C   UNL     1      -5.631  -3.968 -34.489  1.00  0.00     0.105 A 
HETATM   36  O   UNL     1      -3.483  -4.085 -33.761  1.00  0.00    -0.323 OA
HETATM   37  O   UNL     1      -5.393  -5.302 -34.593  1.00  0.00    -0.323 OA
HETATM   38  C   UNL     1      -6.806  -3.332 -34.814  1.00  0.00     0.040 A 
HETATM   39  C   UNL     1      -4.022  -5.367 -34.151  1.00  0.00     0.352 A 
HETATM   40  C   UNL     1      -6.863  -1.946 -34.643  1.00  0.00     0.012 A 
ENDBRANCH  31  32
ENDBRANCH   1  31
TORSDOF 12
ENDMDL
MODEL 2
REMARK VINA RESULT:      -8.8      2.678      8.519
REMARK  12 active torsions:
REMARK  status: ('A' for Active; 'I' for Inactive)
REMARK    1  A    between atoms: C_2  and  N_3 
REMARK    2  A    between atoms: N_3  and  C_5 
REMARK    3  A    between atoms: N_3  and  C_37 
REMARK    4  A    between atoms: C_5  and  C_6 
REMARK    5  A    between atoms: C_6  and  C_7 
REMARK    6  A    between atoms: C_7  and  N_8 
REMARK    7  A    between atoms: N_8  and  C_9 
REMARK    8  A    between atoms: C_9  and  N_10 
REMARK    9  A    between atoms: N_10  and  C_11 
REMARK   10  A    between atoms: N_10  and  C_26 
REMARK   11  A    between atoms: C_11  and  C_12 
REMARK   12  A    between atoms: C_26  and  C_27 
ROOT
HETATM    1  N   UNL     1      -7.562   1.759 -32.250  1.00  0.00    -0.350 N 
ENDROOT
BRANCH   1   2
HETATM    2  C   UNL     1      -8.880   2.094 -31.884  1.00  0.00     0.170 C 
HETATM    3  S   UNL     1      -9.404   3.646 -31.500  1.00  0.00    -0.041 SA
BRANCH   2   4
HETATM    4  N   UNL     1      -9.759   1.021 -31.903  1.00  0.00    -0.367 N 
HETATM    5  H   UNL     1     -10.305   0.889 -31.059  1.00  0.00     0.161 HD
BRANCH   4   6
HETATM    6  C   UNL     1     -10.270   0.373 -33.100  1.00  0.00     0.123 C 
BRANCH   6   7
HETATM    7  C   UNL     1     -10.587   1.388 -34.193  1.00  0.00     0.047 C 
BRANCH   7   8
HETATM    8  C   UNL     1     -12.090   1.451 -34.424  1.00  0.00     0.236 C 
BRANCH   8   9
HETATM    9  N   UNL     1     -12.857   1.974 -33.217  1.00  0.00    -0.072 N 
HETATM   10  H   UNL     1     -12.326   1.649 -32.398  1.00  0.00     0.279 HD
BRANCH   9  11
HETATM   11  C   UNL     1     -14.252   1.388 -33.051  1.00  0.00     0.230 C 
HETATM   12  C   UNL     1     -14.742   0.742 -34.334  1.00  0.00     0.034 C 
ENDBRANCH   9  11
BRANCH   9  13
HETATM   13  C   UNL     1     -12.903   3.489 -33.092  1.00  0.00     0.230 C 
HETATM   14  C   UNL     1     -12.843   4.166 -34.450  1.00  0.00     0.034 C 
ENDBRANCH   9  13
ENDBRANCH   8   9
ENDBRANCH   7   8
ENDBRANCH   6   7
ENDBRANCH   4   6
ENDBRANCH   2   4
ENDBRANCH   1   2
BRANCH   1  15
HETATM   15  C   UNL     1      -6.934   2.226 -33.501  1.00  0.00     0.169 C 
BRANCH  15  16
HETATM   16  C   UNL     1      -5.881   3.279 -33.270  1.00  0.00     0.029 A 
HETATM   17  C   UNL     1      -6.199   4.650 -33.773  1.00  0.00     0.253 A 
HETATM   18  O   UNL     1      -7.314   4.942 -34.203  1.00  0.00    -0.268 OA
HETATM   19  N   UNL     1      -5.216   5.600 -33.695  1.00  0.00    -0.322 N 
HETATM   20  C   UNL     1      -3.986   5.388 -33.063  1.00  0.00     0.048 A 
HETATM   21  H   UNL     1      -5.428   6.500 -34.099  1.00  0.00     0.169 HD
HETATM   22  C   UNL     1      -3.712   4.120 -32.506  1.00  0.00    -0.006 A 
HETATM   23  C   UNL     1      -3.069   6.437 -32.973  1.00  0.00     0.070 A 
HETATM   24  C   UNL     1      -2.500   3.896 -31.844  1.00  0.00     0.053 A 
HETATM   25  C   UNL     1      -4.705   3.056 -32.656  1.00  0.00     0.028 A 
HETATM   26  C   UNL     1      -1.613   4.950 -31.761  1.00  0.00     0.106 A 
HETATM   27  C   UNL     1      -1.889   6.182 -32.309  1.00  0.00     0.107 A 
HETATM   28  O   UNL     1      -0.398   4.918 -31.152  1.00  0.00    -0.323 OA
HETATM   29  O   UNL     1      -0.886   7.076 -32.108  1.00  0.00    -0.323 OA
HETATM   30  C   UNL     1       0.070   6.262 -31.393  1.00  0.00     0.352 A 
ENDBRANCH  15  16
ENDBRANCH   1  15
BRANCH   1  31
HETATM   31  C   UNL     1      -6.811   0.710 -31.527  1.00  0.00     0.164 C 
BRANCH  31  32
HETATM   32  C   UNL     1      -6.170  -0.335 -32.415  1.00  0.00    -0.037 A 
HETATM   33  C   UNL     1      -6.951  -1.176 -33.226  1.00  0.00     0.048 A 
HETATM   34  C   UNL     1      -6.308  -2.119 -34.004  1.00  0.00     0.105 A 
HETATM   35  C   UNL     1      -4.942  -2.261 -33.995  1.00  0.00     0.105 A 
HETATM   36  O   UNL     1      -6.914  -2.998 -34.846  1.00  0.00    -0.323 OA
HETATM   37  O   UNL     1      -4.515  -3.249 -34.825  1.00  0.00    -0.323 OA
HETATM   38  C   UNL     1      -4.140  -1.471 -33.205  1.00  0.00     0.040 A 
HETATM   39  C   UNL     1      -5.772  -3.727 -35.346  1.00  0.00     0.352 A 
HETATM   40  C   UNL     1      -4.764  -0.505 -32.409  1.00  0.00     0.012 A 
ENDBRANCH  31  32
ENDBRANCH   1  31
TORSDOF 12
ENDMDL
MODEL 3
REMARK VINA RESULT:      -8.7      3.146      7.941
REMARK  12 active torsions:
REMARK  status: ('A' for Active; 'I' for Inactive)
REMARK    1  A    between atoms: C_2  and  N_3 
REMARK    2  A    between atoms: N_3  and  C_5 
REMARK    3  A    between atoms: N_3  and  C_37 
REMARK    4  A    between atoms: C_5  and  C_6 
REMARK    5  A    between atoms: C_6  and  C_7 
REMARK    6  A    between atoms: C_7  and  N_8 
REMARK    7  A    between atoms: N_8  and  C_9 
REMARK    8  A    between atoms: C_9  and  N_10 
REMARK    9  A    between atoms: N_10  and  C_11 
REMARK   10  A    between atoms: N_10  and  C_26 
REMARK   11  A    between atoms: C_11  and  C_12 
REMARK   12  A    between atoms: C_26  and  C_27 
ROOT
HETATM    1  N   UNL     1      -7.417   0.440 -33.134  1.00  0.00    -0.350 N 
ENDROOT
BRANCH   1   2
HETATM    2  C   UNL     1      -8.778   0.690 -33.394  1.00  0.00     0.170 C 
HETATM    3  S   UNL     1     -10.055  -0.204 -32.762  1.00  0.00    -0.041 SA
BRANCH   2   4
HETATM    4  N   UNL     1      -9.002   1.793 -34.204  1.00  0.00    -0.367 N 
HETATM    5  H   UNL     1      -9.454   1.599 -35.091  1.00  0.00     0.161 HD
BRANCH   4   6
HETATM    6  C   UNL     1      -9.056   3.174 -33.750  1.00  0.00     0.123 C 
BRANCH   6   7
HETATM    7  C   UNL     1     -10.474   3.732 -33.824  1.00  0.00     0.047 C 
BRANCH   7   8
HETATM    8  C   UNL     1     -11.241   3.372 -32.560  1.00  0.00     0.236 C 
BRANCH   8   9
HETATM    9  N   UNL     1     -12.603   2.756 -32.844  1.00  0.00    -0.072 N 
HETATM   10  H   UNL     1     -12.543   1.790 -32.496  1.00  0.00     0.279 HD
BRANCH   9  11
HETATM   11  C   UNL     1     -12.946   2.630 -34.322  1.00  0.00     0.230 C 
HETATM   12  C   UNL     1     -12.909   1.184 -34.782  1.00  0.00     0.034 C 
ENDBRANCH   9  11
BRANCH   9  13
HETATM   13  C   UNL     1     -13.763   3.385 -32.087  1.00  0.00     0.230 C 
HETATM   14  C   UNL     1     -14.935   2.429 -31.962  1.00  0.00     0.034 C 
ENDBRANCH   9  13
ENDBRANCH   8   9
ENDBRANCH   7   8
ENDBRANCH   6   7
ENDBRANCH   4   6
ENDBRANCH   2   4
ENDBRANCH   1   2
BRANCH   1  15
HETATM   15  C   UNL     1      -6.775   0.757 -31.844  1.00  0.00     0.169 C 
BRANCH  15  16
HETATM   16  C   UNL     1      -5.589   1.676 -31.990  1.00  0.00     0.029 A 
HETATM   17  C   UNL     1      -4.355   1.283 -31.243  1.00  0.00     0.253 A 
HETATM   18  O   UNL     1      -4.257   0.196 -30.676  1.00  0.00    -0.268 OA
HETATM   19  N   UNL     1      -3.302   2.158 -31.251  1.00  0.00    -0.322 N 
HETATM   20  C   UNL     1      -3.277   3.331 -32.013  1.00  0.00     0.048 A 
HETATM   21  H   UNL     1      -2.504   1.905 -30.687  1.00  0.00     0.169 HD
HETATM   22  C   UNL     1      -4.407   3.665 -32.792  1.00  0.00    -0.006 A 
HETATM   23  C   UNL     1      -2.132   4.130 -32.009  1.00  0.00     0.070 A 
HETATM   24  C   UNL     1      -4.391   4.817 -33.585  1.00  0.00     0.053 A 
HETATM   25  C   UNL     1      -5.584   2.798 -32.733  1.00  0.00     0.028 A 
HETATM   26  C   UNL     1      -3.246   5.587 -33.571  1.00  0.00     0.106 A 
HETATM   27  C   UNL     1      -2.151   5.254 -32.806  1.00  0.00     0.107 A 
HETATM   28  O   UNL     1      -3.050   6.730 -34.281  1.00  0.00    -0.323 OA
HETATM   29  O   UNL     1      -1.131   6.141 -32.946  1.00  0.00    -0.323 OA
HETATM   30  C   UNL     1      -1.715   7.090 -33.864  1.00  0.00     0.352 A 
ENDBRANCH  15  16
ENDBRANCH   1  15
BRANCH   1  31
HETATM   31  C   UNL     1      -6.484   0.076 -34.223  1.00  0.00     0.164 C 
BRANCH  31  32
HETATM   32  C   UNL     1      -6.120  -1.392 -34.279  1.00  0.00    -0.037 A 
HETATM   33  C   UNL     1      -4.858  -1.844 -33.860  1.00  0.00     0.048 A 
HETATM   34  C   UNL     1      -4.581  -3.194 -33.948  1.00  0.00     0.105 A 
HETATM   35  C   UNL     1      -5.494  -4.093 -34.443  1.00  0.00     0.105 A 
HETATM   36  O   UNL     1      -3.417  -3.790 -33.577  1.00  0.00    -0.323 OA
HETATM   37  O   UNL     1      -5.021  -5.367 -34.449  1.00  0.00    -0.323 OA
HETATM   38  C   UNL     1      -6.735  -3.693 -34.880  1.00  0.00     0.040 A 
HETATM   39  C   UNL     1      -3.695  -5.166 -33.920  1.00  0.00     0.352 A 
HETATM   40  C   UNL     1      -7.044  -2.332 -34.798  1.00  0.00     0.012 A 
ENDBRANCH  31  32
ENDBRANCH   1  31
TORSDOF 12
ENDMDL
MODEL 4
REMARK VINA RESULT:      -8.7      2.951      8.711
REMARK  12 active torsions:
REMARK  status: ('A' for Active; 'I' for Inactive)
REMARK    1  A    between atoms: C_2  and  N_3 
REMARK    2  A    between atoms: N_3  and  C_5 
REMARK    3  A    between atoms: N_3  and  C_37 
REMARK    4  A    between atoms: C_5  and  C_6 
REMARK    5  A    between atoms: C_6  and  C_7 
REMARK    6  A    between atoms: C_7  and  N_8 
REMARK    7  A    between atoms: N_8  and  C_9 
REMARK    8  A    between atoms: C_9  and  N_10 
REMARK    9  A    between atoms: N_10  and  C_11 
REMARK   10  A    between atoms: N_10  and  C_26 
REMARK   11  A    between atoms: C_11  and  C_12 
REMARK   12  A    between atoms: C_26  and  C_27 
ROOT
HETATM    1  N   UNL     1      -6.076   2.998 -31.870  1.00  0.00    -0.350 N 
ENDROOT
BRANCH   1   2
HETATM    2  C   UNL     1      -7.043   2.865 -30.856  1.00  0.00     0.170 C 
HETATM    3  S   UNL     1      -7.284   3.970 -29.610  1.00  0.00    -0.041 SA
BRANCH   2   4
HETATM    4  N   UNL     1      -7.843   1.739 -30.984  1.00  0.00    -0.367 N 
HETATM    5  H   UNL     1      -7.596   0.958 -30.388  1.00  0.00     0.161 HD
BRANCH   4   6
HETATM    6  C   UNL     1      -9.190   1.721 -31.532  1.00  0.00     0.123 C 
BRANCH   6   7
HETATM    7  C   UNL     1      -9.245   0.961 -32.853  1.00  0.00     0.047 C 
BRANCH   7   8
HETATM    8  C   UNL     1     -10.646   0.412 -33.079  1.00  0.00     0.236 C 
BRANCH   8   9
HETATM    9  N   UNL     1     -11.669   1.496 -33.387  1.00  0.00    -0.072 N 
HETATM   10  H   UNL     1     -11.770   2.029 -32.513  1.00  0.00     0.279 HD
BRANCH   9  11
HETATM   11  C   UNL     1     -13.064   0.979 -33.706  1.00  0.00     0.230 C 
HETATM   12  C   UNL     1     -13.138  -0.533 -33.594  1.00  0.00     0.034 C 
ENDBRANCH   9  11
BRANCH   9  13
HETATM   13  C   UNL     1     -11.233   2.513 -34.431  1.00  0.00     0.230 C 
HETATM   14  C   UNL     1     -12.301   2.725 -35.488  1.00  0.00     0.034 C 
ENDBRANCH   9  13
ENDBRANCH   8   9
ENDBRANCH   7   8
ENDBRANCH   6   7
ENDBRANCH   4   6
ENDBRANCH   2   4
ENDBRANCH   1   2
BRANCH   1  15
HETATM   15  C   UNL     1      -4.717   2.434 -31.761  1.00  0.00     0.169 C 
BRANCH  15  16
HETATM   16  C   UNL     1      -4.639   1.000 -32.219  1.00  0.00     0.029 A 
HETATM   17  C   UNL     1      -3.441   0.228 -31.767  1.00  0.00     0.253 A 
HETATM   18  O   UNL     1      -2.651   0.681 -30.940  1.00  0.00    -0.268 OA
HETATM   19  N   UNL     1      -3.273  -1.035 -32.266  1.00  0.00    -0.322 N 
HETATM   20  C   UNL     1      -4.218  -1.679 -33.073  1.00  0.00     0.048 A 
HETATM   21  H   UNL     1      -2.426  -1.515 -32.000  1.00  0.00     0.169 HD
HETATM   22  C   UNL     1      -5.395  -0.988 -33.433  1.00  0.00    -0.006 A 
HETATM   23  C   UNL     1      -3.991  -2.994 -33.482  1.00  0.00     0.070 A 
HETATM   24  C   UNL     1      -6.366  -1.624 -34.213  1.00  0.00     0.053 A 
HETATM   25  C   UNL     1      -5.561   0.398 -32.991  1.00  0.00     0.028 A 
HETATM   26  C   UNL     1      -6.124  -2.926 -34.600  1.00  0.00     0.106 A 
HETATM   27  C   UNL     1      -4.972  -3.590 -34.245  1.00  0.00     0.107 A 
HETATM   28  O   UNL     1      -6.954  -3.699 -35.350  1.00  0.00    -0.323 OA
HETATM   29  O   UNL     1      -4.938  -4.862 -34.722  1.00  0.00    -0.323 OA
HETATM   30  C   UNL     1      -6.188  -4.919 -35.443  1.00  0.00     0.352 A 
ENDBRANCH  15  16
ENDBRANCH   1  15
BRANCH   1  31
HETATM   31  C   UNL     1      -6.278   3.928 -33.003  1.00  0.00     0.164 C 
BRANCH  31  32
HETATM   32  C   UNL     1      -5.066   4.760 -33.361  1.00  0.00    -0.037 A 
HETATM   33  C   UNL     1      -4.525   5.685 -32.453  1.00  0.00     0.048 A 
HETATM   34  C   UNL     1      -3.426   6.424 -32.844  1.00  0.00     0.105 A 
HETATM   35  C   UNL     1      -2.864   6.288 -34.090  1.00  0.00     0.105 A 
HETATM   36  O   UNL     1      -2.782   7.349 -32.084  1.00  0.00    -0.323 OA
HETATM   37  O   UNL     1      -1.798   7.111 -34.273  1.00  0.00    -0.323 OA
HETATM   38  C   UNL     1      -3.369   5.407 -35.016  1.00  0.00     0.040 A 
HETATM   39  C   UNL     1      -1.764   7.797 -33.005  1.00  0.00     0.352 A 
HETATM   40  C   UNL     1      -4.480   4.642 -34.646  1.00  0.00     0.012 A 
ENDBRANCH  31  32
ENDBRANCH   1  31
TORSDOF 12
ENDMDL
MODEL 5
REMARK VINA RESULT:      -8.6      3.372      7.091
REMARK  12 active torsions:
REMARK  status: ('A' for Active; 'I' for Inactive)
REMARK    1  A    between atoms: C_2  and  N_3 
REMARK    2  A    between atoms: N_3  and  C_5 
REMARK    3  A    between atoms: N_3  and  C_37 
REMARK    4  A    between atoms: C_5  and  C_6 
REMARK    5  A    between atoms: C_6  and  C_7 
REMARK    6  A    between atoms: C_7  and  N_8 
REMARK    7  A    between atoms: N_8  and  C_9 
REMARK    8  A    between atoms: C_9  and  N_10 
REMARK    9  A    between atoms: N_10  and  C_11 
REMARK   10  A    between atoms: N_10  and  C_26 
REMARK   11  A    between atoms: C_11  and  C_12 
REMARK   12  A    between atoms: C_26  and  C_27 
ROOT
HETATM    1  N   UNL     1      -7.359   0.412 -33.306  1.00  0.00    -0.350 N 
ENDROOT
BRANCH   1   2
HETATM    2  C   UNL     1      -8.694   0.767 -33.577  1.00  0.00     0.170 C 
HETATM    3  S   UNL     1     -10.040   0.050 -32.868  1.00  0.00    -0.041 SA
BRANCH   2   4
HETATM    4  N   UNL     1      -8.826   1.819 -34.471  1.00  0.00    -0.367 N 
HETATM    5  H   UNL     1      -8.421   1.666 -35.388  1.00  0.00     0.161 HD
BRANCH   4   6
HETATM    6  C   UNL     1      -9.814   2.882 -34.380  1.00  0.00     0.123 C 
BRANCH   6   7
HETATM    7  C   UNL     1      -9.478   3.862 -33.260  1.00  0.00     0.047 C 
BRANCH   7   8
HETATM    8  C   UNL     1     -10.604   3.885 -32.236  1.00  0.00     0.236 C 
BRANCH   8   9
HETATM    9  N   UNL     1     -10.103   3.959 -30.801  1.00  0.00    -0.072 N 
HETATM   10  H   UNL     1     -10.907   3.687 -30.218  1.00  0.00     0.279 HD
BRANCH   9  11
HETATM   11  C   UNL     1      -9.723   5.356 -30.334  1.00  0.00     0.230 C 
HETATM   12  C   UNL     1     -10.838   6.353 -30.590  1.00  0.00     0.034 C 
ENDBRANCH   9  11
BRANCH   9  13
HETATM   13  C   UNL     1      -9.001   2.970 -30.453  1.00  0.00     0.230 C 
HETATM   14  C   UNL     1      -7.784   3.667 -29.874  1.00  0.00     0.034 C 
ENDBRANCH   9  13
ENDBRANCH   8   9
ENDBRANCH   7   8
ENDBRANCH   6   7
ENDBRANCH   4   6
ENDBRANCH   2   4
ENDBRANCH   1   2
BRANCH   1  15
HETATM   15  C   UNL     1      -6.712   0.655 -32.002  1.00  0.00     0.169 C 
BRANCH  15  16
HETATM   16  C   UNL     1      -5.546   1.605 -32.094  1.00  0.00     0.029 A 
HETATM   17  C   UNL     1      -4.341   1.250 -31.283  1.00  0.00     0.253 A 
HETATM   18  O   UNL     1      -4.243   0.169 -30.705  1.00  0.00    -0.268 OA
HETATM   19  N   UNL     1      -3.313   2.153 -31.244  1.00  0.00    -0.322 N 
HETATM   20  C   UNL     1      -3.282   3.323 -32.013  1.00  0.00     0.048 A 
HETATM   21  H   UNL     1      -2.538   1.925 -30.639  1.00  0.00     0.169 HD
HETATM   22  C   UNL     1      -4.379   3.621 -32.849  1.00  0.00    -0.006 A 
HETATM   23  C   UNL     1      -2.161   4.152 -31.956  1.00  0.00     0.070 A 
HETATM   24  C   UNL     1      -4.354   4.769 -33.648  1.00  0.00     0.053 A 
HETATM   25  C   UNL     1      -5.534   2.722 -32.844  1.00  0.00     0.028 A 
HETATM   26  C   UNL     1      -3.233   5.570 -33.582  1.00  0.00     0.106 A 
HETATM   27  C   UNL     1      -2.169   5.271 -32.761  1.00  0.00     0.107 A 
HETATM   28  O   UNL     1      -3.031   6.714 -34.289  1.00  0.00    -0.323 OA
HETATM   29  O   UNL     1      -1.168   6.185 -32.854  1.00  0.00    -0.323 OA
HETATM   30  C   UNL     1      -1.730   7.113 -33.808  1.00  0.00     0.352 A 
ENDBRANCH  15  16
ENDBRANCH   1  15
BRANCH   1  31
HETATM   31  C   UNL     1      -6.441   0.001 -34.392  1.00  0.00     0.164 C 
BRANCH  31  32
HETATM   32  C   UNL     1      -6.077  -1.467 -34.390  1.00  0.00    -0.037 A 
HETATM   33  C   UNL     1      -4.819  -1.903 -33.939  1.00  0.00     0.048 A 
HETATM   34  C   UNL     1      -4.542  -3.256 -33.975  1.00  0.00     0.105 A 
HETATM   35  C   UNL     1      -5.450  -4.173 -34.447  1.00  0.00     0.105 A 
HETATM   36  O   UNL     1      -3.383  -3.838 -33.568  1.00  0.00    -0.323 OA
HETATM   37  O   UNL     1      -4.976  -5.446 -34.401  1.00  0.00    -0.323 OA
HETATM   38  C   UNL     1      -6.685  -3.789 -34.913  1.00  0.00     0.040 A 
HETATM   39  C   UNL     1      -3.657  -5.225 -33.863  1.00  0.00     0.352 A 
HETATM   40  C   UNL     1      -6.995  -2.426 -34.885  1.00  0.00     0.012 A 
ENDBRANCH  31  32
ENDBRANCH   1  31
TORSDOF 12
ENDMDL
MODEL 6
REMARK VINA RESULT:      -8.6      2.785      8.291
REMARK  12 active torsions:
REMARK  status: ('A' for Active; 'I' for Inactive)
REMARK    1  A    between atoms: C_2  and  N_3 
REMARK    2  A    between atoms: N_3  and  C_5 
REMARK    3  A    between atoms: N_3  and  C_37 
REMARK    4  A    between atoms: C_5  and  C_6 
REMARK    5  A    between atoms: C_6  and  C_7 
REMARK    6  A    between atoms: C_7  and  N_8 
REMARK    7  A    between atoms: N_8  and  C_9 
REMARK    8  A    between atoms: C_9  and  N_10 
REMARK    9  A    between atoms: N_10  and  C_11 
REMARK   10  A    between atoms: N_10  and  C_26 
REMARK   11  A    between atoms: C_11  and  C_12 
REMARK   12  A    between atoms: C_26  and  C_27 
ROOT
HETATM    1  N   UNL     1      -8.604   1.745 -32.973  1.00  0.00    -0.350 N 
ENDROOT
BRANCH   1   2
HETATM    2  C   UNL     1      -9.268   2.422 -31.932  1.00  0.00     0.170 C 
HETATM    3  S   UNL     1      -8.530   2.976 -30.525  1.00  0.00    -0.041 SA
BRANCH   2   4
HETATM    4  N   UNL     1     -10.615   2.646 -32.175  1.00  0.00    -0.367 N 
HETATM    5  H   UNL     1     -11.188   1.814 -32.258  1.00  0.00     0.161 HD
BRANCH   4   6
HETATM    6  C   UNL     1     -11.325   3.885 -31.899  1.00  0.00     0.123 C 
BRANCH   6   7
HETATM    7  C   UNL     1     -12.834   3.701 -32.018  1.00  0.00     0.047 C 
BRANCH   7   8
HETATM    8  C   UNL     1     -13.295   4.079 -33.419  1.00  0.00     0.236 C 
BRANCH   8   9
HETATM    9  N   UNL     1     -13.655   2.873 -34.274  1.00  0.00    -0.072 N 
HETATM   10  H   UNL     1     -14.530   3.131 -34.752  1.00  0.00     0.279 HD
BRANCH   9  11
HETATM   11  C   UNL     1     -13.985   1.614 -33.486  1.00  0.00     0.230 C 
HETATM   12  C   UNL     1     -14.950   0.719 -34.241  1.00  0.00     0.034 C 
ENDBRANCH   9  11
BRANCH   9  13
HETATM   13  C   UNL     1     -12.668   2.555 -35.385  1.00  0.00     0.230 C 
HETATM   14  C   UNL     1     -11.670   3.681 -35.588  1.00  0.00     0.034 C 
ENDBRANCH   9  13
ENDBRANCH   8   9
ENDBRANCH   7   8
ENDBRANCH   6   7
ENDBRANCH   4   6
ENDBRANCH   2   4
ENDBRANCH   1   2
BRANCH   1  15
HETATM   15  C   UNL     1      -7.982   2.442 -34.115  1.00  0.00     0.169 C 
BRANCH  15  16
HETATM   16  C   UNL     1      -6.873   3.374 -33.699  1.00  0.00     0.029 A 
HETATM   17  C   UNL     1      -7.137   4.834 -33.877  1.00  0.00     0.253 A 
HETATM   18  O   UNL     1      -8.248   5.260 -34.189  1.00  0.00    -0.268 OA
HETATM   19  N   UNL     1      -6.107   5.701 -33.629  1.00  0.00    -0.322 N 
HETATM   20  C   UNL     1      -4.871   5.304 -33.106  1.00  0.00     0.048 A 
HETATM   21  H   UNL     1      -6.286   6.677 -33.818  1.00  0.00     0.169 HD
HETATM   22  C   UNL     1      -4.645   3.934 -32.852  1.00  0.00    -0.006 A 
HETATM   23  C   UNL     1      -3.903   6.269 -32.823  1.00  0.00     0.070 A 
HETATM   24  C   UNL     1      -3.428   3.520 -32.301  1.00  0.00     0.053 A 
HETATM   25  C   UNL     1      -5.693   2.972 -33.193  1.00  0.00     0.028 A 
HETATM   26  C   UNL     1      -2.488   4.491 -32.022  1.00  0.00     0.106 A 
HETATM   27  C   UNL     1      -2.718   5.824 -32.276  1.00  0.00     0.107 A 
HETATM   28  O   UNL     1      -1.259   4.275 -31.481  1.00  0.00    -0.323 OA
HETATM   29  O   UNL     1      -1.667   6.609 -31.921  1.00  0.00    -0.323 OA
HETATM   30  C   UNL     1      -0.734   5.618 -31.439  1.00  0.00     0.352 A 
ENDBRANCH  15  16
ENDBRANCH   1  15
BRANCH   1  31
HETATM   31  C   UNL     1      -8.709   0.276 -33.119  1.00  0.00     0.164 C 
BRANCH  31  32
HETATM   32  C   UNL     1      -7.382  -0.448 -33.183  1.00  0.00    -0.037 A 
HETATM   33  C   UNL     1      -6.423  -0.300 -32.166  1.00  0.00     0.048 A 
HETATM   34  C   UNL     1      -5.226  -0.977 -32.289  1.00  0.00     0.105 A 
HETATM   35  C   UNL     1      -4.947  -1.771 -33.375  1.00  0.00     0.105 A 
HETATM   36  O   UNL     1      -4.204  -0.948 -31.393  1.00  0.00    -0.323 OA
HETATM   37  O   UNL     1      -3.714  -2.339 -33.302  1.00  0.00    -0.323 OA
HETATM   38  C   UNL     1      -5.848  -1.932 -34.401  1.00  0.00     0.040 A 
HETATM   39  C   UNL     1      -3.239  -1.796 -32.053  1.00  0.00     0.352 A 
HETATM   40  C   UNL     1      -7.071  -1.261 -34.301  1.00  0.00     0.012 A 
ENDBRANCH  31  32
ENDBRANCH   1  31
TORSDOF 12
ENDMDL
MODEL 7
REMARK VINA RESULT:      -8.5      2.054      2.915
REMARK  12 active torsions:
REMARK  status: ('A' for Active; 'I' for Inactive)
REMARK    1  A    between atoms: C_2  and  N_3 
REMARK    2  A    between atoms: N_3  and  C_5 
REMARK    3  A    between atoms: N_3  and  C_37 
REMARK    4  A    between atoms: C_5  and  C_6 
REMARK    5  A    between atoms: C_6  and  C_7 
REMARK    6  A    between atoms: C_7  and  N_8 
REMARK    7  A    between atoms: N_8  and  C_9 
REMARK    8  A    between atoms: C_9  and  N_10 
REMARK    9  A    between atoms: N_10  and  C_11 
REMARK   10  A    between atoms: N_10  and  C_26 
REMARK   11  A    between atoms: C_11  and  C_12 
REMARK   12  A    between atoms: C_26  and  C_27 
ROOT
HETATM    1  N   UNL     1      -6.703   0.669 -32.705  1.00  0.00    -0.350 N 
ENDROOT
BRANCH   1   2
HETATM    2  C   UNL     1      -5.766   1.213 -31.805  1.00  0.00     0.170 C 
HETATM    3  S   UNL     1      -5.902   1.154 -30.129  1.00  0.00    -0.041 SA
BRANCH   2   4
HETATM    4  N   UNL     1      -4.662   1.784 -32.418  1.00  0.00    -0.367 N 
HETATM    5  H   UNL     1      -4.860   2.354 -33.233  1.00  0.00     0.161 HD
BRANCH   4   6
HETATM    6  C   UNL     1      -3.368   2.000 -31.790  1.00  0.00     0.123 C 
BRANCH   6   7
HETATM    7  C   UNL     1      -3.109   3.482 -31.539  1.00  0.00     0.047 C 
BRANCH   7   8
HETATM    8  C   UNL     1      -2.500   4.121 -32.779  1.00  0.00     0.236 C 
BRANCH   8   9
HETATM    9  N   UNL     1      -3.076   5.495 -33.085  1.00  0.00    -0.072 N 
HETATM   10  H   UNL     1      -2.799   6.089 -32.292  1.00  0.00     0.279 HD
BRANCH   9  11
HETATM   11  C   UNL     1      -4.596   5.552 -33.118  1.00  0.00     0.230 C 
HETATM   12  C   UNL     1      -5.158   4.805 -34.314  1.00  0.00     0.034 C 
ENDBRANCH   9  11
BRANCH   9  13
HETATM   13  C   UNL     1      -2.497   6.174 -34.317  1.00  0.00     0.230 C 
HETATM   14  C   UNL     1      -1.299   5.419 -34.863  1.00  0.00     0.034 C 
ENDBRANCH   9  13
ENDBRANCH   8   9
ENDBRANCH   7   8
ENDBRANCH   6   7
ENDBRANCH   4   6
ENDBRANCH   2   4
ENDBRANCH   1   2
BRANCH   1  15
HETATM   15  C   UNL     1      -8.064   0.269 -32.303  1.00  0.00     0.169 C 
BRANCH  15  16
HETATM   16  C   UNL     1      -9.136   1.123 -32.929  1.00  0.00     0.029 A 
HETATM   17  C   UNL     1     -10.448   0.454 -33.183  1.00  0.00     0.253 A 
HETATM   18  O   UNL     1     -10.694  -0.675 -32.761  1.00  0.00    -0.268 OA
HETATM   19  N   UNL     1     -11.401   1.162 -33.865  1.00  0.00    -0.322 N 
HETATM   20  C   UNL     1     -11.256   2.507 -34.224  1.00  0.00     0.048 A 
HETATM   21  H   UNL     1     -12.255   0.671 -34.084  1.00  0.00     0.169 HD
HETATM   22  C   UNL     1     -10.051   3.173 -33.908  1.00  0.00    -0.006 A 
HETATM   23  C   UNL     1     -12.309   3.167 -34.860  1.00  0.00     0.070 A 
HETATM   24  C   UNL     1      -9.898   4.525 -34.231  1.00  0.00     0.053 A 
HETATM   25  C   UNL     1      -8.977   2.418 -33.262  1.00  0.00     0.028 A 
HETATM   26  C   UNL     1     -10.954   5.158 -34.852  1.00  0.00     0.106 A 
HETATM   27  C   UNL     1     -12.123   4.499 -35.158  1.00  0.00     0.107 A 
HETATM   28  O   UNL     1     -10.985   6.464 -35.231  1.00  0.00    -0.323 OA
HETATM   29  O   UNL     1     -13.034   5.309 -35.759  1.00  0.00    -0.323 OA
HETATM   30  C   UNL     1     -12.298   6.550 -35.826  1.00  0.00     0.352 A 
ENDBRANCH  15  16
ENDBRANCH   1  15
BRANCH   1  31
HETATM   31  C   UNL     1      -6.296   0.230 -34.059  1.00  0.00     0.164 C 
BRANCH  31  32
HETATM   32  C   UNL     1      -5.993  -1.247 -34.178  1.00  0.00    -0.037 A 
HETATM   33  C   UNL     1      -4.769  -1.776 -33.734  1.00  0.00     0.048 A 
HETATM   34  C   UNL     1      -4.546  -3.131 -33.883  1.00  0.00     0.105 A 
HETATM   35  C   UNL     1      -5.475  -3.962 -34.461  1.00  0.00     0.105 A 
HETATM   36  O   UNL     1      -3.425  -3.797 -33.499  1.00  0.00    -0.323 OA
HETATM   37  O   UNL     1      -5.056  -5.254 -34.516  1.00  0.00    -0.323 OA
HETATM   38  C   UNL     1      -6.679  -3.486 -34.924  1.00  0.00     0.040 A 
HETATM   39  C   UNL     1      -3.747  -5.139 -33.925  1.00  0.00     0.352 A 
HETATM   40  C   UNL     1      -6.933  -2.118 -34.782  1.00  0.00     0.012 A 
ENDBRANCH  31  32
ENDBRANCH   1  31
TORSDOF 12
ENDMDL
MODEL 8
REMARK VINA RESULT:      -8.5      2.852      8.574
REMARK  12 active torsions:
REMARK  status: ('A' for Active; 'I' for Inactive)
REMARK    1  A    between atoms: C_2  and  N_3 
REMARK    2  A    between atoms: N_3  and  C_5 
REMARK    3  A    between atoms: N_3  and  C_37 
REMARK    4  A    between atoms: C_5  and  C_6 
REMARK    5  A    between atoms: C_6  and  C_7 
REMARK    6  A    between atoms: C_7  and  N_8 
REMARK    7  A    between atoms: N_8  and  C_9 
REMARK    8  A    between atoms: C_9  and  N_10 
REMARK    9  A    between atoms: N_10  and  C_11 
REMARK   10  A    between atoms: N_10  and  C_26 
REMARK   11  A    between atoms: C_11  and  C_12 
REMARK   12  A    between atoms: C_26  and  C_27 
ROOT
HETATM    1  N   UNL     1      -5.529   4.230 -32.912  1.00  0.00    -0.350 N 
ENDROOT
BRANCH   1   2
HETATM    2  C   UNL     1      -6.687   5.018 -33.056  1.00  0.00     0.170 C 
HETATM    3  S   UNL     1      -7.032   6.391 -32.147  1.00  0.00    -0.041 SA
BRANCH   2   4
HETATM    4  N   UNL     1      -7.536   4.591 -34.066  1.00  0.00    -0.367 N 
HETATM    5  H   UNL     1      -7.102   4.038 -34.796  1.00  0.00     0.161 HD
BRANCH   4   6
HETATM    6  C   UNL     1      -8.982   4.487 -33.962  1.00  0.00     0.123 C 
BRANCH   6   7
HETATM    7  C   UNL     1      -9.395   3.521 -32.856  1.00  0.00     0.047 C 
BRANCH   7   8
HETATM    8  C   UNL     1     -10.896   3.275 -32.913  1.00  0.00     0.236 C 
BRANCH   8   9
HETATM    9  N   UNL     1     -11.253   1.805 -33.077  1.00  0.00    -0.072 N 
HETATM   10  H   UNL     1     -11.489   1.476 -32.131  1.00  0.00     0.279 HD
BRANCH   9  11
HETATM   11  C   UNL     1     -10.103   0.920 -33.535  1.00  0.00     0.230 C 
HETATM   12  C   UNL     1      -9.851  -0.218 -32.562  1.00  0.00     0.034 C 
ENDBRANCH   9  11
BRANCH   9  13
HETATM   13  C   UNL     1     -12.492   1.534 -33.917  1.00  0.00     0.230 C 
HETATM   14  C   UNL     1     -12.422   2.234 -35.262  1.00  0.00     0.034 C 
ENDBRANCH   9  13
ENDBRANCH   8   9
ENDBRANCH   7   8
ENDBRANCH   6   7
ENDBRANCH   4   6
ENDBRANCH   2   4
ENDBRANCH   1   2
BRANCH   1  15
HETATM   15  C   UNL     1      -5.324   3.303 -31.782  1.00  0.00     0.169 C 
BRANCH  15  16
HETATM   16  C   UNL     1      -5.083   1.883 -32.227  1.00  0.00     0.029 A 
HETATM   17  C   UNL     1      -3.745   1.306 -31.893  1.00  0.00     0.253 A 
HETATM   18  O   UNL     1      -2.950   1.893 -31.160  1.00  0.00    -0.268 OA
HETATM   19  N   UNL     1      -3.445   0.067 -32.390  1.00  0.00    -0.322 N 
HETATM   20  C   UNL     1      -4.362  -0.731 -33.084  1.00  0.00     0.048 A 
HETATM   21  H   UNL     1      -2.513  -0.277 -32.208  1.00  0.00     0.169 HD
HETATM   22  C   UNL     1      -5.659  -0.228 -33.327  1.00  0.00    -0.006 A 
HETATM   23  C   UNL     1      -3.986  -2.010 -33.497  1.00  0.00     0.070 A 
HETATM   24  C   UNL     1      -6.599  -1.020 -33.993  1.00  0.00     0.053 A 
HETATM   25  C   UNL     1      -5.981   1.131 -32.889  1.00  0.00     0.028 A 
HETATM   26  C   UNL     1      -6.209  -2.284 -34.385  1.00  0.00     0.106 A 
HETATM   27  C   UNL     1      -4.941  -2.764 -34.145  1.00  0.00     0.107 A 
HETATM   28  O   UNL     1      -6.988  -3.191 -35.033  1.00  0.00    -0.323 OA
HETATM   29  O   UNL     1      -4.769  -4.030 -34.606  1.00  0.00    -0.323 OA
HETATM   30  C   UNL     1      -6.065  -4.289 -35.191  1.00  0.00     0.352 A 
ENDBRANCH  15  16
ENDBRANCH   1  15
BRANCH   1  31
HETATM   31  C   UNL     1      -4.332   4.469 -33.748  1.00  0.00     0.164 C 
BRANCH  31  32
HETATM   32  C   UNL     1      -3.215   5.216 -33.054  1.00  0.00    -0.037 A 
HETATM   33  C   UNL     1      -2.054   4.552 -32.624  1.00  0.00     0.048 A 
HETATM   34  C   UNL     1      -1.075   5.287 -31.984  1.00  0.00     0.105 A 
HETATM   35  C   UNL     1      -1.214   6.633 -31.748  1.00  0.00     0.105 A 
HETATM   36  O   UNL     1       0.105   4.799 -31.517  1.00  0.00    -0.323 OA
HETATM   37  O   UNL     1      -0.142   7.162 -31.102  1.00  0.00    -0.323 OA
HETATM   38  C   UNL     1      -2.339   7.321 -32.137  1.00  0.00     0.040 A 
HETATM   39  C   UNL     1       0.682   5.990 -30.938  1.00  0.00     0.352 A 
HETATM   40  C   UNL     1      -3.345   6.602 -32.791  1.00  0.00     0.012 A 
ENDBRANCH  31  32
ENDBRANCH   1  31
TORSDOF 12
ENDMDL
MODEL 9
REMARK VINA RESULT:      -8.4      2.957      7.181
REMARK  12 active torsions:
REMARK  status: ('A' for Active; 'I' for Inactive)
REMARK    1  A    between atoms: C_2  and  N_3 
REMARK    2  A    between atoms: N_3  and  C_5 
REMARK    3  A    between atoms: N_3  and  C_37 
REMARK    4  A    between atoms: C_5  and  C_6 
REMARK    5  A    between atoms: C_6  and  C_7 
REMARK    6  A    between atoms: C_7  and  N_8 
REMARK    7  A    between atoms: N_8  and  C_9 
REMARK    8  A    between atoms: C_9  and  N_10 
REMARK    9  A    between atoms: N_10  and  C_11 
REMARK   10  A    between atoms: N_10  and  C_26 
REMARK   11  A    between atoms: C_11  and  C_12 
REMARK   12  A    between atoms: C_26  and  C_27 
ROOT
HETATM    1  N   UNL     1      -7.750   1.680 -33.192  1.00  0.00    -0.350 N 
ENDROOT
BRANCH   1   2
HETATM    2  C   UNL     1      -9.148   1.847 -33.232  1.00  0.00     0.170 C 
HETATM    3  S   UNL     1     -10.265   0.591 -33.175  1.00  0.00    -0.041 SA
BRANCH   2   4
HETATM    4  N   UNL     1      -9.555   3.172 -33.279  1.00  0.00    -0.367 N 
HETATM    5  H   UNL     1      -9.395   3.647 -34.160  1.00  0.00     0.161 HD
BRANCH   4   6
HETATM    6  C   UNL     1     -10.533   3.784 -32.394  1.00  0.00     0.123 C 
BRANCH   6   7
HETATM    7  C   UNL     1     -10.199   3.525 -30.928  1.00  0.00     0.047 C 
BRANCH   7   8
HETATM    8  C   UNL     1      -9.461   4.722 -30.344  1.00  0.00     0.236 C 
BRANCH   8   9
HETATM    9  N   UNL     1      -7.956   4.658 -30.559  1.00  0.00    -0.072 N 
HETATM   10  H   UNL     1      -7.834   4.389 -31.545  1.00  0.00     0.279 HD
BRANCH   9  11
HETATM   11  C   UNL     1      -7.247   3.576 -29.757  1.00  0.00     0.230 C 
HETATM   12  C   UNL     1      -5.761   3.857 -29.632  1.00  0.00     0.034 C 
ENDBRANCH   9  11
BRANCH   9  13
HETATM   13  C   UNL     1      -7.229   5.985 -30.411  1.00  0.00     0.230 C 
HETATM   14  C   UNL     1      -7.941   7.101 -31.153  1.00  0.00     0.034 C 
ENDBRANCH   9  13
ENDBRANCH   8   9
ENDBRANCH   7   8
ENDBRANCH   6   7
ENDBRANCH   4   6
ENDBRANCH   2   4
ENDBRANCH   1   2
BRANCH   1  15
HETATM   15  C   UNL     1      -6.846   2.238 -34.217  1.00  0.00     0.169 C 
BRANCH  15  16
HETATM   16  C   UNL     1      -5.895   3.266 -33.662  1.00  0.00     0.029 A 
HETATM   17  C   UNL     1      -6.309   4.695 -33.807  1.00  0.00     0.253 A 
HETATM   18  O   UNL     1      -7.430   5.008 -34.207  1.00  0.00    -0.268 OA
HETATM   19  N   UNL     1      -5.414   5.659 -33.429  1.00  0.00    -0.322 N 
HETATM   20  C   UNL     1      -4.192   5.378 -32.807  1.00  0.00     0.048 A 
HETATM   21  H   UNL     1      -5.687   6.616 -33.596  1.00  0.00     0.169 HD
HETATM   22  C   UNL     1      -3.832   4.030 -32.585  1.00  0.00    -0.006 A 
HETATM   23  C   UNL     1      -3.372   6.429 -32.396  1.00  0.00     0.070 A 
HETATM   24  C   UNL     1      -2.630   3.729 -31.938  1.00  0.00     0.053 A 
HETATM   25  C   UNL     1      -4.726   2.975 -33.062  1.00  0.00     0.028 A 
HETATM   26  C   UNL     1      -1.838   4.784 -31.534  1.00  0.00     0.106 A 
HETATM   27  C   UNL     1      -2.197   6.094 -31.757  1.00  0.00     0.107 A 
HETATM   28  O   UNL     1      -0.646   4.681 -30.887  1.00  0.00    -0.323 OA
HETATM   29  O   UNL     1      -1.282   6.974 -31.274  1.00  0.00    -0.323 OA
HETATM   30  C   UNL     1      -0.286   6.071 -30.744  1.00  0.00     0.352 A 
ENDBRANCH  15  16
ENDBRANCH   1  15
BRANCH   1  31
HETATM   31  C   UNL     1      -7.120   0.720 -32.259  1.00  0.00     0.164 C 
BRANCH  31  32
HETATM   32  C   UNL     1      -6.410  -0.437 -32.927  1.00  0.00    -0.037 A 
HETATM   33  C   UNL     1      -7.123  -1.407 -33.651  1.00  0.00     0.048 A 
HETATM   34  C   UNL     1      -6.419  -2.446 -34.227  1.00  0.00     0.105 A 
HETATM   35  C   UNL     1      -5.056  -2.561 -34.099  1.00  0.00     0.105 A 
HETATM   36  O   UNL     1      -6.956  -3.455 -34.964  1.00  0.00    -0.323 OA
HETATM   37  O   UNL     1      -4.563  -3.656 -34.734  1.00  0.00    -0.323 OA
HETATM   38  C   UNL     1      -4.320  -1.644 -33.386  1.00  0.00     0.040 A 
HETATM   39  C   UNL     1      -5.775  -4.231 -35.262  1.00  0.00     0.352 A 
HETATM   40  C   UNL     1      -5.006  -0.579 -32.795  1.00  0.00     0.012 A 
ENDBRANCH  31  32
ENDBRANCH   1  31
TORSDOF 12
ENDMDL
MODEL 10
REMARK VINA RESULT:      -8.3      2.803      7.924
REMARK  12 active torsions:
REMARK  status: ('A' for Active; 'I' for Inactive)
REMARK    1  A    between atoms: C_2  and  N_3 
REMARK    2  A    between atoms: N_3  and  C_5 
REMARK    3  A    between atoms: N_3  and  C_37 
REMARK    4  A    between atoms: C_5  and  C_6 
REMARK    5  A    between atoms: C_6  and  C_7 
REMARK    6  A    between atoms: C_7  and  N_8 
REMARK    7  A    between atoms: N_8  and  C_9 
REMARK    8  A    between atoms: C_9  and  N_10 
REMARK    9  A    between atoms: N_10  and  C_11 
REMARK   10  A    between atoms: N_10  and  C_26 
REMARK   11  A    between atoms: C_11  and  C_12 
REMARK   12  A    between atoms: C_26  and  C_27 
ROOT
HETATM    1  N   UNL     1      -7.572   0.920 -31.925  1.00  0.00    -0.350 N 
ENDROOT
BRANCH   1   2
HETATM    2  C   UNL     1      -8.975   1.018 -31.855  1.00  0.00     0.170 C 
HETATM    3  S   UNL     1     -10.046   0.134 -32.803  1.00  0.00    -0.041 SA
BRANCH   2   4
HETATM    4  N   UNL     1      -9.430   1.897 -30.883  1.00  0.00    -0.367 N 
HETATM    5  H   UNL     1      -8.963   1.835 -29.985  1.00  0.00     0.161 HD
BRANCH   4   6
HETATM    6  C   UNL     1     -10.162   3.127 -31.137  1.00  0.00     0.123 C 
BRANCH   6   7
HETATM    7  C   UNL     1      -9.639   3.842 -32.379  1.00  0.00     0.047 C 
BRANCH   7   8
HETATM    8  C   UNL     1     -10.798   4.446 -33.158  1.00  0.00     0.236 C 
BRANCH   8   9
HETATM    9  N   UNL     1     -11.837   3.415 -33.576  1.00  0.00    -0.072 N 
HETATM   10  H   UNL     1     -11.694   2.615 -32.945  1.00  0.00     0.279 HD
BRANCH   9  11
HETATM   11  C   UNL     1     -11.649   2.858 -34.979  1.00  0.00     0.230 C 
HETATM   12  C   UNL     1     -12.530   1.646 -35.222  1.00  0.00     0.034 C 
ENDBRANCH   9  11
BRANCH   9  13
HETATM   13  C   UNL     1     -13.282   3.839 -33.367  1.00  0.00     0.230 C 
HETATM   14  C   UNL     1     -13.807   3.395 -32.013  1.00  0.00     0.034 C 
ENDBRANCH   9  13
ENDBRANCH   8   9
ENDBRANCH   7   8
ENDBRANCH   6   7
ENDBRANCH   4   6
ENDBRANCH   2   4
ENDBRANCH   1   2
BRANCH   1  15
HETATM   15  C   UNL     1      -6.698   1.051 -30.743  1.00  0.00     0.169 C 
BRANCH  15  16
HETATM   16  C   UNL     1      -5.851   2.296 -30.775  1.00  0.00     0.029 A 
HETATM   17  C   UNL     1      -6.412   3.494 -30.078  1.00  0.00     0.253 A 
HETATM   18  O   UNL     1      -7.424   3.425 -29.382  1.00  0.00    -0.268 OA
HETATM   19  N   UNL     1      -5.730   4.675 -30.194  1.00  0.00    -0.322 N 
HETATM   20  C   UNL     1      -4.485   4.790 -30.823  1.00  0.00     0.048 A 
HETATM   21  H   UNL     1      -6.159   5.485 -29.772  1.00  0.00     0.169 HD
HETATM   22  C   UNL     1      -3.906   3.643 -31.409  1.00  0.00    -0.006 A 
HETATM   23  C   UNL     1      -3.833   6.024 -30.836  1.00  0.00     0.070 A 
HETATM   24  C   UNL     1      -2.649   3.730 -32.016  1.00  0.00     0.053 A 
HETATM   25  C   UNL     1      -4.653   2.385 -31.382  1.00  0.00     0.028 A 
HETATM   26  C   UNL     1      -2.020   4.958 -32.010  1.00  0.00     0.106 A 
HETATM   27  C   UNL     1      -2.594   6.071 -31.439  1.00  0.00     0.107 A 
HETATM   28  O   UNL     1      -0.798   5.227 -32.544  1.00  0.00    -0.323 OA
HETATM   29  O   UNL     1      -1.804   7.172 -31.537  1.00  0.00    -0.323 OA
HETATM   30  C   UNL     1      -0.675   6.636 -32.261  1.00  0.00     0.352 A 
ENDBRANCH  15  16
ENDBRANCH   1  15
BRANCH   1  31
HETATM   31  C   UNL     1      -6.868   0.933 -33.227  1.00  0.00     0.164 C 
BRANCH  31  32
HETATM   32  C   UNL     1      -6.237  -0.385 -33.617  1.00  0.00    -0.037 A 
HETATM   33  C   UNL     1      -7.013  -1.437 -34.134  1.00  0.00     0.048 A 
HETATM   34  C   UNL     1      -6.380  -2.621 -34.459  1.00  0.00     0.105 A 
HETATM   35  C   UNL     1      -5.030  -2.798 -34.278  1.00  0.00     0.105 A 
HETATM   36  O   UNL     1      -6.982  -3.725 -34.976  1.00  0.00    -0.323 OA
HETATM   37  O   UNL     1      -4.612  -4.035 -34.654  1.00  0.00    -0.323 OA
HETATM   38  C   UNL     1      -4.236  -1.803 -33.760  1.00  0.00     0.040 A 
HETATM   39  C   UNL     1      -5.857  -4.626 -35.076  1.00  0.00     0.352 A 
HETATM   40  C   UNL     1      -4.849  -0.591 -33.426  1.00  0.00     0.012 A 
ENDBRANCH  31  32
ENDBRANCH   1  31
TORSDOF 12
ENDMDL
