MODEL 1
REMARK VINA RESULT:      -9.8      0.000      0.000
REMARK  5 active torsions:
REMARK  status: ('A' for Active; 'I' for Inactive)
REMARK    1  A    between atoms: C_5  and  C_6 
REMARK    2  A    between atoms: C_6  and  O_7 
REMARK    3  A    between atoms: O_7  and  C_8 
REMARK    4  A    between atoms: C_12  and  C_13 
REMARK    5  A    between atoms: C_30  and  O_31 
ROOT
HETATM    1  C   UNL     1      -5.240   3.881 -32.622  1.00  0.00     0.130 A 
HETATM    2  C   UNL     1      -4.059   3.133 -32.563  1.00  0.00     0.048 A 
HETATM    3 BR   UNL     1      -4.014   1.357 -31.887  1.00  0.00    -0.048 Br
HETATM    4  C   UNL     1      -2.845   3.702 -32.953  1.00  0.00     0.033 A 
HETATM    5  C   UNL     1      -2.769   5.044 -33.364  1.00  0.00    -0.012 A 
HETATM    6  C   UNL     1      -3.973   5.772 -33.429  1.00  0.00     0.050 A 
HETATM    7  C   UNL     1      -5.198   5.215 -33.035  1.00  0.00     0.104 A 
ENDROOT
BRANCH   5   8
HETATM    8  C   UNL     1      -1.448   5.754 -33.659  1.00  0.00     0.219 C 
HETATM    9  N   UNL     1      -1.610   7.188 -33.556  1.00  0.00    -0.332 N 
HETATM   10  C   UNL     1      -1.634   7.832 -32.346  1.00  0.00     0.256 C 
HETATM   11  H   UNL     1      -2.107   7.667 -34.292  1.00  0.00     0.165 HD
HETATM   12  O   UNL     1      -2.134   8.943 -32.205  1.00  0.00    -0.267 OA
HETATM   13  C   UNL     1      -1.006   7.107 -31.252  1.00  0.00     0.073 A 
HETATM   14  C   UNL     1      -0.349   5.931 -31.535  1.00  0.00     0.088 A 
HETATM   15  C   UNL     1      -0.988   7.401 -29.854  1.00  0.00    -0.023 A 
HETATM   16  S   UNL     1       0.382   5.241 -30.165  1.00  0.00    -0.074 SA
HETATM   17  N   UNL     1      -0.360   5.372 -32.769  1.00  0.00    -0.358 N 
HETATM   18  C   UNL     1      -0.278   6.442 -29.152  1.00  0.00     0.018 A 
HETATM   19  C   UNL     1      -0.132   6.397 -27.671  1.00  0.00     0.281 C 
HETATM   20  N   UNL     1      -0.565   7.707 -27.021  1.00  0.00    -0.070 N 
HETATM   21  C   UNL     1      -1.833   8.269 -27.661  1.00  0.00     0.239 C 
HETATM   22  H   UNL     1      -0.808   7.472 -26.050  1.00  0.00     0.279 HD
HETATM   23  C   UNL     1       0.552   8.705 -26.940  1.00  0.00     0.270 C 
HETATM   24  C   UNL     1      -1.649   8.553 -29.162  1.00  0.00     0.068 C 
HETATM   25  H   UNL     1      -0.036   4.416 -32.889  1.00  0.00     0.162 HD
ENDBRANCH   5   8
BRANCH   7  26
HETATM   26  O   UNL     1      -6.260   6.072 -33.129  1.00  0.00    -0.353 OA
HETATM   27  C   UNL     1      -6.475   6.918 -32.005  1.00  0.00     0.210 C 
ENDBRANCH   7  26
BRANCH   1  28
HETATM   28  O   UNL     1      -6.440   3.302 -32.205  1.00  0.00    -0.271 OA
BRANCH  28  29
HETATM   29  C   UNL     1      -7.296   3.026 -33.255  1.00  0.00     0.298 C 
HETATM   30  O   UNL     1      -7.935   3.830 -33.916  1.00  0.00    -0.259 OA
BRANCH  29  31
HETATM   31  C   UNL     1      -7.231   1.570 -33.554  1.00  0.00     0.040 A 
HETATM   32  C   UNL     1      -6.912   1.180 -34.860  1.00  0.00     0.018 A 
HETATM   33  C   UNL     1      -6.768  -0.173 -35.175  1.00  0.00     0.007 A 
HETATM   34  C   UNL     1      -6.938  -1.152 -34.189  1.00  0.00    -0.062 A 
HETATM   35  C   UNL     1      -6.796  -2.607 -34.525  1.00  0.00     0.048 C 
HETATM   36  C   UNL     1      -7.290  -0.761 -32.891  1.00  0.00     0.007 A 
HETATM   37  C   UNL     1      -7.433   0.591 -32.572  1.00  0.00     0.018 A 
ENDBRANCH  29  31
ENDBRANCH  28  29
ENDBRANCH   1  28
TORSDOF 5
ENDMDL
MODEL 2
REMARK VINA RESULT:      -9.5      1.601      2.081
REMARK  5 active torsions:
REMARK  status: ('A' for Active; 'I' for Inactive)
REMARK    1  A    between atoms: C_5  and  C_6 
REMARK    2  A    between atoms: C_6  and  O_7 
REMARK    3  A    between atoms: O_7  and  C_8 
REMARK    4  A    between atoms: C_12  and  C_13 
REMARK    5  A    between atoms: C_30  and  O_31 
ROOT
HETATM    1  C   UNL     1      -5.181   3.244 -32.915  1.00  0.00     0.130 A 
HETATM    2  C   UNL     1      -3.886   2.966 -32.463  1.00  0.00     0.048 A 
HETATM    3 BR   UNL     1      -3.515   1.547 -31.255  1.00  0.00    -0.048 Br
HETATM    4  C   UNL     1      -2.817   3.778 -32.850  1.00  0.00     0.033 A 
HETATM    5  C   UNL     1      -3.018   4.912 -33.655  1.00  0.00    -0.012 A 
HETATM    6  C   UNL     1      -4.328   5.163 -34.109  1.00  0.00     0.050 A 
HETATM    7  C   UNL     1      -5.412   4.360 -33.724  1.00  0.00     0.104 A 
ENDROOT
BRANCH   5   8
HETATM    8  C   UNL     1      -1.909   5.911 -33.983  1.00  0.00     0.219 C 
HETATM    9  N   UNL     1      -2.314   7.253 -33.626  1.00  0.00    -0.332 N 
HETATM   10  C   UNL     1      -2.276   7.705 -32.332  1.00  0.00     0.256 C 
HETATM   11  H   UNL     1      -2.994   7.718 -34.210  1.00  0.00     0.165 HD
HETATM   12  O   UNL     1      -2.945   8.660 -31.953  1.00  0.00    -0.267 OA
HETATM   13  C   UNL     1      -1.371   6.979 -31.456  1.00  0.00     0.073 A 
HETATM   14  C   UNL     1      -0.558   6.013 -32.004  1.00  0.00     0.088 A 
HETATM   15  C   UNL     1      -1.199   7.074 -30.041  1.00  0.00    -0.023 A 
HETATM   16  S   UNL     1       0.482   5.304 -30.862  1.00  0.00    -0.074 SA
HETATM   17  N   UNL     1      -0.649   5.640 -33.304  1.00  0.00    -0.358 N 
HETATM   18  C   UNL     1      -0.229   6.193 -29.595  1.00  0.00     0.018 A 
HETATM   19  C   UNL     1       0.141   5.974 -28.170  1.00  0.00     0.281 C 
HETATM   20  N   UNL     1      -0.424   7.066 -27.265  1.00  0.00    -0.070 N 
HETATM   21  C   UNL     1      -1.854   7.440 -27.650  1.00  0.00     0.239 C 
HETATM   22  H   UNL     1      -0.473   6.654 -26.325  1.00  0.00     0.279 HD
HETATM   23  C   UNL     1       0.491   8.250 -27.155  1.00  0.00     0.270 C 
HETATM   24  C   UNL     1      -1.951   7.961 -29.094  1.00  0.00     0.068 C 
HETATM   25  H   UNL     1      -0.177   4.796 -33.616  1.00  0.00     0.162 HD
ENDBRANCH   5   8
BRANCH   7  26
HETATM   26  O   UNL     1      -6.616   4.766 -34.228  1.00  0.00    -0.353 OA
HETATM   27  C   UNL     1      -7.441   5.510 -33.338  1.00  0.00     0.210 C 
ENDBRANCH   7  26
BRANCH   1  28
HETATM   28  O   UNL     1      -6.241   2.436 -32.499  1.00  0.00    -0.271 OA
BRANCH  28  29
HETATM   29  C   UNL     1      -6.503   1.400 -33.377  1.00  0.00     0.298 C 
HETATM   30  O   UNL     1      -5.690   0.658 -33.905  1.00  0.00    -0.259 OA
BRANCH  29  31
HETATM   31  C   UNL     1      -7.977   1.235 -33.493  1.00  0.00     0.040 A 
HETATM   32  C   UNL     1      -8.577   0.178 -32.798  1.00  0.00     0.018 A 
HETATM   33  C   UNL     1      -9.965   0.023 -32.818  1.00  0.00     0.007 A 
HETATM   34  C   UNL     1     -10.770   0.921 -33.529  1.00  0.00    -0.062 A 
HETATM   35  C   UNL     1     -12.260   0.750 -33.563  1.00  0.00     0.048 C 
HETATM   36  C   UNL     1     -10.164   1.956 -34.252  1.00  0.00     0.007 A 
HETATM   37  C   UNL     1      -8.776   2.116 -34.233  1.00  0.00     0.018 A 
ENDBRANCH  29  31
ENDBRANCH  28  29
ENDBRANCH   1  28
TORSDOF 5
ENDMDL
MODEL 3
REMARK VINA RESULT:      -8.9      2.544      3.409
REMARK  5 active torsions:
REMARK  status: ('A' for Active; 'I' for Inactive)
REMARK    1  A    between atoms: C_5  and  C_6 
REMARK    2  A    between atoms: C_6  and  O_7 
REMARK    3  A    between atoms: O_7  and  C_8 
REMARK    4  A    between atoms: C_12  and  C_13 
REMARK    5  A    between atoms: C_30  and  O_31 
ROOT
HETATM    1  C   UNL     1      -4.955   3.202 -31.996  1.00  0.00     0.130 A 
HETATM    2  C   UNL     1      -5.711   3.259 -30.819  1.00  0.00     0.048 A 
HETATM    3 BR   UNL     1      -6.564   1.728 -30.083  1.00  0.00    -0.048 Br
HETATM    4  C   UNL     1      -5.912   4.480 -30.171  1.00  0.00     0.033 A 
HETATM    5  C   UNL     1      -5.408   5.679 -30.704  1.00  0.00    -0.012 A 
HETATM    6  C   UNL     1      -4.638   5.594 -31.881  1.00  0.00     0.050 A 
HETATM    7  C   UNL     1      -4.433   4.376 -32.545  1.00  0.00     0.104 A 
ENDROOT
BRANCH   5   8
HETATM    8  C   UNL     1      -5.724   7.054 -30.116  1.00  0.00     0.219 C 
HETATM    9  N   UNL     1      -5.946   6.956 -28.690  1.00  0.00    -0.332 N 
HETATM   10  C   UNL     1      -4.909   6.862 -27.797  1.00  0.00     0.256 C 
HETATM   11  H   UNL     1      -6.811   6.548 -28.368  1.00  0.00     0.165 HD
HETATM   12  O   UNL     1      -5.057   6.409 -26.668  1.00  0.00    -0.267 OA
HETATM   13  C   UNL     1      -3.632   7.358 -28.286  1.00  0.00     0.073 A 
HETATM   14  C   UNL     1      -3.594   7.977 -29.515  1.00  0.00     0.088 A 
HETATM   15  C   UNL     1      -2.334   7.273 -27.695  1.00  0.00    -0.023 A 
HETATM   16  S   UNL     1      -2.046   8.554 -29.911  1.00  0.00    -0.074 SA
HETATM   17  N   UNL     1      -4.675   8.043 -30.328  1.00  0.00    -0.358 N 
HETATM   18  C   UNL     1      -1.380   7.872 -28.499  1.00  0.00     0.018 A 
HETATM   19  C   UNL     1       0.083   7.890 -28.225  1.00  0.00     0.281 C 
HETATM   20  N   UNL     1       0.395   7.470 -26.792  1.00  0.00    -0.070 N 
HETATM   21  C   UNL     1      -0.467   6.290 -26.344  1.00  0.00     0.239 C 
HETATM   22  H   UNL     1       1.366   7.134 -26.802  1.00  0.00     0.279 HD
HETATM   23  C   UNL     1       0.363   8.625 -25.835  1.00  0.00     0.270 C 
HETATM   24  C   UNL     1      -1.969   6.614 -26.400  1.00  0.00     0.068 C 
HETATM   25  H   UNL     1      -4.557   8.327 -31.297  1.00  0.00     0.162 HD
ENDBRANCH   5   8
BRANCH   7  26
HETATM   26  O   UNL     1      -3.692   4.479 -33.690  1.00  0.00    -0.353 OA
HETATM   27  C   UNL     1      -4.360   5.049 -34.811  1.00  0.00     0.210 C 
ENDBRANCH   7  26
BRANCH   1  28
HETATM   28  O   UNL     1      -4.784   1.976 -32.642  1.00  0.00    -0.271 OA
BRANCH  28  29
HETATM   29  C   UNL     1      -5.831   1.667 -33.492  1.00  0.00     0.298 C 
HETATM   30  O   UNL     1      -6.603   2.449 -34.024  1.00  0.00    -0.259 OA
BRANCH  29  31
HETATM   31  C   UNL     1      -5.803   0.206 -33.771  1.00  0.00     0.040 A 
HETATM   32  C   UNL     1      -6.904  -0.359 -34.426  1.00  0.00     0.018 A 
HETATM   33  C   UNL     1      -6.896  -1.712 -34.774  1.00  0.00     0.007 A 
HETATM   34  C   UNL     1      -5.790  -2.515 -34.474  1.00  0.00    -0.062 A 
HETATM   35  C   UNL     1      -5.783  -3.971 -34.836  1.00  0.00     0.048 C 
HETATM   36  C   UNL     1      -4.705  -1.955 -33.788  1.00  0.00     0.007 A 
HETATM   37  C   UNL     1      -4.708  -0.602 -33.440  1.00  0.00     0.018 A 
ENDBRANCH  29  31
ENDBRANCH  28  29
ENDBRANCH   1  28
TORSDOF 5
ENDMDL
MODEL 4
REMARK VINA RESULT:      -8.8      3.548      5.116
REMARK  5 active torsions:
REMARK  status: ('A' for Active; 'I' for Inactive)
REMARK    1  A    between atoms: C_5  and  C_6 
REMARK    2  A    between atoms: C_6  and  O_7 
REMARK    3  A    between atoms: O_7  and  C_8 
REMARK    4  A    between atoms: C_12  and  C_13 
REMARK    5  A    between atoms: C_30  and  O_31 
ROOT
HETATM    1  C   UNL     1      -7.709   1.361 -33.070  1.00  0.00     0.130 A 
HETATM    2  C   UNL     1      -9.016   1.861 -33.076  1.00  0.00     0.048 A 
HETATM    3 BR   UNL     1     -10.534   0.734 -33.274  1.00  0.00    -0.048 Br
HETATM    4  C   UNL     1      -9.243   3.237 -32.994  1.00  0.00     0.033 A 
HETATM    5  C   UNL     1      -8.176   4.150 -32.954  1.00  0.00    -0.012 A 
HETATM    6  C   UNL     1      -6.870   3.622 -32.934  1.00  0.00     0.050 A 
HETATM    7  C   UNL     1      -6.627   2.244 -33.021  1.00  0.00     0.104 A 
ENDROOT
BRANCH   5   8
HETATM    8  C   UNL     1      -8.369   5.665 -33.012  1.00  0.00     0.219 C 
HETATM    9  N   UNL     1      -9.131   6.123 -31.871  1.00  0.00    -0.332 N 
HETATM   10  C   UNL     1      -8.561   6.289 -30.635  1.00  0.00     0.256 C 
HETATM   11  H   UNL     1     -10.121   5.933 -31.852  1.00  0.00     0.165 HD
HETATM   12  O   UNL     1      -9.226   6.302 -29.605  1.00  0.00    -0.267 OA
HETATM   13  C   UNL     1      -7.118   6.466 -30.644  1.00  0.00     0.073 A 
HETATM   14  C   UNL     1      -6.476   6.578 -31.856  1.00  0.00     0.088 A 
HETATM   15  C   UNL     1      -6.197   6.508 -29.552  1.00  0.00    -0.023 A 
HETATM   16  S   UNL     1      -4.806   6.843 -31.693  1.00  0.00    -0.074 SA
HETATM   17  N   UNL     1      -7.122   6.419 -33.037  1.00  0.00    -0.358 N 
HETATM   18  C   UNL     1      -4.900   6.688 -29.999  1.00  0.00     0.018 A 
HETATM   19  C   UNL     1      -3.687   6.693 -29.135  1.00  0.00     0.281 C 
HETATM   20  N   UNL     1      -4.048   6.815 -27.658  1.00  0.00    -0.070 N 
HETATM   21  C   UNL     1      -5.259   5.958 -27.295  1.00  0.00     0.239 C 
HETATM   22  H   UNL     1      -3.250   6.425 -27.141  1.00  0.00     0.279 HD
HETATM   23  C   UNL     1      -4.176   8.242 -27.213  1.00  0.00     0.270 C 
HETATM   24  C   UNL     1      -6.512   6.353 -28.095  1.00  0.00     0.068 C 
HETATM   25  H   UNL     1      -6.583   6.311 -33.892  1.00  0.00     0.162 HD
ENDBRANCH   5   8
BRANCH   7  26
HETATM   26  O   UNL     1      -5.301   1.907 -33.023  1.00  0.00    -0.353 OA
HETATM   27  C   UNL     1      -4.413   2.888 -32.500  1.00  0.00     0.210 C 
ENDBRANCH   7  26
BRANCH   1  28
HETATM   28  O   UNL     1      -7.501  -0.015 -33.176  1.00  0.00    -0.271 OA
BRANCH  28  29
HETATM   29  C   UNL     1      -7.203  -0.415 -34.466  1.00  0.00     0.298 C 
HETATM   30  O   UNL     1      -7.549   0.127 -35.504  1.00  0.00    -0.259 OA
BRANCH  29  31
HETATM   31  C   UNL     1      -6.266  -1.569 -34.404  1.00  0.00     0.040 A 
HETATM   32  C   UNL     1      -5.025  -1.375 -33.785  1.00  0.00     0.018 A 
HETATM   33  C   UNL     1      -4.139  -2.445 -33.637  1.00  0.00     0.007 A 
HETATM   34  C   UNL     1      -4.482  -3.720 -34.103  1.00  0.00    -0.062 A 
HETATM   35  C   UNL     1      -3.527  -4.868 -33.958  1.00  0.00     0.048 C 
HETATM   36  C   UNL     1      -5.708  -3.902 -34.753  1.00  0.00     0.007 A 
HETATM   37  C   UNL     1      -6.599  -2.836 -34.901  1.00  0.00     0.018 A 
ENDBRANCH  29  31
ENDBRANCH  28  29
ENDBRANCH   1  28
TORSDOF 5
ENDMDL
MODEL 5
REMARK VINA RESULT:      -8.7      1.668      2.380
REMARK  5 active torsions:
REMARK  status: ('A' for Active; 'I' for Inactive)
REMARK    1  A    between atoms: C_5  and  C_6 
REMARK    2  A    between atoms: C_6  and  O_7 
REMARK    3  A    between atoms: O_7  and  C_8 
REMARK    4  A    between atoms: C_12  and  C_13 
REMARK    5  A    between atoms: C_30  and  O_31 
ROOT
HETATM    1  C   UNL     1      -5.282   3.715 -32.646  1.00  0.00     0.130 A 
HETATM    2  C   UNL     1      -4.007   3.181 -32.428  1.00  0.00     0.048 A 
HETATM    3 BR   UNL     1      -3.730   1.582 -31.438  1.00  0.00    -0.048 Br
HETATM    4  C   UNL     1      -2.874   3.853 -32.892  1.00  0.00     0.033 A 
HETATM    5  C   UNL     1      -2.979   5.096 -33.539  1.00  0.00    -0.012 A 
HETATM    6  C   UNL     1      -4.274   5.606 -33.760  1.00  0.00     0.050 A 
HETATM    7  C   UNL     1      -5.420   4.944 -33.295  1.00  0.00     0.104 A 
ENDROOT
BRANCH   5   8
HETATM    8  C   UNL     1      -1.767   5.939 -33.933  1.00  0.00     0.219 C 
HETATM    9  N   UNL     1      -2.016   7.339 -33.667  1.00  0.00    -0.332 N 
HETATM   10  C   UNL     1      -1.917   7.869 -32.406  1.00  0.00     0.256 C 
HETATM   11  H   UNL     1      -2.642   7.838 -34.281  1.00  0.00     0.165 HD
HETATM   12  O   UNL     1      -2.471   8.917 -32.092  1.00  0.00    -0.267 OA
HETATM   13  C   UNL     1      -1.094   7.106 -31.483  1.00  0.00     0.073 A 
HETATM   14  C   UNL     1      -0.400   6.019 -31.965  1.00  0.00     0.088 A 
HETATM   15  C   UNL     1      -0.903   7.275 -30.077  1.00  0.00    -0.023 A 
HETATM   16  S   UNL     1       0.562   5.275 -30.777  1.00  0.00    -0.074 SA
HETATM   17  N   UNL     1      -0.541   5.573 -33.236  1.00  0.00    -0.358 N 
HETATM   18  C   UNL     1      -0.036   6.321 -29.572  1.00  0.00     0.018 A 
HETATM   19  C   UNL     1       0.318   6.157 -28.135  1.00  0.00     0.281 C 
HETATM   20  N   UNL     1      -0.114   7.363 -27.307  1.00  0.00    -0.070 N 
HETATM   21  C   UNL     1      -1.496   7.871 -27.716  1.00  0.00     0.239 C 
HETATM   22  H   UNL     1      -0.203   7.024 -26.341  1.00  0.00     0.279 HD
HETATM   23  C   UNL     1       0.929   8.442 -27.275  1.00  0.00     0.270 C 
HETATM   24  C   UNL     1      -1.543   8.301 -29.192  1.00  0.00     0.068 C 
HETATM   25  H   UNL     1      -0.169   4.662 -33.491  1.00  0.00     0.162 HD
ENDBRANCH   5   8
BRANCH   7  26
HETATM   26  O   UNL     1      -6.591   5.596 -33.564  1.00  0.00    -0.353 OA
HETATM   27  C   UNL     1      -7.042   6.501 -32.563  1.00  0.00     0.210 C 
ENDBRANCH   7  26
BRANCH   1  28
HETATM   28  O   UNL     1      -6.401   3.040 -32.154  1.00  0.00    -0.271 OA
BRANCH  28  29
HETATM   29  C   UNL     1      -7.035   2.278 -33.119  1.00  0.00     0.298 C 
HETATM   30  O   UNL     1      -6.531   1.428 -33.835  1.00  0.00    -0.259 OA
BRANCH  29  31
HETATM   31  C   UNL     1      -8.494   2.567 -33.071  1.00  0.00     0.040 A 
HETATM   32  C   UNL     1      -9.278   2.173 -34.163  1.00  0.00     0.018 A 
HETATM   33  C   UNL     1     -10.662   2.357 -34.136  1.00  0.00     0.007 A 
HETATM   34  C   UNL     1     -11.280   2.934 -33.021  1.00  0.00    -0.062 A 
HETATM   35  C   UNL     1     -12.765   3.145 -32.994  1.00  0.00     0.048 C 
HETATM   36  C   UNL     1     -10.490   3.359 -31.945  1.00  0.00     0.007 A 
HETATM   37  C   UNL     1      -9.105   3.174 -31.966  1.00  0.00     0.018 A 
ENDBRANCH  29  31
ENDBRANCH  28  29
ENDBRANCH   1  28
TORSDOF 5
ENDMDL
MODEL 6
REMARK VINA RESULT:      -8.6      5.628      8.193
REMARK  5 active torsions:
REMARK  status: ('A' for Active; 'I' for Inactive)
REMARK    1  A    between atoms: C_5  and  C_6 
REMARK    2  A    between atoms: C_6  and  O_7 
REMARK    3  A    between atoms: O_7  and  C_8 
REMARK    4  A    between atoms: C_12  and  C_13 
REMARK    5  A    between atoms: C_30  and  O_31 
ROOT
HETATM    1  C   UNL     1      -6.817   1.879 -31.651  1.00  0.00     0.130 A 
HETATM    2  C   UNL     1      -6.214   3.100 -31.331  1.00  0.00     0.048 A 
HETATM    3 BR   UNL     1      -4.342   3.384 -31.501  1.00  0.00    -0.048 Br
HETATM    4  C   UNL     1      -6.978   4.147 -30.812  1.00  0.00     0.033 A 
HETATM    5  C   UNL     1      -8.350   3.988 -30.552  1.00  0.00    -0.012 A 
HETATM    6  C   UNL     1      -8.938   2.755 -30.897  1.00  0.00     0.050 A 
HETATM    7  C   UNL     1      -8.181   1.693 -31.414  1.00  0.00     0.104 A 
ENDROOT
BRANCH   5   8
HETATM    8  C   UNL     1      -9.197   5.049 -29.850  1.00  0.00     0.219 C 
HETATM    9  N   UNL     1      -8.797   6.375 -30.269  1.00  0.00    -0.332 N 
HETATM   10  C   UNL     1      -9.198   6.912 -31.465  1.00  0.00     0.256 C 
HETATM   11  H   UNL     1      -7.927   6.745 -29.917  1.00  0.00     0.165 HD
HETATM   12  O   UNL     1      -8.594   7.833 -32.004  1.00  0.00    -0.267 OA
HETATM   13  C   UNL     1     -10.399   6.320 -32.031  1.00  0.00     0.073 A 
HETATM   14  C   UNL     1     -11.086   5.388 -31.287  1.00  0.00     0.088 A 
HETATM   15  C   UNL     1     -10.999   6.520 -33.313  1.00  0.00    -0.023 A 
HETATM   16  S   UNL     1     -12.497   4.841 -32.061  1.00  0.00    -0.074 SA
HETATM   17  N   UNL     1     -10.627   4.924 -30.100  1.00  0.00    -0.358 N 
HETATM   18  C   UNL     1     -12.140   5.750 -33.457  1.00  0.00     0.018 A 
HETATM   19  C   UNL     1     -12.960   5.655 -34.695  1.00  0.00     0.281 C 
HETATM   20  N   UNL     1     -12.607   6.755 -35.692  1.00  0.00    -0.070 N 
HETATM   21  C   UNL     1     -11.099   6.987 -35.772  1.00  0.00     0.239 C 
HETATM   22  H   UNL     1     -12.896   6.403 -36.613  1.00  0.00     0.279 HD
HETATM   23  C   UNL     1     -13.390   8.013 -35.461  1.00  0.00     0.270 C 
HETATM   24  C   UNL     1     -10.502   7.403 -34.417  1.00  0.00     0.068 C 
HETATM   25  H   UNL     1     -11.056   4.103 -29.683  1.00  0.00     0.162 HD
ENDBRANCH   5   8
BRANCH   7  26
HETATM   26  O   UNL     1      -8.903   0.559 -31.659  1.00  0.00    -0.353 OA
HETATM   27  C   UNL     1      -9.795   0.619 -32.767  1.00  0.00     0.210 C 
ENDBRANCH   7  26
BRANCH   1  28
HETATM   28  O   UNL     1      -6.033   0.836 -32.147  1.00  0.00    -0.271 OA
BRANCH  28  29
HETATM   29  C   UNL     1      -6.163   0.669 -33.514  1.00  0.00     0.298 C 
HETATM   30  O   UNL     1      -6.306   1.545 -34.353  1.00  0.00    -0.259 OA
BRANCH  29  31
HETATM   31  C   UNL     1      -5.975  -0.770 -33.839  1.00  0.00     0.040 A 
HETATM   32  C   UNL     1      -7.101  -1.512 -34.218  1.00  0.00     0.018 A 
HETATM   33  C   UNL     1      -6.966  -2.848 -34.601  1.00  0.00     0.007 A 
HETATM   34  C   UNL     1      -5.706  -3.459 -34.613  1.00  0.00    -0.062 A 
HETATM   35  C   UNL     1      -5.560  -4.898 -35.012  1.00  0.00     0.048 C 
HETATM   36  C   UNL     1      -4.587  -2.726 -34.201  1.00  0.00     0.007 A 
HETATM   37  C   UNL     1      -4.717  -1.388 -33.819  1.00  0.00     0.018 A 
ENDBRANCH  29  31
ENDBRANCH  28  29
ENDBRANCH   1  28
TORSDOF 5
ENDMDL
MODEL 7
REMARK VINA RESULT:      -8.6      5.783      8.469
REMARK  5 active torsions:
REMARK  status: ('A' for Active; 'I' for Inactive)
REMARK    1  A    between atoms: C_5  and  C_6 
REMARK    2  A    between atoms: C_6  and  O_7 
REMARK    3  A    between atoms: O_7  and  C_8 
REMARK    4  A    between atoms: C_12  and  C_13 
REMARK    5  A    between atoms: C_30  and  O_31 
ROOT
HETATM    1  C   UNL     1      -6.329   1.793 -32.544  1.00  0.00     0.130 A 
HETATM    2  C   UNL     1      -6.455   2.730 -31.512  1.00  0.00     0.048 A 
HETATM    3 BR   UNL     1      -6.045   2.311 -29.703  1.00  0.00    -0.048 Br
HETATM    4  C   UNL     1      -6.952   4.007 -31.779  1.00  0.00     0.033 A 
HETATM    5  C   UNL     1      -7.381   4.367 -33.068  1.00  0.00    -0.012 A 
HETATM    6  C   UNL     1      -7.230   3.412 -34.093  1.00  0.00     0.050 A 
HETATM    7  C   UNL     1      -6.739   2.124 -33.838  1.00  0.00     0.104 A 
ENDROOT
BRANCH   5   8
HETATM    8  C   UNL     1      -8.065   5.697 -33.380  1.00  0.00     0.219 C 
HETATM    9  N   UNL     1      -8.885   5.579 -34.566  1.00  0.00    -0.332 N 
HETATM   10  C   UNL     1     -10.127   4.998 -34.537  1.00  0.00     0.256 C 
HETATM   11  H   UNL     1      -8.424   5.532 -35.462  1.00  0.00     0.165 HD
HETATM   12  O   UNL     1     -10.664   4.551 -35.545  1.00  0.00    -0.267 OA
HETATM   13  C   UNL     1     -10.761   4.972 -33.229  1.00  0.00     0.073 A 
HETATM   14  C   UNL     1     -10.143   5.622 -32.186  1.00  0.00     0.088 A 
HETATM   15  C   UNL     1     -11.961   4.318 -32.810  1.00  0.00    -0.023 A 
HETATM   16  S   UNL     1     -11.041   5.552 -30.744  1.00  0.00    -0.074 SA
HETATM   17  N   UNL     1      -8.919   6.189 -32.306  1.00  0.00    -0.358 N 
HETATM   18  C   UNL     1     -12.208   4.543 -31.467  1.00  0.00     0.018 A 
HETATM   19  C   UNL     1     -13.326   3.942 -30.688  1.00  0.00     0.281 C 
HETATM   20  N   UNL     1     -14.375   3.314 -31.600  1.00  0.00    -0.070 N 
HETATM   21  C   UNL     1     -13.738   2.553 -32.761  1.00  0.00     0.239 C 
HETATM   22  H   UNL     1     -14.864   2.614 -31.027  1.00  0.00     0.279 HD
HETATM   23  C   UNL     1     -15.420   4.298 -32.038  1.00  0.00     0.270 C 
HETATM   24  C   UNL     1     -12.865   3.462 -33.643  1.00  0.00     0.068 C 
HETATM   25  H   UNL     1      -8.417   6.481 -31.472  1.00  0.00     0.162 HD
ENDBRANCH   5   8
BRANCH   7  26
HETATM   26  O   UNL     1      -6.691   1.314 -34.939  1.00  0.00    -0.353 OA
HETATM   27  C   UNL     1      -7.776   0.405 -35.086  1.00  0.00     0.210 C 
ENDBRANCH   7  26
BRANCH   1  28
HETATM   28  O   UNL     1      -5.853   0.512 -32.253  1.00  0.00    -0.271 OA
BRANCH  28  29
HETATM   29  C   UNL     1      -4.503   0.369 -32.517  1.00  0.00     0.298 C 
HETATM   30  O   UNL     1      -3.633   1.215 -32.386  1.00  0.00    -0.259 OA
BRANCH  29  31
HETATM   31  C   UNL     1      -4.236  -1.049 -32.879  1.00  0.00     0.040 A 
HETATM   32  C   UNL     1      -3.472  -1.820 -31.995  1.00  0.00     0.018 A 
HETATM   33  C   UNL     1      -3.253  -3.175 -32.253  1.00  0.00     0.007 A 
HETATM   34  C   UNL     1      -3.795  -3.777 -33.395  1.00  0.00    -0.062 A 
HETATM   35  C   UNL     1      -3.552  -5.229 -33.682  1.00  0.00     0.048 C 
HETATM   36  C   UNL     1      -4.530  -2.995 -34.295  1.00  0.00     0.007 A 
HETATM   37  C   UNL     1      -4.753  -1.640 -34.039  1.00  0.00     0.018 A 
ENDBRANCH  29  31
ENDBRANCH  28  29
ENDBRANCH   1  28
TORSDOF 5
ENDMDL
MODEL 8
REMARK VINA RESULT:      -8.5      3.635      8.938
REMARK  5 active torsions:
REMARK  status: ('A' for Active; 'I' for Inactive)
REMARK    1  A    between atoms: C_5  and  C_6 
REMARK    2  A    between atoms: C_6  and  O_7 
REMARK    3  A    between atoms: O_7  and  C_8 
REMARK    4  A    between atoms: C_12  and  C_13 
REMARK    5  A    between atoms: C_30  and  O_31 
ROOT
HETATM    1  C   UNL     1      -4.872   5.986 -31.665  1.00  0.00     0.130 A 
HETATM    2  C   UNL     1      -6.257   6.112 -31.506  1.00  0.00     0.048 A 
HETATM    3 BR   UNL     1      -7.192   7.702 -31.964  1.00  0.00    -0.048 Br
HETATM    4  C   UNL     1      -6.997   5.071 -30.939  1.00  0.00     0.033 A 
HETATM    5  C   UNL     1      -6.371   3.903 -30.473  1.00  0.00    -0.012 A 
HETATM    6  C   UNL     1      -4.979   3.793 -30.657  1.00  0.00     0.050 A 
HETATM    7  C   UNL     1      -4.222   4.832 -31.219  1.00  0.00     0.104 A 
ENDROOT
BRANCH   5   8
HETATM    8  C   UNL     1      -7.114   2.803 -29.715  1.00  0.00     0.219 C 
HETATM    9  N   UNL     1      -8.373   2.504 -30.360  1.00  0.00    -0.332 N 
HETATM   10  C   UNL     1      -8.448   1.718 -31.481  1.00  0.00     0.256 C 
HETATM   11  H   UNL     1      -9.127   3.167 -30.265  1.00  0.00     0.165 HD
HETATM   12  O   UNL     1      -9.406   1.758 -32.246  1.00  0.00    -0.267 OA
HETATM   13  C   UNL     1      -7.317   0.826 -31.682  1.00  0.00     0.073 A 
HETATM   14  C   UNL     1      -6.357   0.751 -30.699  1.00  0.00     0.088 A 
HETATM   15  C   UNL     1      -6.994  -0.000 -32.802  1.00  0.00    -0.023 A 
HETATM   16  S   UNL     1      -5.140  -0.380 -31.056  1.00  0.00    -0.074 SA
HETATM   17  N   UNL     1      -6.370   1.554 -29.608  1.00  0.00    -0.358 N 
HETATM   18  C   UNL     1      -5.815  -0.693 -32.588  1.00  0.00     0.018 A 
HETATM   19  C   UNL     1      -5.147  -1.577 -33.582  1.00  0.00     0.281 C 
HETATM   20  N   UNL     1      -6.070  -1.911 -34.750  1.00  0.00    -0.070 N 
HETATM   21  C   UNL     1      -6.875  -0.696 -35.206  1.00  0.00     0.239 C 
HETATM   22  H   UNL     1      -5.453  -2.162 -35.533  1.00  0.00     0.279 HD
HETATM   23  C   UNL     1      -6.919  -3.120 -34.484  1.00  0.00     0.270 C 
HETATM   24  C   UNL     1      -7.761  -0.130 -34.083  1.00  0.00     0.068 C 
HETATM   25  H   UNL     1      -5.547   1.605 -29.014  1.00  0.00     0.162 HD
ENDBRANCH   5   8
BRANCH   7  26
HETATM   26  O   UNL     1      -2.882   4.573 -31.292  1.00  0.00    -0.353 OA
HETATM   27  C   UNL     1      -2.411   4.096 -32.548  1.00  0.00     0.210 C 
ENDBRANCH   7  26
BRANCH   1  28
HETATM   28  O   UNL     1      -4.146   7.046 -32.211  1.00  0.00    -0.271 OA
BRANCH  28  29
HETATM   29  C   UNL     1      -3.904   8.057 -31.299  1.00  0.00     0.298 C 
HETATM   30  O   UNL     1      -4.580   9.056 -31.110  1.00  0.00    -0.259 OA
BRANCH  29  31
HETATM   31  C   UNL     1      -2.728   7.681 -30.470  1.00  0.00     0.040 A 
HETATM   32  C   UNL     1      -1.485   7.565 -31.106  1.00  0.00     0.018 A 
HETATM   33  C   UNL     1      -0.338   7.283 -30.360  1.00  0.00     0.007 A 
HETATM   34  C   UNL     1      -0.417   7.116 -28.972  1.00  0.00    -0.062 A 
HETATM   35  C   UNL     1       0.811   6.801 -28.170  1.00  0.00     0.048 C 
HETATM   36  C   UNL     1      -1.666   7.198 -28.344  1.00  0.00     0.007 A 
HETATM   37  C   UNL     1      -2.816   7.482 -29.086  1.00  0.00     0.018 A 
ENDBRANCH  29  31
ENDBRANCH  28  29
ENDBRANCH   1  28
TORSDOF 5
ENDMDL
MODEL 9
REMARK VINA RESULT:      -8.4      3.489      9.006
REMARK  5 active torsions:
REMARK  status: ('A' for Active; 'I' for Inactive)
REMARK    1  A    between atoms: C_5  and  C_6 
REMARK    2  A    between atoms: C_6  and  O_7 
REMARK    3  A    between atoms: O_7  and  C_8 
REMARK    4  A    between atoms: C_12  and  C_13 
REMARK    5  A    between atoms: C_30  and  O_31 
ROOT
HETATM    1  C   UNL     1      -0.882   7.400 -30.511  1.00  0.00     0.130 A 
HETATM    2  C   UNL     1      -0.576   6.038 -30.613  1.00  0.00     0.048 A 
HETATM    3 BR   UNL     1       0.700   5.197 -29.483  1.00  0.00    -0.048 Br
HETATM    4  C   UNL     1      -1.169   5.256 -31.606  1.00  0.00     0.033 A 
HETATM    5  C   UNL     1      -2.042   5.820 -32.552  1.00  0.00    -0.012 A 
HETATM    6  C   UNL     1      -2.346   7.189 -32.421  1.00  0.00     0.050 A 
HETATM    7  C   UNL     1      -1.754   7.988 -31.432  1.00  0.00     0.104 A 
ENDROOT
BRANCH   5   8
HETATM    8  C   UNL     1      -2.600   5.042 -33.744  1.00  0.00     0.219 C 
HETATM    9  N   UNL     1      -2.617   3.624 -33.459  1.00  0.00    -0.332 N 
HETATM   10  C   UNL     1      -3.592   3.049 -32.685  1.00  0.00     0.256 C 
HETATM   11  H   UNL     1      -1.740   3.125 -33.462  1.00  0.00     0.165 HD
HETATM   12  O   UNL     1      -3.432   1.968 -32.128  1.00  0.00    -0.267 OA
HETATM   13  C   UNL     1      -4.829   3.807 -32.594  1.00  0.00     0.073 A 
HETATM   14  C   UNL     1      -4.965   4.938 -33.366  1.00  0.00     0.088 A 
HETATM   15  C   UNL     1      -5.973   3.590 -31.766  1.00  0.00    -0.023 A 
HETATM   16  S   UNL     1      -6.488   5.672 -33.192  1.00  0.00    -0.074 SA
HETATM   17  N   UNL     1      -3.953   5.429 -34.121  1.00  0.00    -0.358 N 
HETATM   18  C   UNL     1      -6.939   4.557 -31.986  1.00  0.00     0.018 A 
HETATM   19  C   UNL     1      -8.219   4.678 -31.234  1.00  0.00     0.281 C 
HETATM   20  N   UNL     1      -8.514   3.424 -30.417  1.00  0.00    -0.070 N 
HETATM   21  C   UNL     1      -7.259   2.879 -29.737  1.00  0.00     0.239 C 
HETATM   22  H   UNL     1      -9.147   3.721 -29.664  1.00  0.00     0.279 HD
HETATM   23  C   UNL     1      -9.260   2.387 -31.204  1.00  0.00     0.270 C 
HETATM   24  C   UNL     1      -6.164   2.505 -30.750  1.00  0.00     0.068 C 
HETATM   25  H   UNL     1      -4.028   6.363 -34.514  1.00  0.00     0.162 HD
ENDBRANCH   5   8
BRANCH   7  26
HETATM   26  O   UNL     1      -2.134   9.301 -31.469  1.00  0.00    -0.353 OA
HETATM   27  C   UNL     1      -3.377   9.603 -30.845  1.00  0.00     0.210 C 
ENDBRANCH   7  26
BRANCH   1  28
HETATM   28  O   UNL     1      -0.261   8.171 -29.526  1.00  0.00    -0.271 OA
BRANCH  28  29
HETATM   29  C   UNL     1      -0.945   8.159 -28.324  1.00  0.00     0.298 C 
HETATM   30  O   UNL     1      -2.103   7.819 -28.139  1.00  0.00    -0.259 OA
BRANCH  29  31
HETATM   31  C   UNL     1       0.001   8.515 -27.234  1.00  0.00     0.040 A 
HETATM   32  C   UNL     1      -0.525   9.079 -26.065  1.00  0.00     0.018 A 
HETATM   33  C   UNL     1       0.313   9.365 -24.984  1.00  0.00     0.007 A 
HETATM   34  C   UNL     1       1.684   9.091 -25.057  1.00  0.00    -0.062 A 
HETATM   35  C   UNL     1       2.588   9.409 -23.903  1.00  0.00     0.048 C 
HETATM   36  C   UNL     1       2.212   8.560 -26.239  1.00  0.00     0.007 A 
HETATM   37  C   UNL     1       1.378   8.269 -27.322  1.00  0.00     0.018 A 
ENDBRANCH  29  31
ENDBRANCH  28  29
ENDBRANCH   1  28
TORSDOF 5
ENDMDL
MODEL 10
REMARK VINA RESULT:      -8.3      3.313      9.560
REMARK  5 active torsions:
REMARK  status: ('A' for Active; 'I' for Inactive)
REMARK    1  A    between atoms: C_5  and  C_6 
REMARK    2  A    between atoms: C_6  and  O_7 
REMARK    3  A    between atoms: O_7  and  C_8 
REMARK    4  A    between atoms: C_12  and  C_13 
REMARK    5  A    between atoms: C_30  and  O_31 
ROOT
HETATM    1  C   UNL     1      -0.346   7.317 -28.981  1.00  0.00     0.130 A 
HETATM    2  C   UNL     1      -0.391   6.167 -29.778  1.00  0.00     0.048 A 
HETATM    3 BR   UNL     1       0.947   4.820 -29.694  1.00  0.00    -0.048 Br
HETATM    4  C   UNL     1      -1.411   6.003 -30.718  1.00  0.00     0.033 A 
HETATM    5  C   UNL     1      -2.380   6.999 -30.923  1.00  0.00    -0.012 A 
HETATM    6  C   UNL     1      -2.323   8.140 -30.098  1.00  0.00     0.050 A 
HETATM    7  C   UNL     1      -1.302   8.321 -29.154  1.00  0.00     0.104 A 
ENDROOT
BRANCH   5   8
HETATM    8  C   UNL     1      -3.425   6.933 -32.036  1.00  0.00     0.219 C 
HETATM    9  N   UNL     1      -2.965   6.084 -33.113  1.00  0.00    -0.332 N 
HETATM   10  C   UNL     1      -3.027   4.716 -33.037  1.00  0.00     0.256 C 
HETATM   11  H   UNL     1      -2.243   6.435 -33.723  1.00  0.00     0.165 HD
HETATM   12  O   UNL     1      -2.324   3.990 -33.732  1.00  0.00    -0.267 OA
HETATM   13  C   UNL     1      -3.997   4.197 -32.087  1.00  0.00     0.073 A 
HETATM   14  C   UNL     1      -4.838   5.085 -31.454  1.00  0.00     0.088 A 
HETATM   15  C   UNL     1      -4.214   2.856 -31.643  1.00  0.00    -0.023 A 
HETATM   16  S   UNL     1      -5.952   4.316 -30.427  1.00  0.00    -0.074 SA
HETATM   17  N   UNL     1      -4.721   6.427 -31.601  1.00  0.00    -0.358 N 
HETATM   18  C   UNL     1      -5.242   2.795 -30.719  1.00  0.00     0.018 A 
HETATM   19  C   UNL     1      -5.673   1.568 -29.994  1.00  0.00     0.281 C 
HETATM   20  N   UNL     1      -5.085   0.307 -30.620  1.00  0.00    -0.070 N 
HETATM   21  C   UNL     1      -3.625   0.500 -31.027  1.00  0.00     0.239 C 
HETATM   22  H   UNL     1      -5.090  -0.404 -29.879  1.00  0.00     0.279 HD
HETATM   23  C   UNL     1      -5.942  -0.238 -31.725  1.00  0.00     0.270 C 
HETATM   24  C   UNL     1      -3.452   1.632 -32.053  1.00  0.00     0.068 C 
HETATM   25  H   UNL     1      -5.223   7.046 -30.972  1.00  0.00     0.162 HD
ENDBRANCH   5   8
BRANCH   7  26
HETATM   26  O   UNL     1      -1.378   9.500 -28.465  1.00  0.00    -0.353 OA
HETATM   27  C   UNL     1      -2.585   9.717 -27.742  1.00  0.00     0.210 C 
ENDBRANCH   7  26
BRANCH   1  28
HETATM   28  O   UNL     1       0.694   7.475 -28.063  1.00  0.00    -0.271 OA
BRANCH  28  29
HETATM   29  C   UNL     1       0.311   7.193 -26.764  1.00  0.00     0.298 C 
HETATM   30  O   UNL     1      -0.307   6.215 -26.373  1.00  0.00    -0.259 OA
BRANCH  29  31
HETATM   31  C   UNL     1       0.886   8.227 -25.863  1.00  0.00     0.040 A 
HETATM   32  C   UNL     1       2.276   8.253 -25.694  1.00  0.00     0.018 A 
HETATM   33  C   UNL     1       2.870   9.249 -24.915  1.00  0.00     0.007 A 
HETATM   34  C   UNL     1       2.086  10.230 -24.297  1.00  0.00    -0.062 A 
HETATM   35  C   UNL     1       2.720  11.293 -23.450  1.00  0.00     0.048 C 
HETATM   36  C   UNL     1       0.694  10.181 -24.439  1.00  0.00     0.007 A 
HETATM   37  C   UNL     1       0.095   9.188 -25.219  1.00  0.00     0.018 A 
ENDBRANCH  29  31
ENDBRANCH  28  29
ENDBRANCH   1  28
TORSDOF 5
ENDMDL
