MODEL 1
REMARK VINA RESULT:      -9.7      0.000      0.000
REMARK  7 active torsions:
REMARK  status: ('A' for Active; 'I' for Inactive)
REMARK    1  A    between atoms: C_2  and  O_3 
REMARK    2  A    between atoms: O_3  and  C_4 
REMARK    3  A    between atoms: C_5  and  C_6 
REMARK    4  A    between atoms: C_9  and  C_10 
REMARK       I    between atoms: C_10  and  N_11 
REMARK    5  A    between atoms: N_11  and  C_12 
REMARK    6  A    between atoms: C_25  and  C_26 
REMARK       I    between atoms: C_26  and  N_27 
REMARK    7  A    between atoms: N_27  and  C_28 
ROOT
HETATM    1  C   UNL     1      -5.048   2.559 -32.332  1.00  0.00     0.188 C 
HETATM    2  N   UNL     1      -4.042   3.615 -32.145  1.00  0.00    -0.239 N 
HETATM    3  C   UNL     1      -4.031   4.492 -31.087  1.00  0.00     0.142 C 
HETATM    4  C   UNL     1      -2.894   5.260 -31.248  1.00  0.00     0.097 C 
HETATM    5  C   UNL     1      -2.390   4.857 -32.513  1.00  0.00     0.160 C 
HETATM    6  N   UNL     1      -3.092   3.868 -33.072  1.00  0.00    -0.181 NA
HETATM    7  N   UNL     1      -5.052   4.452 -30.188  1.00  0.00    -0.343 N 
HETATM    8  C   UNL     1      -6.190   3.656 -30.389  1.00  0.00     0.021 C 
HETATM    9  C   UNL     1      -7.335   3.906 -29.436  1.00  0.00     0.069 C 
HETATM   10  C   UNL     1      -6.232   2.747 -31.396  1.00  0.00     0.061 C 
HETATM   11  H   UNL     1      -5.223   5.249 -29.574  1.00  0.00     0.167 HD
ENDROOT
BRANCH   4  12
HETATM   12  C   UNL     1      -2.302   6.266 -30.386  1.00  0.00     0.261 C 
HETATM   13  N   UNL     1      -1.232   5.799 -29.644  1.00  0.00    -0.323 N 
HETATM   14  H   UNL     1      -0.980   4.832 -29.805  1.00  0.00     0.169 HD
HETATM   15  O   UNL     1      -2.714   7.419 -30.407  1.00  0.00    -0.267 OA
BRANCH  13  16
HETATM   16  C   UNL     1      -0.370   6.545 -28.816  1.00  0.00     0.035 A 
HETATM   17  C   UNL     1       0.471   7.563 -29.279  1.00  0.00     0.032 A 
HETATM   18  C   UNL     1       1.328   8.230 -28.398  1.00  0.00     0.044 A 
HETATM   19  C   UNL     1       1.337   7.885 -27.054  1.00  0.00     0.116 A 
HETATM   20  F   UNL     1       2.161   8.521 -26.212  1.00  0.00    -0.206 F 
HETATM   21  C   UNL     1       0.503   6.885 -26.572  1.00  0.00     0.044 A 
HETATM   22  C   UNL     1      -0.350   6.215 -27.454  1.00  0.00     0.032 A 
ENDBRANCH  13  16
ENDBRANCH   4  12
BRANCH   1  23
HETATM   23  C   UNL     1      -4.370   1.185 -32.260  1.00  0.00     0.005 A 
HETATM   24  C   UNL     1      -4.692   0.117 -33.123  1.00  0.00     0.077 A 
HETATM   25  C   UNL     1      -4.003  -1.097 -33.014  1.00  0.00     0.037 A 
HETATM   26  C   UNL     1      -3.019  -1.271 -32.039  1.00  0.00     0.003 A 
HETATM   27  C   UNL     1      -2.712  -0.235 -31.167  1.00  0.00     0.001 A 
HETATM   28  C   UNL     1      -3.382   0.982 -31.274  1.00  0.00     0.012 A 
BRANCH  24  29
HETATM   29  O   UNL     1      -5.661   0.353 -34.059  1.00  0.00    -0.351 OA
BRANCH  29  30
HETATM   30  C   UNL     1      -6.290  -0.779 -34.659  1.00  0.00     0.171 C 
HETATM   31  C   UNL     1      -7.555  -1.083 -33.875  1.00  0.00     0.034 C 
ENDBRANCH  29  30
ENDBRANCH  24  29
ENDBRANCH   1  23
BRANCH  10  32
HETATM   32  C   UNL     1      -7.528   2.132 -31.815  1.00  0.00     0.256 C 
HETATM   33  N   UNL     1      -8.212   2.844 -32.775  1.00  0.00    -0.323 N 
HETATM   34  H   UNL     1      -7.729   3.611 -33.225  1.00  0.00     0.169 HD
HETATM   35  O   UNL     1      -7.913   1.109 -31.259  1.00  0.00    -0.267 OA
BRANCH  33  36
HETATM   36  C   UNL     1      -9.558   2.678 -33.167  1.00  0.00     0.035 A 
HETATM   37  C   UNL     1      -9.990   1.755 -34.121  1.00  0.00     0.029 A 
HETATM   38  C   UNL     1     -11.351   1.621 -34.415  1.00  0.00     0.002 A 
HETATM   39  C   UNL     1     -12.294   2.405 -33.753  1.00  0.00     0.000 A 
HETATM   40  C   UNL     1     -11.875   3.332 -32.803  1.00  0.00     0.002 A 
HETATM   41  C   UNL     1     -10.514   3.473 -32.517  1.00  0.00     0.029 A 
ENDBRANCH  33  36
ENDBRANCH  10  32
TORSDOF 7
ENDMDL
MODEL 2
REMARK VINA RESULT:      -9.6      1.668      1.976
REMARK  7 active torsions:
REMARK  status: ('A' for Active; 'I' for Inactive)
REMARK    1  A    between atoms: C_2  and  O_3 
REMARK    2  A    between atoms: O_3  and  C_4 
REMARK    3  A    between atoms: C_5  and  C_6 
REMARK    4  A    between atoms: C_9  and  C_10 
REMARK       I    between atoms: C_10  and  N_11 
REMARK    5  A    between atoms: N_11  and  C_12 
REMARK    6  A    between atoms: C_25  and  C_26 
REMARK       I    between atoms: C_26  and  N_27 
REMARK    7  A    between atoms: N_27  and  C_28 
ROOT
HETATM    1  C   UNL     1      -5.648   3.706 -32.437  1.00  0.00     0.188 C 
HETATM    2  N   UNL     1      -4.393   4.286 -31.938  1.00  0.00    -0.239 N 
HETATM    3  C   UNL     1      -4.315   5.454 -31.216  1.00  0.00     0.142 C 
HETATM    4  C   UNL     1      -2.983   5.601 -30.882  1.00  0.00     0.097 C 
HETATM    5  C   UNL     1      -2.339   4.548 -31.584  1.00  0.00     0.160 C 
HETATM    6  N   UNL     1      -3.188   3.754 -32.242  1.00  0.00    -0.181 NA
HETATM    7  N   UNL     1      -5.449   6.177 -31.011  1.00  0.00    -0.343 N 
HETATM    8  C   UNL     1      -6.661   5.855 -31.640  1.00  0.00     0.021 C 
HETATM    9  C   UNL     1      -7.756   6.887 -31.509  1.00  0.00     0.069 C 
HETATM   10  C   UNL     1      -6.798   4.694 -32.330  1.00  0.00     0.061 C 
HETATM   11  H   UNL     1      -5.386   7.159 -30.739  1.00  0.00     0.167 HD
ENDROOT
BRANCH   4  12
HETATM   12  C   UNL     1      -2.323   6.577 -30.036  1.00  0.00     0.261 C 
HETATM   13  N   UNL     1      -1.236   6.068 -29.347  1.00  0.00    -0.323 N 
HETATM   14  H   UNL     1      -1.022   5.096 -29.529  1.00  0.00     0.169 HD
HETATM   15  O   UNL     1      -2.698   7.742 -30.026  1.00  0.00    -0.267 OA
BRANCH  13  16
HETATM   16  C   UNL     1      -0.315   6.777 -28.550  1.00  0.00     0.035 A 
HETATM   17  C   UNL     1       0.553   7.757 -29.043  1.00  0.00     0.032 A 
HETATM   18  C   UNL     1       1.467   8.387 -28.192  1.00  0.00     0.044 A 
HETATM   19  C   UNL     1       1.505   8.044 -26.848  1.00  0.00     0.116 A 
HETATM   20  F   UNL     1       2.384   8.644 -26.036  1.00  0.00    -0.206 F 
HETATM   21  C   UNL     1       0.645   7.082 -26.336  1.00  0.00     0.044 A 
HETATM   22  C   UNL     1      -0.265   6.448 -27.188  1.00  0.00     0.032 A 
ENDBRANCH  13  16
ENDBRANCH   4  12
BRANCH   1  23
HETATM   23  C   UNL     1      -5.888   2.347 -31.768  1.00  0.00     0.005 A 
HETATM   24  C   UNL     1      -6.250   1.186 -32.482  1.00  0.00     0.077 A 
HETATM   25  C   UNL     1      -6.419  -0.025 -31.798  1.00  0.00     0.037 A 
HETATM   26  C   UNL     1      -6.261  -0.088 -30.413  1.00  0.00     0.003 A 
HETATM   27  C   UNL     1      -5.932   1.055 -29.697  1.00  0.00     0.001 A 
HETATM   28  C   UNL     1      -5.748   2.263 -30.367  1.00  0.00     0.012 A 
BRANCH  24  29
HETATM   29  O   UNL     1      -6.384   1.313 -33.837  1.00  0.00    -0.351 OA
BRANCH  29  30
HETATM   30  C   UNL     1      -6.431   0.115 -34.611  1.00  0.00     0.171 C 
HETATM   31  C   UNL     1      -7.775   0.065 -35.315  1.00  0.00     0.034 C 
ENDBRANCH  29  30
ENDBRANCH  24  29
ENDBRANCH   1  23
BRANCH  10  32
HETATM   32  C   UNL     1      -7.954   4.489 -33.256  1.00  0.00     0.256 C 
HETATM   33  N   UNL     1      -8.958   3.696 -32.746  1.00  0.00    -0.323 N 
HETATM   34  H   UNL     1      -8.917   3.458 -31.764  1.00  0.00     0.169 HD
HETATM   35  O   UNL     1      -7.909   4.968 -34.384  1.00  0.00    -0.267 OA
BRANCH  33  36
HETATM   36  C   UNL     1     -10.024   3.103 -33.457  1.00  0.00     0.035 A 
HETATM   37  C   UNL     1     -10.812   3.773 -34.395  1.00  0.00     0.029 A 
HETATM   38  C   UNL     1     -11.818   3.096 -35.091  1.00  0.00     0.002 A 
HETATM   39  C   UNL     1     -12.042   1.740 -34.861  1.00  0.00     0.000 A 
HETATM   40  C   UNL     1     -11.266   1.062 -33.925  1.00  0.00     0.002 A 
HETATM   41  C   UNL     1     -10.267   1.742 -33.222  1.00  0.00     0.029 A 
ENDBRANCH  33  36
ENDBRANCH  10  32
TORSDOF 7
ENDMDL
MODEL 3
REMARK VINA RESULT:      -9.5      4.055      9.167
REMARK  7 active torsions:
REMARK  status: ('A' for Active; 'I' for Inactive)
REMARK    1  A    between atoms: C_2  and  O_3 
REMARK    2  A    between atoms: O_3  and  C_4 
REMARK    3  A    between atoms: C_5  and  C_6 
REMARK    4  A    between atoms: C_9  and  C_10 
REMARK       I    between atoms: C_10  and  N_11 
REMARK    5  A    between atoms: N_11  and  C_12 
REMARK    6  A    between atoms: C_25  and  C_26 
REMARK       I    between atoms: C_26  and  N_27 
REMARK    7  A    between atoms: N_27  and  C_28 
ROOT
HETATM    1  C   UNL     1      -3.616   4.577 -31.268  1.00  0.00     0.188 C 
HETATM    2  N   UNL     1      -3.704   3.114 -31.390  1.00  0.00    -0.239 N 
HETATM    3  C   UNL     1      -4.862   2.431 -31.677  1.00  0.00     0.142 C 
HETATM    4  C   UNL     1      -4.499   1.102 -31.775  1.00  0.00     0.097 C 
HETATM    5  C   UNL     1      -3.136   1.093 -31.377  1.00  0.00     0.160 C 
HETATM    6  N   UNL     1      -2.650   2.310 -31.126  1.00  0.00    -0.181 NA
HETATM    7  N   UNL     1      -6.028   3.126 -31.777  1.00  0.00    -0.343 N 
HETATM    8  C   UNL     1      -6.115   4.486 -31.445  1.00  0.00     0.021 C 
HETATM    9  C   UNL     1      -7.514   5.049 -31.370  1.00  0.00     0.069 C 
HETATM   10  C   UNL     1      -4.996   5.212 -31.192  1.00  0.00     0.061 C 
HETATM   11  H   UNL     1      -6.921   2.637 -31.704  1.00  0.00     0.167 HD
ENDROOT
BRANCH   4  12
HETATM   12  C   UNL     1      -5.271  -0.062 -32.167  1.00  0.00     0.261 C 
HETATM   13  N   UNL     1      -4.771  -0.707 -33.284  1.00  0.00    -0.323 N 
HETATM   14  H   UNL     1      -3.926  -0.309 -33.675  1.00  0.00     0.169 HD
HETATM   15  O   UNL     1      -6.227  -0.427 -31.494  1.00  0.00    -0.267 OA
BRANCH  13  16
HETATM   16  C   UNL     1      -5.208  -1.926 -33.840  1.00  0.00     0.035 A 
HETATM   17  C   UNL     1      -4.407  -3.069 -33.946  1.00  0.00     0.032 A 
HETATM   18  C   UNL     1      -4.904  -4.229 -34.548  1.00  0.00     0.044 A 
HETATM   19  C   UNL     1      -6.203  -4.250 -35.034  1.00  0.00     0.116 A 
HETATM   20  F   UNL     1      -6.676  -5.359 -35.615  1.00  0.00    -0.206 F 
HETATM   21  C   UNL     1      -7.018  -3.130 -34.930  1.00  0.00     0.044 A 
HETATM   22  C   UNL     1      -6.520  -1.968 -34.333  1.00  0.00     0.032 A 
ENDBRANCH  13  16
ENDBRANCH   4  12
BRANCH   1  23
HETATM   23  C   UNL     1      -2.701   5.130 -32.367  1.00  0.00     0.005 A 
HETATM   24  C   UNL     1      -1.581   5.945 -32.104  1.00  0.00     0.077 A 
HETATM   25  C   UNL     1      -0.776   6.383 -33.163  1.00  0.00     0.037 A 
HETATM   26  C   UNL     1      -1.088   6.044 -34.480  1.00  0.00     0.003 A 
HETATM   27  C   UNL     1      -2.204   5.264 -34.753  1.00  0.00     0.001 A 
HETATM   28  C   UNL     1      -3.005   4.812 -33.707  1.00  0.00     0.012 A 
BRANCH  24  29
HETATM   29  O   UNL     1      -1.326   6.237 -30.792  1.00  0.00    -0.351 OA
BRANCH  29  30
HETATM   30  C   UNL     1       0.023   6.532 -30.431  1.00  0.00     0.171 C 
HETATM   31  C   UNL     1      -0.006   7.503 -29.264  1.00  0.00     0.034 C 
ENDBRANCH  29  30
ENDBRANCH  24  29
ENDBRANCH   1  23
BRANCH  10  32
HETATM   32  C   UNL     1      -5.087   6.552 -30.536  1.00  0.00     0.256 C 
HETATM   33  N   UNL     1      -4.749   7.609 -31.352  1.00  0.00    -0.323 N 
HETATM   34  H   UNL     1      -4.630   7.422 -32.339  1.00  0.00     0.169 HD
HETATM   35  O   UNL     1      -5.385   6.618 -29.348  1.00  0.00    -0.267 OA
BRANCH  33  36
HETATM   36  C   UNL     1      -4.474   8.938 -30.960  1.00  0.00     0.035 A 
HETATM   37  C   UNL     1      -5.445   9.929 -30.808  1.00  0.00     0.029 A 
HETATM   38  C   UNL     1      -5.092  11.209 -30.369  1.00  0.00     0.002 A 
HETATM   39  C   UNL     1      -3.764  11.508 -30.071  1.00  0.00     0.000 A 
HETATM   40  C   UNL     1      -2.786  10.529 -30.223  1.00  0.00     0.002 A 
HETATM   41  C   UNL     1      -3.138   9.253 -30.672  1.00  0.00     0.029 A 
ENDBRANCH  33  36
ENDBRANCH  10  32
TORSDOF 7
ENDMDL
MODEL 4
REMARK VINA RESULT:      -9.4      3.927      9.466
REMARK  7 active torsions:
REMARK  status: ('A' for Active; 'I' for Inactive)
REMARK    1  A    between atoms: C_2  and  O_3 
REMARK    2  A    between atoms: O_3  and  C_4 
REMARK    3  A    between atoms: C_5  and  C_6 
REMARK    4  A    between atoms: C_9  and  C_10 
REMARK       I    between atoms: C_10  and  N_11 
REMARK    5  A    between atoms: N_11  and  C_12 
REMARK    6  A    between atoms: C_25  and  C_26 
REMARK       I    between atoms: C_26  and  N_27 
REMARK    7  A    between atoms: N_27  and  C_28 
ROOT
HETATM    1  C   UNL     1      -4.860   2.217 -31.781  1.00  0.00     0.188 C 
HETATM    2  N   UNL     1      -6.324   2.087 -31.739  1.00  0.00    -0.239 N 
HETATM    3  C   UNL     1      -7.177   2.678 -32.640  1.00  0.00     0.142 C 
HETATM    4  C   UNL     1      -8.444   2.249 -32.294  1.00  0.00     0.097 C 
HETATM    5  C   UNL     1      -8.241   1.534 -31.084  1.00  0.00     0.160 C 
HETATM    6  N   UNL     1      -6.956   1.445 -30.732  1.00  0.00    -0.181 NA
HETATM    7  N   UNL     1      -6.662   3.504 -33.590  1.00  0.00    -0.343 N 
HETATM    8  C   UNL     1      -5.315   3.897 -33.584  1.00  0.00     0.021 C 
HETATM    9  C   UNL     1      -4.955   5.003 -34.547  1.00  0.00     0.069 C 
HETATM   10  C   UNL     1      -4.426   3.314 -32.739  1.00  0.00     0.061 C 
HETATM   11  H   UNL     1      -7.270   4.164 -34.077  1.00  0.00     0.167 HD
ENDROOT
BRANCH   4  12
HETATM   12  C   UNL     1      -9.723   2.451 -32.950  1.00  0.00     0.261 C 
HETATM   13  N   UNL     1     -10.501   1.310 -33.009  1.00  0.00    -0.323 N 
HETATM   14  H   UNL     1     -10.102   0.487 -32.575  1.00  0.00     0.169 HD
HETATM   15  O   UNL     1     -10.051   3.566 -33.334  1.00  0.00    -0.267 OA
BRANCH  13  16
HETATM   16  C   UNL     1     -11.831   1.199 -33.461  1.00  0.00     0.035 A 
HETATM   17  C   UNL     1     -12.612   2.287 -33.868  1.00  0.00     0.032 A 
HETATM   18  C   UNL     1     -13.939   2.097 -34.266  1.00  0.00     0.044 A 
HETATM   19  C   UNL     1     -14.482   0.821 -34.265  1.00  0.00     0.116 A 
HETATM   20  F   UNL     1     -15.754   0.642 -34.641  1.00  0.00    -0.206 F 
HETATM   21  C   UNL     1     -13.722  -0.274 -33.875  1.00  0.00     0.044 A 
HETATM   22  C   UNL     1     -12.397  -0.084 -33.472  1.00  0.00     0.032 A 
ENDBRANCH  13  16
ENDBRANCH   4  12
BRANCH   1  23
HETATM   23  C   UNL     1      -4.229   0.841 -32.033  1.00  0.00     0.005 A 
HETATM   24  C   UNL     1      -4.658  -0.030 -33.057  1.00  0.00     0.077 A 
HETATM   25  C   UNL     1      -4.007  -1.256 -33.243  1.00  0.00     0.037 A 
HETATM   26  C   UNL     1      -2.957  -1.638 -32.407  1.00  0.00     0.003 A 
HETATM   27  C   UNL     1      -2.545  -0.799 -31.379  1.00  0.00     0.001 A 
HETATM   28  C   UNL     1      -3.175   0.428 -31.192  1.00  0.00     0.012 A 
BRANCH  24  29
HETATM   29  O   UNL     1      -5.688   0.405 -33.844  1.00  0.00    -0.351 OA
BRANCH  29  30
HETATM   30  C   UNL     1      -6.558  -0.581 -34.398  1.00  0.00     0.171 C 
HETATM   31  C   UNL     1      -7.562   0.127 -35.290  1.00  0.00     0.034 C 
ENDBRANCH  29  30
ENDBRANCH  24  29
ENDBRANCH   1  23
BRANCH  10  32
HETATM   32  C   UNL     1      -3.085   3.931 -32.498  1.00  0.00     0.256 C 
HETATM   33  N   UNL     1      -2.974   4.598 -31.299  1.00  0.00    -0.323 N 
HETATM   34  H   UNL     1      -3.722   4.487 -30.626  1.00  0.00     0.169 HD
HETATM   35  O   UNL     1      -2.227   3.858 -33.370  1.00  0.00    -0.267 OA
BRANCH  33  36
HETATM   36  C   UNL     1      -1.956   5.497 -30.910  1.00  0.00     0.035 A 
HETATM   37  C   UNL     1      -2.164   6.850 -30.639  1.00  0.00     0.029 A 
HETATM   38  C   UNL     1      -1.106   7.660 -30.213  1.00  0.00     0.002 A 
HETATM   39  C   UNL     1       0.168   7.122 -30.046  1.00  0.00     0.000 A 
HETATM   40  C   UNL     1       0.388   5.774 -30.317  1.00  0.00     0.002 A 
HETATM   41  C   UNL     1      -0.666   4.968 -30.754  1.00  0.00     0.029 A 
ENDBRANCH  33  36
ENDBRANCH  10  32
TORSDOF 7
ENDMDL
MODEL 5
REMARK VINA RESULT:      -9.3      1.845      2.884
REMARK  7 active torsions:
REMARK  status: ('A' for Active; 'I' for Inactive)
REMARK    1  A    between atoms: C_2  and  O_3 
REMARK    2  A    between atoms: O_3  and  C_4 
REMARK    3  A    between atoms: C_5  and  C_6 
REMARK    4  A    between atoms: C_9  and  C_10 
REMARK       I    between atoms: C_10  and  N_11 
REMARK    5  A    between atoms: N_11  and  C_12 
REMARK    6  A    between atoms: C_25  and  C_26 
REMARK       I    between atoms: C_26  and  N_27 
REMARK    7  A    between atoms: N_27  and  C_28 
ROOT
HETATM    1  C   UNL     1      -7.215   2.319 -33.581  1.00  0.00     0.188 C 
HETATM    2  N   UNL     1      -6.202   3.384 -33.562  1.00  0.00    -0.239 N 
HETATM    3  C   UNL     1      -5.938   4.179 -32.472  1.00  0.00     0.142 C 
HETATM    4  C   UNL     1      -4.881   4.987 -32.843  1.00  0.00     0.097 C 
HETATM    5  C   UNL     1      -4.699   4.694 -34.221  1.00  0.00     0.160 C 
HETATM    6  N   UNL     1      -5.509   3.732 -34.669  1.00  0.00    -0.181 NA
HETATM    7  N   UNL     1      -6.707   4.044 -31.357  1.00  0.00    -0.343 N 
HETATM    8  C   UNL     1      -7.854   3.236 -31.337  1.00  0.00     0.021 C 
HETATM    9  C   UNL     1      -8.732   3.382 -30.118  1.00  0.00     0.069 C 
HETATM   10  C   UNL     1      -8.134   2.404 -32.373  1.00  0.00     0.061 C 
HETATM   11  H   UNL     1      -6.728   4.788 -30.659  1.00  0.00     0.167 HD
ENDROOT
BRANCH   4  12
HETATM   12  C   UNL     1      -4.104   5.941 -32.074  1.00  0.00     0.261 C 
HETATM   13  N   UNL     1      -2.957   5.401 -31.520  1.00  0.00    -0.323 N 
HETATM   14  H   UNL     1      -2.788   4.425 -31.733  1.00  0.00     0.169 HD
HETATM   15  O   UNL     1      -4.448   7.114 -32.013  1.00  0.00    -0.267 OA
BRANCH  13  16
HETATM   16  C   UNL     1      -1.932   6.081 -30.832  1.00  0.00     0.035 A 
HETATM   17  C   UNL     1      -2.131   6.807 -29.653  1.00  0.00     0.032 A 
HETATM   18  C   UNL     1      -1.067   7.488 -29.052  1.00  0.00     0.044 A 
HETATM   19  C   UNL     1       0.195   7.436 -29.626  1.00  0.00     0.116 A 
HETATM   20  F   UNL     1       1.210   8.093 -29.053  1.00  0.00    -0.206 F 
HETATM   21  C   UNL     1       0.416   6.713 -30.790  1.00  0.00     0.044 A 
HETATM   22  C   UNL     1      -0.648   6.036 -31.394  1.00  0.00     0.032 A 
ENDBRANCH  13  16
ENDBRANCH   4  12
BRANCH   1  23
HETATM   23  C   UNL     1      -6.530   0.962 -33.786  1.00  0.00     0.005 A 
HETATM   24  C   UNL     1      -5.458   0.508 -32.989  1.00  0.00     0.077 A 
HETATM   25  C   UNL     1      -4.909  -0.759 -33.221  1.00  0.00     0.037 A 
HETATM   26  C   UNL     1      -5.392  -1.567 -34.251  1.00  0.00     0.003 A 
HETATM   27  C   UNL     1      -6.429  -1.118 -35.059  1.00  0.00     0.001 A 
HETATM   28  C   UNL     1      -6.993   0.135 -34.830  1.00  0.00     0.012 A 
BRANCH  24  29
HETATM   29  O   UNL     1      -5.035   1.344 -31.993  1.00  0.00    -0.351 OA
BRANCH  29  30
HETATM   30  C   UNL     1      -4.701   0.757 -30.735  1.00  0.00     0.171 C 
HETATM   31  C   UNL     1      -5.993   0.507 -29.977  1.00  0.00     0.034 C 
ENDBRANCH  29  30
ENDBRANCH  24  29
ENDBRANCH   1  23
BRANCH  10  32
HETATM   32  C   UNL     1      -9.490   1.788 -32.511  1.00  0.00     0.256 C 
HETATM   33  N   UNL     1     -10.420   2.592 -33.131  1.00  0.00    -0.323 N 
HETATM   34  H   UNL     1     -10.089   3.439 -33.576  1.00  0.00     0.169 HD
HETATM   35  O   UNL     1      -9.695   0.678 -32.031  1.00  0.00    -0.267 OA
BRANCH  33  36
HETATM   36  C   UNL     1     -11.820   2.413 -33.163  1.00  0.00     0.035 A 
HETATM   37  C   UNL     1     -12.465   1.379 -33.843  1.00  0.00     0.029 A 
HETATM   38  C   UNL     1     -13.856   1.247 -33.783  1.00  0.00     0.002 A 
HETATM   39  C   UNL     1     -14.615   2.144 -33.034  1.00  0.00     0.000 A 
HETATM   40  C   UNL     1     -13.984   3.182 -32.354  1.00  0.00     0.002 A 
HETATM   41  C   UNL     1     -12.595   3.320 -32.424  1.00  0.00     0.029 A 
ENDBRANCH  33  36
ENDBRANCH  10  32
TORSDOF 7
ENDMDL
MODEL 6
REMARK VINA RESULT:      -9.3      5.322      9.936
REMARK  7 active torsions:
REMARK  status: ('A' for Active; 'I' for Inactive)
REMARK    1  A    between atoms: C_2  and  O_3 
REMARK    2  A    between atoms: O_3  and  C_4 
REMARK    3  A    between atoms: C_5  and  C_6 
REMARK    4  A    between atoms: C_9  and  C_10 
REMARK       I    between atoms: C_10  and  N_11 
REMARK    5  A    between atoms: N_11  and  C_12 
REMARK    6  A    between atoms: C_25  and  C_26 
REMARK       I    between atoms: C_26  and  N_27 
REMARK    7  A    between atoms: N_27  and  C_28 
ROOT
HETATM    1  C   UNL     1      -7.882   2.313 -32.869  1.00  0.00     0.188 C 
HETATM    2  N   UNL     1      -9.023   3.111 -33.344  1.00  0.00    -0.239 N 
HETATM    3  C   UNL     1     -10.330   2.687 -33.309  1.00  0.00     0.142 C 
HETATM    4  C   UNL     1     -11.082   3.750 -33.770  1.00  0.00     0.097 C 
HETATM    5  C   UNL     1     -10.109   4.694 -34.194  1.00  0.00     0.160 C 
HETATM    6  N   UNL     1      -8.855   4.306 -33.953  1.00  0.00    -0.181 NA
HETATM    7  N   UNL     1     -10.600   1.421 -32.888  1.00  0.00    -0.343 N 
HETATM    8  C   UNL     1      -9.583   0.487 -32.640  1.00  0.00     0.021 C 
HETATM    9  C   UNL     1     -10.045  -0.935 -32.423  1.00  0.00     0.069 C 
HETATM   10  C   UNL     1      -8.280   0.866 -32.624  1.00  0.00     0.061 C 
HETATM   11  H   UNL     1     -11.496   0.989 -33.115  1.00  0.00     0.167 HD
ENDROOT
BRANCH   4  12
HETATM   12  C   UNL     1     -12.520   3.927 -33.848  1.00  0.00     0.261 C 
HETATM   13  N   UNL     1     -13.192   3.498 -32.718  1.00  0.00    -0.323 N 
HETATM   14  H   UNL     1     -12.608   3.137 -31.974  1.00  0.00     0.169 HD
HETATM   15  O   UNL     1     -13.023   4.472 -34.822  1.00  0.00    -0.267 OA
BRANCH  13  16
HETATM   16  C   UNL     1     -14.563   3.646 -32.427  1.00  0.00     0.035 A 
HETATM   17  C   UNL     1     -15.166   4.864 -32.097  1.00  0.00     0.032 A 
HETATM   18  C   UNL     1     -16.528   4.919 -31.781  1.00  0.00     0.044 A 
HETATM   19  C   UNL     1     -17.287   3.758 -31.806  1.00  0.00     0.116 A 
HETATM   20  F   UNL     1     -18.589   3.811 -31.499  1.00  0.00    -0.206 F 
HETATM   21  C   UNL     1     -16.711   2.540 -32.142  1.00  0.00     0.044 A 
HETATM   22  C   UNL     1     -15.349   2.484 -32.452  1.00  0.00     0.032 A 
ENDBRANCH  13  16
ENDBRANCH   4  12
BRANCH   1  23
HETATM   23  C   UNL     1      -7.221   3.019 -31.679  1.00  0.00     0.005 A 
HETATM   24  C   UNL     1      -5.839   3.292 -31.611  1.00  0.00     0.077 A 
HETATM   25  C   UNL     1      -5.318   3.971 -30.502  1.00  0.00     0.037 A 
HETATM   26  C   UNL     1      -6.149   4.356 -29.450  1.00  0.00     0.003 A 
HETATM   27  C   UNL     1      -7.507   4.069 -29.493  1.00  0.00     0.001 A 
HETATM   28  C   UNL     1      -8.039   3.406 -30.597  1.00  0.00     0.012 A 
BRANCH  24  29
HETATM   29  O   UNL     1      -5.080   2.894 -32.677  1.00  0.00    -0.351 OA
BRANCH  29  30
HETATM   30  C   UNL     1      -3.705   2.597 -32.435  1.00  0.00     0.171 C 
HETATM   31  C   UNL     1      -3.568   1.091 -32.298  1.00  0.00     0.034 C 
ENDBRANCH  29  30
ENDBRANCH  24  29
ENDBRANCH   1  23
BRANCH  10  32
HETATM   32  C   UNL     1      -7.187  -0.153 -32.680  1.00  0.00     0.256 C 
HETATM   33  N   UNL     1      -7.046  -0.768 -33.904  1.00  0.00    -0.323 N 
HETATM   34  H   UNL     1      -7.559  -0.384 -34.687  1.00  0.00     0.169 HD
HETATM   35  O   UNL     1      -6.554  -0.409 -31.662  1.00  0.00    -0.267 OA
BRANCH  33  36
HETATM   36  C   UNL     1      -6.310  -1.938 -34.194  1.00  0.00     0.035 A 
HETATM   37  C   UNL     1      -4.923  -2.044 -34.072  1.00  0.00     0.029 A 
HETATM   38  C   UNL     1      -4.278  -3.258 -34.333  1.00  0.00     0.002 A 
HETATM   39  C   UNL     1      -5.015  -4.378 -34.711  1.00  0.00     0.000 A 
HETATM   40  C   UNL     1      -6.397  -4.284 -34.840  1.00  0.00     0.002 A 
HETATM   41  C   UNL     1      -7.041  -3.068 -34.589  1.00  0.00     0.029 A 
ENDBRANCH  33  36
ENDBRANCH  10  32
TORSDOF 7
ENDMDL
MODEL 7
REMARK VINA RESULT:      -9.2      3.995      9.366
REMARK  7 active torsions:
REMARK  status: ('A' for Active; 'I' for Inactive)
REMARK    1  A    between atoms: C_2  and  O_3 
REMARK    2  A    between atoms: O_3  and  C_4 
REMARK    3  A    between atoms: C_5  and  C_6 
REMARK    4  A    between atoms: C_9  and  C_10 
REMARK       I    between atoms: C_10  and  N_11 
REMARK    5  A    between atoms: N_11  and  C_12 
REMARK    6  A    between atoms: C_25  and  C_26 
REMARK       I    between atoms: C_26  and  N_27 
REMARK    7  A    between atoms: N_27  and  C_28 
ROOT
HETATM    1  C   UNL     1      -3.545   4.844 -30.935  1.00  0.00     0.188 C 
HETATM    2  N   UNL     1      -3.710   3.427 -31.292  1.00  0.00    -0.239 N 
HETATM    3  C   UNL     1      -4.918   2.841 -31.587  1.00  0.00     0.142 C 
HETATM    4  C   UNL     1      -4.627   1.537 -31.937  1.00  0.00     0.097 C 
HETATM    5  C   UNL     1      -3.238   1.416 -31.667  1.00  0.00     0.160 C 
HETATM    6  N   UNL     1      -2.677   2.556 -31.259  1.00  0.00    -0.181 NA
HETATM    7  N   UNL     1      -6.054   3.580 -31.469  1.00  0.00    -0.343 N 
HETATM    8  C   UNL     1      -6.051   4.866 -30.907  1.00  0.00     0.021 C 
HETATM    9  C   UNL     1      -7.412   5.453 -30.618  1.00  0.00     0.069 C 
HETATM   10  C   UNL     1      -4.883   5.501 -30.635  1.00  0.00     0.061 C 
HETATM   11  H   UNL     1      -6.961   3.115 -31.402  1.00  0.00     0.167 HD
ENDROOT
BRANCH   4  12
HETATM   12  C   UNL     1      -5.481   0.482 -32.451  1.00  0.00     0.261 C 
HETATM   13  N   UNL     1      -4.841  -0.367 -33.335  1.00  0.00    -0.323 N 
HETATM   14  H   UNL     1      -3.862  -0.169 -33.499  1.00  0.00     0.169 HD
HETATM   15  O   UNL     1      -6.633   0.369 -32.050  1.00  0.00    -0.267 OA
BRANCH  13  16
HETATM   16  C   UNL     1      -5.347  -1.552 -33.906  1.00  0.00     0.035 A 
HETATM   17  C   UNL     1      -6.675  -1.719 -34.313  1.00  0.00     0.032 A 
HETATM   18  C   UNL     1      -7.108  -2.942 -34.835  1.00  0.00     0.044 A 
HETATM   19  C   UNL     1      -6.212  -3.994 -34.959  1.00  0.00     0.116 A 
HETATM   20  F   UNL     1      -6.629  -5.165 -35.454  1.00  0.00    -0.206 F 
HETATM   21  C   UNL     1      -4.887  -3.846 -34.571  1.00  0.00     0.044 A 
HETATM   22  C   UNL     1      -4.455  -2.625 -34.044  1.00  0.00     0.032 A 
ENDBRANCH  13  16
ENDBRANCH   4  12
BRANCH   1  23
HETATM   23  C   UNL     1      -2.696   5.546 -32.002  1.00  0.00     0.005 A 
HETATM   24  C   UNL     1      -1.560   6.325 -31.698  1.00  0.00     0.077 A 
HETATM   25  C   UNL     1      -0.819   6.907 -32.734  1.00  0.00     0.037 A 
HETATM   26  C   UNL     1      -1.209   6.748 -34.064  1.00  0.00     0.003 A 
HETATM   27  C   UNL     1      -2.342   6.005 -34.373  1.00  0.00     0.001 A 
HETATM   28  C   UNL     1      -3.080   5.411 -33.352  1.00  0.00     0.012 A 
BRANCH  24  29
HETATM   29  O   UNL     1      -1.227   6.438 -30.376  1.00  0.00    -0.351 OA
BRANCH  29  30
HETATM   30  C   UNL     1       0.158   6.378 -30.036  1.00  0.00     0.171 C 
HETATM   31  C   UNL     1       0.462   7.533 -29.099  1.00  0.00     0.034 C 
ENDBRANCH  29  30
ENDBRANCH  24  29
ENDBRANCH   1  23
BRANCH  10  32
HETATM   32  C   UNL     1      -4.858   6.712 -29.759  1.00  0.00     0.256 C 
HETATM   33  N   UNL     1      -3.891   6.685 -28.778  1.00  0.00    -0.323 N 
HETATM   34  H   UNL     1      -3.193   5.955 -28.826  1.00  0.00     0.169 HD
HETATM   35  O   UNL     1      -5.702   7.587 -29.922  1.00  0.00    -0.267 OA
BRANCH  33  36
HETATM   36  C   UNL     1      -3.794   7.527 -27.649  1.00  0.00     0.035 A 
HETATM   37  C   UNL     1      -4.511   7.342 -26.466  1.00  0.00     0.029 A 
HETATM   38  C   UNL     1      -4.318   8.197 -25.376  1.00  0.00     0.002 A 
HETATM   39  C   UNL     1      -3.399   9.241 -25.457  1.00  0.00     0.000 A 
HETATM   40  C   UNL     1      -2.681   9.439 -26.632  1.00  0.00     0.002 A 
HETATM   41  C   UNL     1      -2.882   8.591 -27.725  1.00  0.00     0.029 A 
ENDBRANCH  33  36
ENDBRANCH  10  32
TORSDOF 7
ENDMDL
MODEL 8
REMARK VINA RESULT:      -9.0      2.397      5.188
REMARK  7 active torsions:
REMARK  status: ('A' for Active; 'I' for Inactive)
REMARK    1  A    between atoms: C_2  and  O_3 
REMARK    2  A    between atoms: O_3  and  C_4 
REMARK    3  A    between atoms: C_5  and  C_6 
REMARK    4  A    between atoms: C_9  and  C_10 
REMARK       I    between atoms: C_10  and  N_11 
REMARK    5  A    between atoms: N_11  and  C_12 
REMARK    6  A    between atoms: C_25  and  C_26 
REMARK       I    between atoms: C_26  and  N_27 
REMARK    7  A    between atoms: N_27  and  C_28 
ROOT
HETATM    1  C   UNL     1      -6.930   1.531 -31.337  1.00  0.00     0.188 C 
HETATM    2  N   UNL     1      -6.908   2.805 -30.602  1.00  0.00    -0.239 N 
HETATM    3  C   UNL     1      -5.890   3.724 -30.681  1.00  0.00     0.142 C 
HETATM    4  C   UNL     1      -6.290   4.796 -29.908  1.00  0.00     0.097 C 
HETATM    5  C   UNL     1      -7.489   4.343 -29.296  1.00  0.00     0.160 C 
HETATM    6  N   UNL     1      -7.862   3.126 -29.700  1.00  0.00    -0.181 NA
HETATM    7  N   UNL     1      -4.785   3.420 -31.415  1.00  0.00    -0.343 N 
HETATM    8  C   UNL     1      -4.582   2.145 -31.963  1.00  0.00     0.021 C 
HETATM    9  C   UNL     1      -3.207   1.892 -32.534  1.00  0.00     0.069 C 
HETATM   10  C   UNL     1      -5.573   1.216 -31.944  1.00  0.00     0.061 C 
HETATM   11  H   UNL     1      -3.916   3.936 -31.268  1.00  0.00     0.167 HD
ENDROOT
BRANCH   4  12
HETATM   12  C   UNL     1      -5.681   6.098 -29.707  1.00  0.00     0.261 C 
HETATM   13  N   UNL     1      -4.422   6.037 -29.137  1.00  0.00    -0.323 N 
HETATM   14  H   UNL     1      -4.072   5.106 -28.951  1.00  0.00     0.169 HD
HETATM   15  O   UNL     1      -6.250   7.112 -30.089  1.00  0.00    -0.267 OA
BRANCH  13  16
HETATM   16  C   UNL     1      -3.521   7.101 -28.931  1.00  0.00     0.035 A 
HETATM   17  C   UNL     1      -2.769   7.698 -29.948  1.00  0.00     0.032 A 
HETATM   18  C   UNL     1      -1.866   8.724 -29.654  1.00  0.00     0.044 A 
HETATM   19  C   UNL     1      -1.721   9.158 -28.344  1.00  0.00     0.116 A 
HETATM   20  F   UNL     1      -0.851  10.136 -28.063  1.00  0.00    -0.206 F 
HETATM   21  C   UNL     1      -2.464   8.586 -27.321  1.00  0.00     0.044 A 
HETATM   22  C   UNL     1      -3.364   7.557 -27.614  1.00  0.00     0.032 A 
ENDBRANCH  13  16
ENDBRANCH   4  12
BRANCH   1  23
HETATM   23  C   UNL     1      -8.105   1.527 -32.323  1.00  0.00     0.005 A 
HETATM   24  C   UNL     1      -8.291   2.520 -33.307  1.00  0.00     0.077 A 
HETATM   25  C   UNL     1      -9.373   2.426 -34.192  1.00  0.00     0.037 A 
HETATM   26  C   UNL     1     -10.285   1.374 -34.092  1.00  0.00     0.003 A 
HETATM   27  C   UNL     1     -10.125   0.406 -33.109  1.00  0.00     0.001 A 
HETATM   28  C   UNL     1      -9.047   0.481 -32.232  1.00  0.00     0.012 A 
BRANCH  24  29
HETATM   29  O   UNL     1      -7.360   3.521 -33.357  1.00  0.00    -0.351 OA
BRANCH  29  30
HETATM   30  C   UNL     1      -7.783   4.793 -33.846  1.00  0.00     0.171 C 
HETATM   31  C   UNL     1      -8.413   5.553 -32.692  1.00  0.00     0.034 C 
ENDBRANCH  29  30
ENDBRANCH  24  29
ENDBRANCH   1  23
BRANCH  10  32
HETATM   32  C   UNL     1      -5.276  -0.222 -32.227  1.00  0.00     0.256 C 
HETATM   33  N   UNL     1      -5.499  -0.602 -33.532  1.00  0.00    -0.323 N 
HETATM   34  H   UNL     1      -5.680   0.126 -34.211  1.00  0.00     0.169 HD
HETATM   35  O   UNL     1      -4.927  -0.953 -31.307  1.00  0.00    -0.267 OA
BRANCH  33  36
HETATM   36  C   UNL     1      -5.577  -1.919 -34.038  1.00  0.00     0.035 A 
HETATM   37  C   UNL     1      -4.491  -2.791 -34.127  1.00  0.00     0.029 A 
HETATM   38  C   UNL     1      -4.666  -4.097 -34.596  1.00  0.00     0.002 A 
HETATM   39  C   UNL     1      -5.931  -4.545 -34.973  1.00  0.00     0.000 A 
HETATM   40  C   UNL     1      -7.020  -3.683 -34.892  1.00  0.00     0.002 A 
HETATM   41  C   UNL     1      -6.843  -2.375 -34.433  1.00  0.00     0.029 A 
ENDBRANCH  33  36
ENDBRANCH  10  32
TORSDOF 7
ENDMDL
MODEL 9
REMARK VINA RESULT:      -8.8      5.196      9.796
REMARK  7 active torsions:
REMARK  status: ('A' for Active; 'I' for Inactive)
REMARK    1  A    between atoms: C_2  and  O_3 
REMARK    2  A    between atoms: O_3  and  C_4 
REMARK    3  A    between atoms: C_5  and  C_6 
REMARK    4  A    between atoms: C_9  and  C_10 
REMARK       I    between atoms: C_10  and  N_11 
REMARK    5  A    between atoms: N_11  and  C_12 
REMARK    6  A    between atoms: C_25  and  C_26 
REMARK       I    between atoms: C_26  and  N_27 
REMARK    7  A    between atoms: N_27  and  C_28 
ROOT
HETATM    1  C   UNL     1      -7.572   2.593 -32.982  1.00  0.00     0.188 C 
HETATM    2  N   UNL     1      -8.569   3.481 -33.598  1.00  0.00    -0.239 N 
HETATM    3  C   UNL     1      -9.907   3.185 -33.703  1.00  0.00     0.142 C 
HETATM    4  C   UNL     1     -10.495   4.300 -34.267  1.00  0.00     0.097 C 
HETATM    5  C   UNL     1      -9.394   5.134 -34.596  1.00  0.00     0.160 C 
HETATM    6  N   UNL     1      -8.218   4.636 -34.207  1.00  0.00    -0.181 NA
HETATM    7  N   UNL     1     -10.345   1.964 -33.292  1.00  0.00    -0.343 N 
HETATM    8  C   UNL     1      -9.459   0.945 -32.912  1.00  0.00     0.021 C 
HETATM    9  C   UNL     1     -10.079  -0.419 -32.722  1.00  0.00     0.069 C 
HETATM   10  C   UNL     1      -8.135   1.198 -32.756  1.00  0.00     0.061 C 
HETATM   11  H   UNL     1     -11.249   1.613 -33.609  1.00  0.00     0.167 HD
ENDROOT
BRANCH   4  12
HETATM   12  C   UNL     1     -11.891   4.612 -34.511  1.00  0.00     0.261 C 
HETATM   13  N   UNL     1     -12.107   5.922 -34.899  1.00  0.00    -0.323 N 
HETATM   14  H   UNL     1     -11.275   6.493 -34.986  1.00  0.00     0.169 HD
HETATM   15  O   UNL     1     -12.744   3.737 -34.428  1.00  0.00    -0.267 OA
BRANCH  13  16
HETATM   16  C   UNL     1     -13.316   6.503 -35.329  1.00  0.00     0.035 A 
HETATM   17  C   UNL     1     -14.315   6.961 -34.463  1.00  0.00     0.032 A 
HETATM   18  C   UNL     1     -15.506   7.490 -34.970  1.00  0.00     0.044 A 
HETATM   19  C   UNL     1     -15.694   7.568 -36.343  1.00  0.00     0.116 A 
HETATM   20  F   UNL     1     -16.837   8.069 -36.827  1.00  0.00    -0.206 F 
HETATM   21  C   UNL     1     -14.711   7.129 -37.220  1.00  0.00     0.044 A 
HETATM   22  C   UNL     1     -13.523   6.596 -36.712  1.00  0.00     0.032 A 
ENDBRANCH  13  16
ENDBRANCH   4  12
BRANCH   1  23
HETATM   23  C   UNL     1      -6.981   3.268 -31.738  1.00  0.00     0.005 A 
HETATM   24  C   UNL     1      -5.595   3.428 -31.530  1.00  0.00     0.077 A 
HETATM   25  C   UNL     1      -5.136   4.086 -30.382  1.00  0.00     0.037 A 
HETATM   26  C   UNL     1      -6.037   4.561 -29.427  1.00  0.00     0.003 A 
HETATM   27  C   UNL     1      -7.402   4.386 -29.610  1.00  0.00     0.001 A 
HETATM   28  C   UNL     1      -7.871   3.744 -30.754  1.00  0.00     0.012 A 
BRANCH  24  29
HETATM   29  O   UNL     1      -4.766   2.945 -32.505  1.00  0.00    -0.351 OA
BRANCH  29  30
HETATM   30  C   UNL     1      -3.361   2.974 -32.252  1.00  0.00     0.171 C 
HETATM   31  C   UNL     1      -2.755   4.080 -33.096  1.00  0.00     0.034 C 
ENDBRANCH  29  30
ENDBRANCH  24  29
ENDBRANCH   1  23
BRANCH  10  32
HETATM   32  C   UNL     1      -7.148   0.078 -32.669  1.00  0.00     0.256 C 
HETATM   33  N   UNL     1      -6.797  -0.467 -33.884  1.00  0.00    -0.323 N 
HETATM   34  H   UNL     1      -7.094   0.018 -34.721  1.00  0.00     0.169 HD
HETATM   35  O   UNL     1      -6.775  -0.307 -31.566  1.00  0.00    -0.267 OA
BRANCH  33  36
HETATM   36  C   UNL     1      -6.120  -1.685 -34.112  1.00  0.00     0.035 A 
HETATM   37  C   UNL     1      -4.765  -1.892 -33.847  1.00  0.00     0.029 A 
HETATM   38  C   UNL     1      -4.184  -3.146 -34.056  1.00  0.00     0.002 A 
HETATM   39  C   UNL     1      -4.954  -4.208 -34.525  1.00  0.00     0.000 A 
HETATM   40  C   UNL     1      -6.305  -4.014 -34.797  1.00  0.00     0.002 A 
HETATM   41  C   UNL     1      -6.883  -2.757 -34.598  1.00  0.00     0.029 A 
ENDBRANCH  33  36
ENDBRANCH  10  32
TORSDOF 7
ENDMDL
MODEL 10
REMARK VINA RESULT:      -8.7      3.954      9.781
REMARK  7 active torsions:
REMARK  status: ('A' for Active; 'I' for Inactive)
REMARK    1  A    between atoms: C_2  and  O_3 
REMARK    2  A    between atoms: O_3  and  C_4 
REMARK    3  A    between atoms: C_5  and  C_6 
REMARK    4  A    between atoms: C_9  and  C_10 
REMARK       I    between atoms: C_10  and  N_11 
REMARK    5  A    between atoms: N_11  and  C_12 
REMARK    6  A    between atoms: C_25  and  C_26 
REMARK       I    between atoms: C_26  and  N_27 
REMARK    7  A    between atoms: N_27  and  C_28 
ROOT
HETATM    1  C   UNL     1      -3.994   4.948 -31.160  1.00  0.00     0.188 C 
HETATM    2  N   UNL     1      -5.089   3.982 -31.334  1.00  0.00    -0.239 N 
HETATM    3  C   UNL     1      -6.423   4.305 -31.254  1.00  0.00     0.142 C 
HETATM    4  C   UNL     1      -7.109   3.142 -31.549  1.00  0.00     0.097 C 
HETATM    5  C   UNL     1      -6.087   2.160 -31.636  1.00  0.00     0.160 C 
HETATM    6  N   UNL     1      -4.858   2.660 -31.490  1.00  0.00    -0.181 NA
HETATM    7  N   UNL     1      -6.774   5.574 -30.913  1.00  0.00    -0.343 N 
HETATM    8  C   UNL     1      -5.827   6.520 -30.489  1.00  0.00     0.021 C 
HETATM    9  C   UNL     1      -6.395   7.795 -29.913  1.00  0.00     0.069 C 
HETATM   10  C   UNL     1      -4.498   6.262 -30.586  1.00  0.00     0.061 C 
HETATM   11  H   UNL     1      -7.716   5.770 -30.573  1.00  0.00     0.167 HD
ENDROOT
BRANCH   4  12
HETATM   12  C   UNL     1      -8.528   2.902 -31.728  1.00  0.00     0.261 C 
HETATM   13  N   UNL     1      -8.863   2.492 -33.006  1.00  0.00    -0.323 N 
HETATM   14  H   UNL     1      -8.087   2.390 -33.648  1.00  0.00     0.169 HD
HETATM   15  O   UNL     1      -9.297   3.004 -30.781  1.00  0.00    -0.267 OA
BRANCH  13  16
HETATM   16  C   UNL     1     -10.123   2.059 -33.467  1.00  0.00     0.035 A 
HETATM   17  C   UNL     1     -11.013   2.867 -34.183  1.00  0.00     0.032 A 
HETATM   18  C   UNL     1     -12.263   2.373 -34.571  1.00  0.00     0.044 A 
HETATM   19  C   UNL     1     -12.618   1.071 -34.251  1.00  0.00     0.116 A 
HETATM   20  F   UNL     1     -13.816   0.602 -34.617  1.00  0.00    -0.206 F 
HETATM   21  C   UNL     1     -11.745   0.249 -33.550  1.00  0.00     0.044 A 
HETATM   22  C   UNL     1     -10.498   0.744 -33.157  1.00  0.00     0.032 A 
ENDBRANCH  13  16
ENDBRANCH   4  12
BRANCH   1  23
HETATM   23  C   UNL     1      -3.202   5.067 -32.469  1.00  0.00     0.005 A 
HETATM   24  C   UNL     1      -1.797   4.961 -32.535  1.00  0.00     0.077 A 
HETATM   25  C   UNL     1      -1.152   5.049 -33.775  1.00  0.00     0.037 A 
HETATM   26  C   UNL     1      -1.883   5.269 -34.943  1.00  0.00     0.003 A 
HETATM   27  C   UNL     1      -3.264   5.402 -34.886  1.00  0.00     0.001 A 
HETATM   28  C   UNL     1      -3.919   5.304 -33.660  1.00  0.00     0.012 A 
BRANCH  24  29
HETATM   29  O   UNL     1      -1.140   4.740 -31.356  1.00  0.00    -0.351 OA
BRANCH  29  30
HETATM   30  C   UNL     1       0.184   5.258 -31.231  1.00  0.00     0.171 C 
HETATM   31  C   UNL     1       0.081   6.717 -30.825  1.00  0.00     0.034 C 
ENDBRANCH  29  30
ENDBRANCH  24  29
ENDBRANCH   1  23
BRANCH  10  32
HETATM   32  C   UNL     1      -3.502   7.107 -29.857  1.00  0.00     0.256 C 
HETATM   33  N   UNL     1      -3.208   6.669 -28.585  1.00  0.00    -0.323 N 
HETATM   34  H   UNL     1      -3.547   5.756 -28.311  1.00  0.00     0.169 HD
HETATM   35  O   UNL     1      -3.075   8.124 -30.391  1.00  0.00    -0.267 OA
BRANCH  33  36
HETATM   36  C   UNL     1      -2.535   7.382 -27.568  1.00  0.00     0.035 A 
HETATM   37  C   UNL     1      -3.130   8.362 -26.772  1.00  0.00     0.029 A 
HETATM   38  C   UNL     1      -2.404   8.987 -25.753  1.00  0.00     0.002 A 
HETATM   39  C   UNL     1      -1.077   8.631 -25.516  1.00  0.00     0.000 A 
HETATM   40  C   UNL     1      -0.472   7.658 -26.306  1.00  0.00     0.002 A 
HETATM   41  C   UNL     1      -1.195   7.042 -27.332  1.00  0.00     0.029 A 
ENDBRANCH  33  36
ENDBRANCH  10  32
TORSDOF 7
ENDMDL
