MODEL 1
REMARK VINA RESULT:     -11.5      0.000      0.000
REMARK  7 active torsions:
REMARK  status: ('A' for Active; 'I' for Inactive)
REMARK    1  A    between atoms: C_6  and  N_7 
REMARK       I    between atoms: N_7  and  C_8 
REMARK    2  A    between atoms: C_8  and  C_9 
REMARK    3  A    between atoms: C_9  and  N_10 
REMARK    4  A    between atoms: N_13  and  C_14 
REMARK    5  A    between atoms: C_14  and  C_15 
REMARK    6  A    between atoms: C_30  and  C_31 
REMARK       I    between atoms: C_31  and  N_32 
REMARK    7  A    between atoms: N_32  and  C_33 
ROOT
HETATM    1  N   UNL     1      -4.949   2.990 -31.347  1.00  0.00    -0.290 N 
HETATM    2  C   UNL     1      -3.624   3.172 -31.723  1.00  0.00     0.332 C 
HETATM    3  O   UNL     1      -2.756   2.378 -31.346  1.00  0.00    -0.246 OA
HETATM    4  N   UNL     1      -3.345   4.241 -32.555  1.00  0.00    -0.261 N 
HETATM    5  C   UNL     1      -4.304   5.024 -33.180  1.00  0.00     0.264 C 
HETATM    6  O   UNL     1      -4.048   5.927 -33.972  1.00  0.00    -0.267 OA
HETATM    7  C   UNL     1      -5.712   4.720 -32.874  1.00  0.00     0.059 A 
HETATM    8  C   UNL     1      -6.010   3.714 -31.954  1.00  0.00     0.056 A 
HETATM    9  C   UNL     1      -6.728   5.454 -33.502  1.00  0.00     0.020 A 
HETATM   10  C   UNL     1      -8.063   5.170 -33.230  1.00  0.00     0.018 A 
HETATM   11  C   UNL     1      -8.386   4.148 -32.334  1.00  0.00     0.034 A 
HETATM   12  C   UNL     1      -7.362   3.439 -31.685  1.00  0.00     0.048 A 
ENDROOT
BRANCH   1  13
HETATM   13  C   UNL     1      -5.230   1.958 -30.344  1.00  0.00     0.237 C 
BRANCH  13  14
HETATM   14  C   UNL     1      -5.779   0.673 -30.969  1.00  0.00     0.240 C 
HETATM   15  N   UNL     1      -5.222   0.388 -32.203  1.00  0.00    -0.325 N 
HETATM   16  H   UNL     1      -4.349   0.880 -32.380  1.00  0.00     0.169 HD
HETATM   17  O   UNL     1      -6.551  -0.037 -30.329  1.00  0.00    -0.271 OA
BRANCH  15  18
HETATM   18  C   UNL     1      -5.499  -0.712 -33.053  1.00  0.00     0.046 A 
HETATM   19  C   UNL     1      -6.636  -0.809 -33.883  1.00  0.00    -0.034 A 
HETATM   20  C   UNL     1      -6.837  -1.979 -34.644  1.00  0.00     0.015 A 
HETATM   21  C   UNL     1      -7.662   0.276 -34.070  1.00  0.00     0.050 C 
HETATM   22  C   UNL     1      -5.914  -3.024 -34.645  1.00  0.00    -0.061 A 
HETATM   23  C   UNL     1      -6.132  -4.235 -35.502  1.00  0.00     0.048 C 
HETATM   24  C   UNL     1      -4.750  -2.886 -33.892  1.00  0.00     0.015 A 
HETATM   25  C   UNL     1      -4.530  -1.747 -33.096  1.00  0.00    -0.034 A 
HETATM   26  C   UNL     1      -3.256  -1.697 -32.288  1.00  0.00     0.050 C 
ENDBRANCH  15  18
ENDBRANCH  13  14
ENDBRANCH   1  13
BRANCH   4  27
HETATM   27  C   UNL     1      -1.946   4.563 -32.806  1.00  0.00     0.175 C 
BRANCH  27  28
HETATM   28  C   UNL     1      -1.401   5.493 -31.739  1.00  0.00    -0.037 A 
HETATM   29  C   UNL     1      -0.699   4.974 -30.638  1.00  0.00     0.048 A 
HETATM   30  C   UNL     1      -0.173   5.860 -29.723  1.00  0.00     0.105 A 
HETATM   31  C   UNL     1      -0.320   7.219 -29.863  1.00  0.00     0.105 A 
HETATM   32  O   UNL     1       0.542   5.527 -28.615  1.00  0.00    -0.323 OA
HETATM   33  O   UNL     1       0.281   7.913 -28.860  1.00  0.00    -0.323 OA
HETATM   34  C   UNL     1      -1.003   7.769 -30.926  1.00  0.00     0.040 A 
HETATM   35  C   UNL     1       0.834   6.834 -28.078  1.00  0.00     0.352 A 
HETATM   36  C   UNL     1      -1.544   6.895 -31.874  1.00  0.00     0.012 A 
ENDBRANCH  27  28
ENDBRANCH   4  27
BRANCH  11  37
HETATM   37  C   UNL     1      -9.824   3.847 -32.094  1.00  0.00     0.252 C 
HETATM   38  N   UNL     1     -10.446   3.051 -33.036  1.00  0.00    -0.352 N 
HETATM   39  H   UNL     1      -9.972   2.874 -33.912  1.00  0.00     0.163 HD
HETATM   40  O   UNL     1     -10.396   4.336 -31.127  1.00  0.00    -0.268 OA
BRANCH  38  41
HETATM   41  C   UNL     1     -11.888   2.830 -33.009  1.00  0.00     0.084 C 
HETATM   42  C   UNL     1     -12.631   3.963 -33.732  1.00  0.00     0.025 C 
HETATM   43  C   UNL     1     -12.417   3.928 -35.245  1.00  0.00     0.002 C 
HETATM   44  C   UNL     1     -12.789   2.569 -35.831  1.00  0.00     0.000 C 
HETATM   45  C   UNL     1     -12.056   1.427 -35.135  1.00  0.00     0.002 C 
HETATM   46  C   UNL     1     -12.240   1.467 -33.618  1.00  0.00     0.025 C 
ENDBRANCH  38  41
ENDBRANCH  11  37
TORSDOF 7
ENDMDL
MODEL 2
REMARK VINA RESULT:     -11.3      1.850      8.535
REMARK  7 active torsions:
REMARK  status: ('A' for Active; 'I' for Inactive)
REMARK    1  A    between atoms: C_6  and  N_7 
REMARK       I    between atoms: N_7  and  C_8 
REMARK    2  A    between atoms: C_8  and  C_9 
REMARK    3  A    between atoms: C_9  and  N_10 
REMARK    4  A    between atoms: N_13  and  C_14 
REMARK    5  A    between atoms: C_14  and  C_15 
REMARK    6  A    between atoms: C_30  and  C_31 
REMARK       I    between atoms: C_31  and  N_32 
REMARK    7  A    between atoms: N_32  and  C_33 
ROOT
HETATM    1  N   UNL     1      -6.333   3.418 -30.726  1.00  0.00    -0.290 N 
HETATM    2  C   UNL     1      -7.701   3.624 -30.612  1.00  0.00     0.332 C 
HETATM    3  O   UNL     1      -8.361   2.982 -29.788  1.00  0.00    -0.246 OA
HETATM    4  N   UNL     1      -8.263   4.593 -31.424  1.00  0.00    -0.261 N 
HETATM    5  C   UNL     1      -7.540   5.487 -32.199  1.00  0.00     0.264 C 
HETATM    6  O   UNL     1      -8.045   6.389 -32.863  1.00  0.00    -0.267 OA
HETATM    7  C   UNL     1      -6.076   5.338 -32.193  1.00  0.00     0.059 A 
HETATM    8  C   UNL     1      -5.497   4.298 -31.464  1.00  0.00     0.056 A 
HETATM    9  C   UNL     1      -5.288   6.234 -32.930  1.00  0.00     0.020 A 
HETATM   10  C   UNL     1      -3.902   6.110 -32.925  1.00  0.00     0.018 A 
HETATM   11  C   UNL     1      -3.299   5.095 -32.179  1.00  0.00     0.034 A 
HETATM   12  C   UNL     1      -4.096   4.181 -31.471  1.00  0.00     0.048 A 
ENDROOT
BRANCH   1  13
HETATM   13  C   UNL     1      -5.756   2.289 -29.987  1.00  0.00     0.237 C 
BRANCH  13  14
HETATM   14  C   UNL     1      -6.103   0.941 -30.622  1.00  0.00     0.240 C 
HETATM   15  N   UNL     1      -5.649   0.820 -31.923  1.00  0.00    -0.325 N 
HETATM   16  H   UNL     1      -4.922   1.489 -32.166  1.00  0.00     0.169 HD
HETATM   17  O   UNL     1      -6.633   0.064 -29.943  1.00  0.00    -0.271 OA
BRANCH  15  18
HETATM   18  C   UNL     1      -5.796  -0.284 -32.800  1.00  0.00     0.046 A 
HETATM   19  C   UNL     1      -7.030  -0.726 -33.322  1.00  0.00    -0.034 A 
HETATM   20  C   UNL     1      -7.061  -1.874 -34.142  1.00  0.00     0.015 A 
HETATM   21  C   UNL     1      -8.352  -0.037 -33.114  1.00  0.00     0.050 C 
HETATM   22  C   UNL     1      -5.898  -2.555 -34.499  1.00  0.00    -0.061 A 
HETATM   23  C   UNL     1      -5.958  -3.744 -35.410  1.00  0.00     0.048 C 
HETATM   24  C   UNL     1      -4.674  -2.062 -34.053  1.00  0.00     0.015 A 
HETATM   25  C   UNL     1      -4.606  -0.939 -33.208  1.00  0.00    -0.034 A 
HETATM   26  C   UNL     1      -3.239  -0.494 -32.748  1.00  0.00     0.050 C 
ENDBRANCH  15  18
ENDBRANCH  13  14
ENDBRANCH   1  13
BRANCH   4  27
HETATM   27  C   UNL     1      -9.717   4.694 -31.460  1.00  0.00     0.175 C 
BRANCH  27  28
HETATM   28  C   UNL     1     -10.302   3.762 -32.503  1.00  0.00    -0.037 A 
HETATM   29  C   UNL     1     -11.583   3.212 -32.323  1.00  0.00     0.048 A 
HETATM   30  C   UNL     1     -12.098   2.416 -33.323  1.00  0.00     0.105 A 
HETATM   31  C   UNL     1     -11.394   2.151 -34.473  1.00  0.00     0.105 A 
HETATM   32  O   UNL     1     -13.321   1.820 -33.314  1.00  0.00    -0.323 OA
HETATM   33  O   UNL     1     -12.084   1.354 -35.333  1.00  0.00    -0.323 OA
HETATM   34  C   UNL     1     -10.135   2.668 -34.688  1.00  0.00     0.040 A 
HETATM   35  C   UNL     1     -13.309   1.157 -34.595  1.00  0.00     0.352 A 
HETATM   36  C   UNL     1      -9.588   3.484 -33.693  1.00  0.00     0.012 A 
ENDBRANCH  27  28
ENDBRANCH   4  27
BRANCH  11  37
HETATM   37  C   UNL     1      -1.812   5.014 -32.167  1.00  0.00     0.252 C 
HETATM   38  N   UNL     1      -1.203   5.169 -30.937  1.00  0.00    -0.352 N 
HETATM   39  H   UNL     1      -1.756   5.509 -30.161  1.00  0.00     0.163 HD
HETATM   40  O   UNL     1      -1.202   4.863 -33.218  1.00  0.00    -0.268 OA
BRANCH  38  41
HETATM   41  C   UNL     1       0.247   5.286 -30.818  1.00  0.00     0.084 C 
HETATM   42  C   UNL     1       0.706   6.725 -31.094  1.00  0.00     0.025 C 
HETATM   43  C   UNL     1       0.301   7.689 -29.978  1.00  0.00     0.002 C 
HETATM   44  C   UNL     1       0.793   7.209 -28.617  1.00  0.00     0.000 C 
HETATM   45  C   UNL     1       0.342   5.783 -28.316  1.00  0.00     0.002 C 
HETATM   46  C   UNL     1       0.718   4.814 -29.438  1.00  0.00     0.025 C 
ENDBRANCH  38  41
ENDBRANCH  11  37
TORSDOF 7
ENDMDL
MODEL 3
REMARK VINA RESULT:     -10.5      2.080      8.462
REMARK  7 active torsions:
REMARK  status: ('A' for Active; 'I' for Inactive)
REMARK    1  A    between atoms: C_6  and  N_7 
REMARK       I    between atoms: N_7  and  C_8 
REMARK    2  A    between atoms: C_8  and  C_9 
REMARK    3  A    between atoms: C_9  and  N_10 
REMARK    4  A    between atoms: N_13  and  C_14 
REMARK    5  A    between atoms: C_14  and  C_15 
REMARK    6  A    between atoms: C_30  and  C_31 
REMARK       I    between atoms: C_31  and  N_32 
REMARK    7  A    between atoms: N_32  and  C_33 
ROOT
HETATM    1  N   UNL     1      -6.222   4.000 -31.109  1.00  0.00    -0.290 N 
HETATM    2  C   UNL     1      -7.541   3.684 -30.814  1.00  0.00     0.332 C 
HETATM    3  O   UNL     1      -7.841   2.543 -30.444  1.00  0.00    -0.246 OA
HETATM    4  N   UNL     1      -8.472   4.703 -30.915  1.00  0.00    -0.261 N 
HETATM    5  C   UNL     1      -8.159   6.039 -31.109  1.00  0.00     0.264 C 
HETATM    6  O   UNL     1      -8.987   6.946 -31.127  1.00  0.00    -0.267 OA
HETATM    7  C   UNL     1      -6.734   6.369 -31.279  1.00  0.00     0.059 A 
HETATM    8  C   UNL     1      -5.790   5.342 -31.287  1.00  0.00     0.056 A 
HETATM    9  C   UNL     1      -6.352   7.708 -31.444  1.00  0.00     0.020 A 
HETATM   10  C   UNL     1      -5.008   8.036 -31.596  1.00  0.00     0.018 A 
HETATM   11  C   UNL     1      -4.042   7.026 -31.578  1.00  0.00     0.034 A 
HETATM   12  C   UNL     1      -4.436   5.685 -31.445  1.00  0.00     0.048 A 
ENDROOT
BRANCH   1  13
HETATM   13  C   UNL     1      -5.258   2.895 -31.157  1.00  0.00     0.237 C 
BRANCH  13  14
HETATM   14  C   UNL     1      -5.482   1.980 -32.363  1.00  0.00     0.240 C 
HETATM   15  N   UNL     1      -5.628   0.649 -32.014  1.00  0.00    -0.325 N 
HETATM   16  H   UNL     1      -5.858   0.506 -31.034  1.00  0.00     0.169 HD
HETATM   17  O   UNL     1      -5.619   2.467 -33.482  1.00  0.00    -0.271 OA
BRANCH  15  18
HETATM   18  C   UNL     1      -5.846  -0.458 -32.872  1.00  0.00     0.046 A 
HETATM   19  C   UNL     1      -7.098  -0.801 -33.427  1.00  0.00    -0.034 A 
HETATM   20  C   UNL     1      -7.206  -1.961 -34.222  1.00  0.00     0.015 A 
HETATM   21  C   UNL     1      -8.357   0.010 -33.279  1.00  0.00     0.050 C 
HETATM   22  C   UNL     1      -6.098  -2.753 -34.524  1.00  0.00    -0.061 A 
HETATM   23  C   UNL     1      -6.236  -3.953 -35.411  1.00  0.00     0.048 C 
HETATM   24  C   UNL     1      -4.849  -2.361 -34.047  1.00  0.00     0.015 A 
HETATM   25  C   UNL     1      -4.707  -1.228 -33.225  1.00  0.00    -0.034 A 
HETATM   26  C   UNL     1      -3.321  -0.897 -32.728  1.00  0.00     0.050 C 
ENDBRANCH  15  18
ENDBRANCH  13  14
ENDBRANCH   1  13
BRANCH   4  27
HETATM   27  C   UNL     1      -9.882   4.352 -30.797  1.00  0.00     0.175 C 
BRANCH  27  28
HETATM   28  C   UNL     1     -10.465   3.976 -32.146  1.00  0.00    -0.037 A 
HETATM   29  C   UNL     1     -10.842   2.647 -32.408  1.00  0.00     0.048 A 
HETATM   30  C   UNL     1     -11.420   2.363 -33.627  1.00  0.00     0.105 A 
HETATM   31  C   UNL     1     -11.629   3.335 -34.575  1.00  0.00     0.105 A 
HETATM   32  O   UNL     1     -11.853   1.139 -34.035  1.00  0.00    -0.323 OA
HETATM   33  O   UNL     1     -12.218   2.847 -35.699  1.00  0.00    -0.323 OA
HETATM   34  C   UNL     1     -11.271   4.648 -34.358  1.00  0.00     0.040 A 
HETATM   35  C   UNL     1     -12.366   1.456 -35.345  1.00  0.00     0.352 A 
HETATM   36  C   UNL     1     -10.688   4.969 -33.129  1.00  0.00     0.012 A 
ENDBRANCH  27  28
ENDBRANCH   4  27
BRANCH  11  37
HETATM   37  C   UNL     1      -2.611   7.415 -31.706  1.00  0.00     0.252 C 
HETATM   38  N   UNL     1      -1.699   6.614 -31.047  1.00  0.00    -0.352 N 
HETATM   39  H   UNL     1      -2.042   5.940 -30.375  1.00  0.00     0.163 HD
HETATM   40  O   UNL     1      -2.307   8.423 -32.332  1.00  0.00    -0.268 OA
BRANCH  38  41
HETATM   41  C   UNL     1      -0.292   6.987 -30.949  1.00  0.00     0.084 C 
HETATM   42  C   UNL     1      -0.008   7.720 -29.630  1.00  0.00     0.025 C 
HETATM   43  C   UNL     1      -0.089   6.791 -28.419  1.00  0.00     0.002 C 
HETATM   44  C   UNL     1       0.826   5.581 -28.580  1.00  0.00     0.000 C 
HETATM   45  C   UNL     1       0.557   4.830 -29.880  1.00  0.00     0.002 C 
HETATM   46  C   UNL     1       0.608   5.755 -31.097  1.00  0.00     0.025 C 
ENDBRANCH  38  41
ENDBRANCH  11  37
TORSDOF 7
ENDMDL
MODEL 4
REMARK VINA RESULT:     -10.1      3.082      7.583
REMARK  7 active torsions:
REMARK  status: ('A' for Active; 'I' for Inactive)
REMARK    1  A    between atoms: C_6  and  N_7 
REMARK       I    between atoms: N_7  and  C_8 
REMARK    2  A    between atoms: C_8  and  C_9 
REMARK    3  A    between atoms: C_9  and  N_10 
REMARK    4  A    between atoms: N_13  and  C_14 
REMARK    5  A    between atoms: C_14  and  C_15 
REMARK    6  A    between atoms: C_30  and  C_31 
REMARK       I    between atoms: C_31  and  N_32 
REMARK    7  A    between atoms: N_32  and  C_33 
ROOT
HETATM    1  N   UNL     1      -9.471   4.009 -32.684  1.00  0.00    -0.290 N 
HETATM    2  C   UNL     1      -9.118   2.883 -31.952  1.00  0.00     0.332 C 
HETATM    3  O   UNL     1      -8.364   2.984 -30.978  1.00  0.00    -0.246 OA
HETATM    4  N   UNL     1      -9.676   1.678 -32.340  1.00  0.00    -0.261 N 
HETATM    5  C   UNL     1     -10.690   1.545 -33.277  1.00  0.00     0.264 C 
HETATM    6  O   UNL     1     -11.228   0.478 -33.564  1.00  0.00    -0.267 OA
HETATM    7  C   UNL     1     -11.147   2.777 -33.940  1.00  0.00     0.059 A 
HETATM    8  C   UNL     1     -10.522   3.988 -33.640  1.00  0.00     0.056 A 
HETATM    9  C   UNL     1     -12.193   2.711 -34.872  1.00  0.00     0.020 A 
HETATM   10  C   UNL     1     -12.642   3.870 -35.498  1.00  0.00     0.018 A 
HETATM   11  C   UNL     1     -12.051   5.098 -35.191  1.00  0.00     0.034 A 
HETATM   12  C   UNL     1     -10.982   5.150 -34.282  1.00  0.00     0.048 A 
ENDROOT
BRANCH   1  13
HETATM   13  C   UNL     1      -8.766   5.259 -32.380  1.00  0.00     0.237 C 
BRANCH  13  14
HETATM   14  C   UNL     1      -7.324   5.252 -32.893  1.00  0.00     0.240 C 
HETATM   15  N   UNL     1      -6.386   5.193 -31.878  1.00  0.00    -0.325 N 
HETATM   16  H   UNL     1      -6.765   4.872 -30.990  1.00  0.00     0.169 HD
HETATM   17  O   UNL     1      -7.105   5.193 -34.101  1.00  0.00    -0.271 OA
BRANCH  15  18
HETATM   18  C   UNL     1      -4.974   5.172 -31.994  1.00  0.00     0.046 A 
HETATM   19  C   UNL     1      -4.224   4.043 -32.389  1.00  0.00    -0.034 A 
HETATM   20  C   UNL     1      -2.816   4.124 -32.414  1.00  0.00     0.015 A 
HETATM   21  C   UNL     1      -4.811   2.735 -32.844  1.00  0.00     0.050 C 
HETATM   22  C   UNL     1      -2.141   5.307 -32.113  1.00  0.00    -0.061 A 
HETATM   23  C   UNL     1      -0.646   5.375 -32.194  1.00  0.00     0.048 C 
HETATM   24  C   UNL     1      -2.889   6.442 -31.809  1.00  0.00     0.015 A 
HETATM   25  C   UNL     1      -4.294   6.392 -31.744  1.00  0.00    -0.034 A 
HETATM   26  C   UNL     1      -5.020   7.663 -31.376  1.00  0.00     0.050 C 
ENDBRANCH  15  18
ENDBRANCH  13  14
ENDBRANCH   1  13
BRANCH   4  27
HETATM   27  C   UNL     1      -9.176   0.461 -31.713  1.00  0.00     0.175 C 
BRANCH  27  28
HETATM   28  C   UNL     1      -7.870   0.019 -32.345  1.00  0.00    -0.037 A 
HETATM   29  C   UNL     1      -6.720  -0.144 -31.554  1.00  0.00     0.048 A 
HETATM   30  C   UNL     1      -5.570  -0.601 -32.162  1.00  0.00     0.105 A 
HETATM   31  C   UNL     1      -5.527  -0.895 -33.503  1.00  0.00     0.105 A 
HETATM   32  O   UNL     1      -4.380  -0.826 -31.542  1.00  0.00    -0.323 OA
HETATM   33  O   UNL     1      -4.304  -1.340 -33.898  1.00  0.00    -0.323 OA
HETATM   34  C   UNL     1      -6.631  -0.748 -34.313  1.00  0.00     0.040 A 
HETATM   35  C   UNL     1      -3.585  -1.303 -32.648  1.00  0.00     0.352 A 
HETATM   36  C   UNL     1      -7.814  -0.290 -33.725  1.00  0.00     0.012 A 
ENDBRANCH  27  28
ENDBRANCH   4  27
BRANCH  11  37
HETATM   37  C   UNL     1     -12.580   6.322 -35.853  1.00  0.00     0.252 C 
HETATM   38  N   UNL     1     -11.683   7.359 -36.024  1.00  0.00    -0.352 N 
HETATM   39  H   UNL     1     -10.796   7.318 -35.541  1.00  0.00     0.163 HD
HETATM   40  O   UNL     1     -13.762   6.381 -36.168  1.00  0.00    -0.268 OA
BRANCH  38  41
HETATM   41  C   UNL     1     -12.120   8.669 -36.496  1.00  0.00     0.084 C 
HETATM   42  C   UNL     1     -11.714   9.772 -35.508  1.00  0.00     0.025 C 
HETATM   43  C   UNL     1     -10.205  10.017 -35.497  1.00  0.00     0.002 C 
HETATM   44  C   UNL     1      -9.676  10.315 -36.896  1.00  0.00     0.000 C 
HETATM   45  C   UNL     1     -10.059   9.228 -37.896  1.00  0.00     0.002 C 
HETATM   46  C   UNL     1     -11.564   8.955 -37.896  1.00  0.00     0.025 C 
ENDBRANCH  38  41
ENDBRANCH  11  37
TORSDOF 7
ENDMDL
MODEL 5
REMARK VINA RESULT:     -10.1      2.509      8.677
REMARK  7 active torsions:
REMARK  status: ('A' for Active; 'I' for Inactive)
REMARK    1  A    between atoms: C_6  and  N_7 
REMARK       I    between atoms: N_7  and  C_8 
REMARK    2  A    between atoms: C_8  and  C_9 
REMARK    3  A    between atoms: C_9  and  N_10 
REMARK    4  A    between atoms: N_13  and  C_14 
REMARK    5  A    between atoms: C_14  and  C_15 
REMARK    6  A    between atoms: C_30  and  C_31 
REMARK       I    between atoms: C_31  and  N_32 
REMARK    7  A    between atoms: N_32  and  C_33 
ROOT
HETATM    1  N   UNL     1      -8.679   4.432 -30.527  1.00  0.00    -0.290 N 
HETATM    2  C   UNL     1     -10.063   4.321 -30.476  1.00  0.00     0.332 C 
HETATM    3  O   UNL     1     -10.589   3.292 -30.040  1.00  0.00    -0.246 OA
HETATM    4  N   UNL     1     -10.799   5.416 -30.894  1.00  0.00    -0.261 N 
HETATM    5  C   UNL     1     -10.264   6.662 -31.180  1.00  0.00     0.264 C 
HETATM    6  O   UNL     1     -10.933   7.647 -31.482  1.00  0.00    -0.267 OA
HETATM    7  C   UNL     1      -8.800   6.793 -31.089  1.00  0.00     0.059 A 
HETATM    8  C   UNL     1      -8.031   5.672 -30.774  1.00  0.00     0.056 A 
HETATM    9  C   UNL     1      -8.203   8.038 -31.334  1.00  0.00     0.020 A 
HETATM   10  C   UNL     1      -6.821   8.178 -31.241  1.00  0.00     0.018 A 
HETATM   11  C   UNL     1      -6.034   7.076 -30.899  1.00  0.00     0.034 A 
HETATM   12  C   UNL     1      -6.636   5.826 -30.688  1.00  0.00     0.048 A 
ENDROOT
BRANCH   1  13
HETATM   13  C   UNL     1      -7.894   3.227 -30.237  1.00  0.00     0.237 C 
BRANCH  13  14
HETATM   14  C   UNL     1      -7.488   2.478 -31.509  1.00  0.00     0.240 C 
HETATM   15  N   UNL     1      -7.295   1.124 -31.304  1.00  0.00    -0.325 N 
HETATM   16  H   UNL     1      -7.721   0.775 -30.449  1.00  0.00     0.169 HD
HETATM   17  O   UNL     1      -7.467   3.070 -32.586  1.00  0.00    -0.271 OA
BRANCH  15  18
HETATM   18  C   UNL     1      -6.915   0.143 -32.253  1.00  0.00     0.046 A 
HETATM   19  C   UNL     1      -7.756  -0.338 -33.280  1.00  0.00    -0.034 A 
HETATM   20  C   UNL     1      -7.289  -1.360 -34.133  1.00  0.00     0.015 A 
HETATM   21  C   UNL     1      -9.133   0.188 -33.584  1.00  0.00     0.050 C 
HETATM   22  C   UNL     1      -5.996  -1.872 -34.029  1.00  0.00    -0.061 A 
HETATM   23  C   UNL     1      -5.511  -2.923 -34.981  1.00  0.00     0.048 C 
HETATM   24  C   UNL     1      -5.140  -1.331 -33.071  1.00  0.00     0.015 A 
HETATM   25  C   UNL     1      -5.581  -0.334 -32.182  1.00  0.00    -0.034 A 
HETATM   26  C   UNL     1      -4.595   0.170 -31.156  1.00  0.00     0.050 C 
ENDBRANCH  15  18
ENDBRANCH  13  14
ENDBRANCH   1  13
BRANCH   4  27
HETATM   27  C   UNL     1     -12.241   5.255 -31.030  1.00  0.00     0.175 C 
BRANCH  27  28
HETATM   28  C   UNL     1     -12.579   4.277 -32.138  1.00  0.00    -0.037 A 
HETATM   29  C   UNL     1     -13.512   3.251 -31.917  1.00  0.00     0.048 A 
HETATM   30  C   UNL     1     -13.830   2.420 -32.970  1.00  0.00     0.105 A 
HETATM   31  C   UNL     1     -13.260   2.573 -34.211  1.00  0.00     0.105 A 
HETATM   32  O   UNL     1     -14.719   1.391 -32.931  1.00  0.00    -0.323 OA
HETATM   33  O   UNL     1     -13.717   1.659 -35.109  1.00  0.00    -0.323 OA
HETATM   34  C   UNL     1     -12.339   3.564 -34.469  1.00  0.00     0.040 A 
HETATM   35  C   UNL     1     -14.649   0.920 -34.292  1.00  0.00     0.352 A 
HETATM   36  C   UNL     1     -12.000   4.426 -33.422  1.00  0.00     0.012 A 
ENDBRANCH  27  28
ENDBRANCH   4  27
BRANCH  11  37
HETATM   37  C   UNL     1      -4.563   7.270 -30.773  1.00  0.00     0.252 C 
HETATM   38  N   UNL     1      -3.783   6.662 -31.737  1.00  0.00    -0.352 N 
HETATM   39  H   UNL     1      -4.211   5.980 -32.349  1.00  0.00     0.163 HD
HETATM   40  O   UNL     1      -4.111   7.902 -29.826  1.00  0.00    -0.268 OA
BRANCH  38  41
HETATM   41  C   UNL     1      -2.328   6.629 -31.626  1.00  0.00     0.084 C 
HETATM   42  C   UNL     1      -1.791   5.210 -31.862  1.00  0.00     0.025 C 
HETATM   43  C   UNL     1      -1.925   4.772 -33.320  1.00  0.00     0.002 C 
HETATM   44  C   UNL     1      -1.266   5.770 -34.267  1.00  0.00     0.000 C 
HETATM   45  C   UNL     1      -1.790   7.188 -34.058  1.00  0.00     0.002 C 
HETATM   46  C   UNL     1      -1.686   7.627 -32.597  1.00  0.00     0.025 C 
ENDBRANCH  38  41
ENDBRANCH  11  37
TORSDOF 7
ENDMDL
MODEL 6
REMARK VINA RESULT:     -10.0      3.506     10.507
REMARK  7 active torsions:
REMARK  status: ('A' for Active; 'I' for Inactive)
REMARK    1  A    between atoms: C_6  and  N_7 
REMARK       I    between atoms: N_7  and  C_8 
REMARK    2  A    between atoms: C_8  and  C_9 
REMARK    3  A    between atoms: C_9  and  N_10 
REMARK    4  A    between atoms: N_13  and  C_14 
REMARK    5  A    between atoms: C_14  and  C_15 
REMARK    6  A    between atoms: C_30  and  C_31 
REMARK       I    between atoms: C_31  and  N_32 
REMARK    7  A    between atoms: N_32  and  C_33 
ROOT
HETATM    1  N   UNL     1      -6.169   5.058 -30.551  1.00  0.00    -0.290 N 
HETATM    2  C   UNL     1      -7.540   5.243 -30.674  1.00  0.00     0.332 C 
HETATM    3  O   UNL     1      -8.231   5.457 -29.672  1.00  0.00    -0.246 OA
HETATM    4  N   UNL     1      -8.069   5.216 -31.952  1.00  0.00    -0.261 N 
HETATM    5  C   UNL     1      -7.315   5.202 -33.116  1.00  0.00     0.264 C 
HETATM    6  O   UNL     1      -7.793   5.249 -34.247  1.00  0.00    -0.267 OA
HETATM    7  C   UNL     1      -5.853   5.148 -32.959  1.00  0.00     0.059 A 
HETATM    8  C   UNL     1      -5.304   5.066 -31.678  1.00  0.00     0.056 A 
HETATM    9  C   UNL     1      -5.036   5.166 -34.099  1.00  0.00     0.020 A 
HETATM   10  C   UNL     1      -3.651   5.126 -33.965  1.00  0.00     0.018 A 
HETATM   11  C   UNL     1      -3.079   5.073 -32.692  1.00  0.00     0.034 A 
HETATM   12  C   UNL     1      -3.904   5.022 -31.557  1.00  0.00     0.048 A 
ENDROOT
BRANCH   1  13
HETATM   13  C   UNL     1      -5.624   4.928 -29.196  1.00  0.00     0.237 C 
BRANCH  13  14
HETATM   14  C   UNL     1      -5.194   6.275 -28.610  1.00  0.00     0.240 C 
HETATM   15  N   UNL     1      -3.841   6.525 -28.759  1.00  0.00    -0.325 N 
HETATM   16  H   UNL     1      -3.394   5.948 -29.467  1.00  0.00     0.169 HD
HETATM   17  O   UNL     1      -6.041   7.049 -28.172  1.00  0.00    -0.271 OA
BRANCH  15  18
HETATM   18  C   UNL     1      -3.112   7.664 -28.335  1.00  0.00     0.046 A 
HETATM   19  C   UNL     1      -2.503   7.794 -27.068  1.00  0.00    -0.034 A 
HETATM   20  C   UNL     1      -1.852   9.000 -26.736  1.00  0.00     0.015 A 
HETATM   21  C   UNL     1      -2.446   6.711 -26.025  1.00  0.00     0.050 C 
HETATM   22  C   UNL     1      -1.741  10.052 -27.645  1.00  0.00    -0.061 A 
HETATM   23  C   UNL     1      -1.001  11.303 -27.279  1.00  0.00     0.048 C 
HETATM   24  C   UNL     1      -2.266   9.884 -28.924  1.00  0.00     0.015 A 
HETATM   25  C   UNL     1      -2.951   8.709 -29.282  1.00  0.00    -0.034 A 
HETATM   26  C   UNL     1      -3.515   8.628 -30.680  1.00  0.00     0.050 C 
ENDBRANCH  15  18
ENDBRANCH  13  14
ENDBRANCH   1  13
BRANCH   4  27
HETATM   27  C   UNL     1      -9.520   5.217 -32.089  1.00  0.00     0.175 C 
BRANCH  27  28
HETATM   28  C   UNL     1     -10.040   3.824 -32.388  1.00  0.00    -0.037 A 
HETATM   29  C   UNL     1     -11.333   3.647 -32.908  1.00  0.00     0.048 A 
HETATM   30  C   UNL     1     -11.743   2.368 -33.217  1.00  0.00     0.105 A 
HETATM   31  C   UNL     1     -10.925   1.280 -33.029  1.00  0.00     0.105 A 
HETATM   32  O   UNL     1     -12.952   2.024 -33.738  1.00  0.00    -0.323 OA
HETATM   33  O   UNL     1     -11.516   0.114 -33.405  1.00  0.00    -0.323 OA
HETATM   34  C   UNL     1      -9.651   1.410 -32.520  1.00  0.00     0.040 A 
HETATM   35  C   UNL     1     -12.796   0.596 -33.864  1.00  0.00     0.352 A 
HETATM   36  C   UNL     1      -9.206   2.696 -32.201  1.00  0.00     0.012 A 
ENDBRANCH  27  28
ENDBRANCH   4  27
BRANCH  11  37
HETATM   37  C   UNL     1      -1.594   5.068 -32.584  1.00  0.00     0.252 C 
HETATM   38  N   UNL     1      -1.076   5.082 -31.304  1.00  0.00    -0.352 N 
HETATM   39  H   UNL     1      -1.697   5.281 -30.530  1.00  0.00     0.163 HD
HETATM   40  O   UNL     1      -0.910   5.097 -33.599  1.00  0.00    -0.268 OA
BRANCH  38  41
HETATM   41  C   UNL     1       0.353   5.255 -31.066  1.00  0.00     0.084 C 
HETATM   42  C   UNL     1       0.778   6.710 -31.313  1.00  0.00     0.025 C 
HETATM   43  C   UNL     1       0.245   7.662 -30.242  1.00  0.00     0.002 C 
HETATM   44  C   UNL     1       0.642   7.207 -28.841  1.00  0.00     0.000 C 
HETATM   45  C   UNL     1       0.222   5.766 -28.568  1.00  0.00     0.002 C 
HETATM   46  C   UNL     1       0.727   4.808 -29.647  1.00  0.00     0.025 C 
ENDBRANCH  38  41
ENDBRANCH  11  37
TORSDOF 7
ENDMDL
MODEL 7
REMARK VINA RESULT:      -9.9      2.164      8.600
REMARK  7 active torsions:
REMARK  status: ('A' for Active; 'I' for Inactive)
REMARK    1  A    between atoms: C_6  and  N_7 
REMARK       I    between atoms: N_7  and  C_8 
REMARK    2  A    between atoms: C_8  and  C_9 
REMARK    3  A    between atoms: C_9  and  N_10 
REMARK    4  A    between atoms: N_13  and  C_14 
REMARK    5  A    between atoms: C_14  and  C_15 
REMARK    6  A    between atoms: C_30  and  C_31 
REMARK       I    between atoms: C_31  and  N_32 
REMARK    7  A    between atoms: N_32  and  C_33 
ROOT
HETATM    1  N   UNL     1      -7.460   3.042 -32.233  1.00  0.00    -0.290 N 
HETATM    2  C   UNL     1      -8.784   3.011 -31.815  1.00  0.00     0.332 C 
HETATM    3  O   UNL     1      -9.556   2.151 -32.253  1.00  0.00    -0.246 OA
HETATM    4  N   UNL     1      -9.170   3.948 -30.873  1.00  0.00    -0.261 N 
HETATM    5  C   UNL     1      -8.300   4.784 -30.191  1.00  0.00     0.264 C 
HETATM    6  O   UNL     1      -8.644   5.563 -29.306  1.00  0.00    -0.267 OA
HETATM    7  C   UNL     1      -6.876   4.698 -30.554  1.00  0.00     0.059 A 
HETATM    8  C   UNL     1      -6.481   3.836 -31.578  1.00  0.00     0.056 A 
HETATM    9  C   UNL     1      -5.942   5.495 -29.876  1.00  0.00     0.020 A 
HETATM   10  C   UNL     1      -4.591   5.417 -30.202  1.00  0.00     0.018 A 
HETATM   11  C   UNL     1      -4.170   4.539 -31.203  1.00  0.00     0.034 A 
HETATM   12  C   UNL     1      -5.115   3.769 -31.901  1.00  0.00     0.048 A 
ENDROOT
BRANCH   1  13
HETATM   13  C   UNL     1      -7.082   2.159 -33.342  1.00  0.00     0.237 C 
BRANCH  13  14
HETATM   14  C   UNL     1      -6.622   0.783 -32.859  1.00  0.00     0.240 C 
HETATM   15  N   UNL     1      -5.695   0.193 -33.700  1.00  0.00    -0.325 N 
HETATM   16  H   UNL     1      -5.242   0.849 -34.331  1.00  0.00     0.169 HD
HETATM   17  O   UNL     1      -6.997   0.361 -31.767  1.00  0.00    -0.271 OA
BRANCH  15  18
HETATM   18  C   UNL     1      -5.066  -1.069 -33.557  1.00  0.00     0.046 A 
HETATM   19  C   UNL     1      -3.994  -1.329 -32.677  1.00  0.00    -0.034 A 
HETATM   20  C   UNL     1      -3.409  -2.612 -32.662  1.00  0.00     0.015 A 
HETATM   21  C   UNL     1      -3.431  -0.343 -31.689  1.00  0.00     0.050 C 
HETATM   22  C   UNL     1      -3.894  -3.652 -33.454  1.00  0.00    -0.061 A 
HETATM   23  C   UNL     1      -3.281  -5.018 -33.381  1.00  0.00     0.048 C 
HETATM   24  C   UNL     1      -5.009  -3.414 -34.256  1.00  0.00     0.015 A 
HETATM   25  C   UNL     1      -5.600  -2.139 -34.321  1.00  0.00    -0.034 A 
HETATM   26  C   UNL     1      -6.783  -1.966 -35.241  1.00  0.00     0.050 C 
ENDBRANCH  15  18
ENDBRANCH  13  14
ENDBRANCH   1  13
BRANCH   4  27
HETATM   27  C   UNL     1     -10.590   4.057 -30.562  1.00  0.00     0.175 C 
BRANCH  27  28
HETATM   28  C   UNL     1     -11.369   4.588 -31.750  1.00  0.00    -0.037 A 
HETATM   29  C   UNL     1     -10.922   5.729 -32.437  1.00  0.00     0.048 A 
HETATM   30  C   UNL     1     -11.630   6.142 -33.545  1.00  0.00     0.105 A 
HETATM   31  C   UNL     1     -12.746   5.472 -33.983  1.00  0.00     0.105 A 
HETATM   32  O   UNL     1     -11.327   7.213 -34.328  1.00  0.00    -0.323 OA
HETATM   33  O   UNL     1     -13.288   6.037 -35.095  1.00  0.00    -0.323 OA
HETATM   34  C   UNL     1     -13.219   4.351 -33.337  1.00  0.00     0.040 A 
HETATM   35  C   UNL     1     -12.376   7.134 -35.313  1.00  0.00     0.352 A 
HETATM   36  C   UNL     1     -12.519   3.904 -32.213  1.00  0.00     0.012 A 
ENDBRANCH  27  28
ENDBRANCH   4  27
BRANCH  11  37
HETATM   37  C   UNL     1      -2.714   4.453 -31.502  1.00  0.00     0.252 C 
HETATM   38  N   UNL     1      -1.880   5.196 -30.689  1.00  0.00    -0.352 N 
HETATM   39  H   UNL     1      -2.290   5.888 -30.076  1.00  0.00     0.163 HD
HETATM   40  O   UNL     1      -2.325   3.786 -32.453  1.00  0.00    -0.268 OA
BRANCH  38  41
HETATM   41  C   UNL     1      -0.458   5.336 -30.987  1.00  0.00     0.084 C 
HETATM   42  C   UNL     1      -0.121   6.779 -31.390  1.00  0.00     0.025 C 
HETATM   43  C   UNL     1      -0.210   7.748 -30.211  1.00  0.00     0.002 C 
HETATM   44  C   UNL     1       0.657   7.290 -29.042  1.00  0.00     0.000 C 
HETATM   45  C   UNL     1       0.334   5.861 -28.617  1.00  0.00     0.002 C 
HETATM   46  C   UNL     1       0.394   4.885 -29.794  1.00  0.00     0.025 C 
ENDBRANCH  38  41
ENDBRANCH  11  37
TORSDOF 7
ENDMDL
MODEL 8
REMARK VINA RESULT:      -9.8      3.254      8.964
REMARK  7 active torsions:
REMARK  status: ('A' for Active; 'I' for Inactive)
REMARK    1  A    between atoms: C_6  and  N_7 
REMARK       I    between atoms: N_7  and  C_8 
REMARK    2  A    between atoms: C_8  and  C_9 
REMARK    3  A    between atoms: C_9  and  N_10 
REMARK    4  A    between atoms: N_13  and  C_14 
REMARK    5  A    between atoms: C_14  and  C_15 
REMARK    6  A    between atoms: C_30  and  C_31 
REMARK       I    between atoms: C_31  and  N_32 
REMARK    7  A    between atoms: N_32  and  C_33 
ROOT
HETATM    1  N   UNL     1      -4.406   3.969 -31.870  1.00  0.00    -0.290 N 
HETATM    2  C   UNL     1      -3.909   2.682 -31.705  1.00  0.00     0.332 C 
HETATM    3  O   UNL     1      -2.833   2.359 -32.221  1.00  0.00    -0.246 OA
HETATM    4  N   UNL     1      -4.646   1.817 -30.916  1.00  0.00    -0.261 N 
HETATM    5  C   UNL     1      -5.733   2.191 -30.141  1.00  0.00     0.264 C 
HETATM    6  O   UNL     1      -6.339   1.430 -29.391  1.00  0.00    -0.267 OA
HETATM    7  C   UNL     1      -6.156   3.598 -30.226  1.00  0.00     0.059 A 
HETATM    8  C   UNL     1      -5.491   4.462 -31.097  1.00  0.00     0.056 A 
HETATM    9  C   UNL     1      -7.228   4.045 -29.439  1.00  0.00     0.020 A 
HETATM   10  C   UNL     1      -7.632   5.375 -29.501  1.00  0.00     0.018 A 
HETATM   11  C   UNL     1      -6.962   6.264 -30.345  1.00  0.00     0.034 A 
HETATM   12  C   UNL     1      -5.911   5.802 -31.154  1.00  0.00     0.048 A 
ENDROOT
BRANCH   1  13
HETATM   13  C   UNL     1      -3.716   4.841 -32.827  1.00  0.00     0.237 C 
BRANCH  13  14
HETATM   14  C   UNL     1      -2.957   5.976 -32.137  1.00  0.00     0.240 C 
HETATM   15  N   UNL     1      -2.276   5.565 -31.005  1.00  0.00    -0.325 N 
HETATM   16  H   UNL     1      -2.131   4.559 -30.959  1.00  0.00     0.169 HD
HETATM   17  O   UNL     1      -2.914   7.088 -32.658  1.00  0.00    -0.271 OA
BRANCH  15  18
HETATM   18  C   UNL     1      -1.480   6.348 -30.132  1.00  0.00     0.046 A 
HETATM   19  C   UNL     1      -1.997   7.186 -29.121  1.00  0.00    -0.034 A 
HETATM   20  C   UNL     1      -1.109   7.965 -28.349  1.00  0.00     0.015 A 
HETATM   21  C   UNL     1      -3.451   7.292 -28.749  1.00  0.00     0.050 C 
HETATM   22  C   UNL     1       0.273   7.891 -28.519  1.00  0.00    -0.061 A 
HETATM   23  C   UNL     1       1.194   8.695 -27.651  1.00  0.00     0.048 C 
HETATM   24  C   UNL     1       0.782   6.996 -29.458  1.00  0.00     0.015 A 
HETATM   25  C   UNL     1      -0.073   6.227 -30.268  1.00  0.00    -0.034 A 
HETATM   26  C   UNL     1       0.566   5.309 -31.281  1.00  0.00     0.050 C 
ENDBRANCH  15  18
ENDBRANCH  13  14
ENDBRANCH   1  13
BRANCH   4  27
HETATM   27  C   UNL     1      -4.247   0.416 -30.885  1.00  0.00     0.175 C 
BRANCH  27  28
HETATM   28  C   UNL     1      -4.897  -0.362 -32.013  1.00  0.00    -0.037 A 
HETATM   29  C   UNL     1      -4.172  -1.349 -32.703  1.00  0.00     0.048 A 
HETATM   30  C   UNL     1      -4.821  -2.069 -33.683  1.00  0.00     0.105 A 
HETATM   31  C   UNL     1      -6.139  -1.844 -33.995  1.00  0.00     0.105 A 
HETATM   32  O   UNL     1      -4.273  -3.064 -34.432  1.00  0.00    -0.323 OA
HETATM   33  O   UNL     1      -6.588  -2.666 -34.981  1.00  0.00    -0.323 OA
HETATM   34  C   UNL     1      -6.885  -0.884 -33.345  1.00  0.00     0.040 A 
HETATM   35  C   UNL     1      -5.401  -3.443 -35.246  1.00  0.00     0.352 A 
HETATM   36  C   UNL     1      -6.256  -0.141 -32.342  1.00  0.00     0.012 A 
ENDBRANCH  27  28
ENDBRANCH   4  27
BRANCH  11  37
HETATM   37  C   UNL     1      -7.396   7.688 -30.360  1.00  0.00     0.252 C 
HETATM   38  N   UNL     1      -6.392   8.631 -30.463  1.00  0.00    -0.352 N 
HETATM   39  H   UNL     1      -5.433   8.335 -30.335  1.00  0.00     0.163 HD
HETATM   40  O   UNL     1      -8.583   7.964 -30.237  1.00  0.00    -0.268 OA
BRANCH  38  41
HETATM   41  C   UNL     1      -6.670  10.056 -30.311  1.00  0.00     0.084 C 
HETATM   42  C   UNL     1      -6.694  10.456 -28.829  1.00  0.00     0.025 C 
HETATM   43  C   UNL     1      -5.304  10.420 -28.194  1.00  0.00     0.002 C 
HETATM   44  C   UNL     1      -4.309  11.273 -28.975  1.00  0.00     0.000 C 
HETATM   45  C   UNL     1      -4.261  10.888 -30.450  1.00  0.00     0.002 C 
HETATM   46  C   UNL     1      -5.650  10.894 -31.090  1.00  0.00     0.025 C 
ENDBRANCH  38  41
ENDBRANCH  11  37
TORSDOF 7
ENDMDL
MODEL 9
REMARK VINA RESULT:      -9.8     17.214     20.456
REMARK  7 active torsions:
REMARK  status: ('A' for Active; 'I' for Inactive)
REMARK    1  A    between atoms: C_6  and  N_7 
REMARK       I    between atoms: N_7  and  C_8 
REMARK    2  A    between atoms: C_8  and  C_9 
REMARK    3  A    between atoms: C_9  and  N_10 
REMARK    4  A    between atoms: N_13  and  C_14 
REMARK    5  A    between atoms: C_14  and  C_15 
REMARK    6  A    between atoms: C_30  and  C_31 
REMARK       I    between atoms: C_31  and  N_32 
REMARK    7  A    between atoms: N_32  and  C_33 
ROOT
HETATM    1  N   UNL     1      -1.910 -14.128 -36.587  1.00  0.00    -0.290 N 
HETATM    2  C   UNL     1      -1.461 -13.748 -37.845  1.00  0.00     0.332 C 
HETATM    3  O   UNL     1      -1.997 -12.806 -38.439  1.00  0.00    -0.246 OA
HETATM    4  N   UNL     1      -0.380 -14.438 -38.364  1.00  0.00    -0.261 N 
HETATM    5  C   UNL     1       0.391 -15.345 -37.653  1.00  0.00     0.264 C 
HETATM    6  O   UNL     1       1.391 -15.900 -38.101  1.00  0.00    -0.267 OA
HETATM    7  C   UNL     1      -0.024 -15.627 -36.270  1.00  0.00     0.059 A 
HETATM    8  C   UNL     1      -1.175 -15.022 -35.763  1.00  0.00     0.056 A 
HETATM    9  C   UNL     1       0.736 -16.510 -35.489  1.00  0.00     0.020 A 
HETATM   10  C   UNL     1       0.362 -16.778 -34.175  1.00  0.00     0.018 A 
HETATM   11  C   UNL     1      -0.770 -16.161 -33.638  1.00  0.00     0.034 A 
HETATM   12  C   UNL     1      -1.544 -15.304 -34.436  1.00  0.00     0.048 A 
ENDROOT
BRANCH   1  13
HETATM   13  C   UNL     1      -3.148 -13.512 -36.097  1.00  0.00     0.237 C 
BRANCH  13  14
HETATM   14  C   UNL     1      -4.364 -13.901 -36.940  1.00  0.00     0.240 C 
HETATM   15  N   UNL     1      -5.126 -12.813 -37.329  1.00  0.00    -0.325 N 
HETATM   16  H   UNL     1      -4.634 -11.926 -37.262  1.00  0.00     0.169 HD
HETATM   17  O   UNL     1      -4.518 -15.069 -37.288  1.00  0.00    -0.271 OA
BRANCH  15  18
HETATM   18  C   UNL     1      -6.310 -12.811 -38.107  1.00  0.00     0.046 A 
HETATM   19  C   UNL     1      -6.355 -12.516 -39.487  1.00  0.00    -0.034 A 
HETATM   20  C   UNL     1      -7.601 -12.489 -40.146  1.00  0.00     0.015 A 
HETATM   21  C   UNL     1      -5.151 -12.266 -40.355  1.00  0.00     0.050 C 
HETATM   22  C   UNL     1      -8.791 -12.799 -39.487  1.00  0.00    -0.061 A 
HETATM   23  C   UNL     1     -10.095 -12.807 -40.227  1.00  0.00     0.048 C 
HETATM   24  C   UNL     1      -8.730 -13.175 -38.147  1.00  0.00     0.015 A 
HETATM   25  C   UNL     1      -7.510 -13.184 -37.448  1.00  0.00    -0.034 A 
HETATM   26  C   UNL     1      -7.544 -13.574 -35.990  1.00  0.00     0.050 C 
ENDBRANCH  15  18
ENDBRANCH  13  14
ENDBRANCH   1  13
BRANCH   4  27
HETATM   27  C   UNL     1      -0.014 -14.186 -39.753  1.00  0.00     0.175 C 
BRANCH  27  28
HETATM   28  C   UNL     1      -0.958 -14.899 -40.703  1.00  0.00    -0.037 A 
HETATM   29  C   UNL     1      -1.931 -14.174 -41.410  1.00  0.00     0.048 A 
HETATM   30  C   UNL     1      -2.729 -14.855 -42.305  1.00  0.00     0.105 A 
HETATM   31  C   UNL     1      -2.594 -16.206 -42.514  1.00  0.00     0.105 A 
HETATM   32  O   UNL     1      -3.706 -14.306 -43.077  1.00  0.00    -0.323 OA
HETATM   33  O   UNL     1      -3.469 -16.679 -43.441  1.00  0.00    -0.323 OA
HETATM   34  C   UNL     1      -1.654 -16.954 -41.838  1.00  0.00     0.040 A 
HETATM   35  C   UNL     1      -4.163 -15.466 -43.801  1.00  0.00     0.352 A 
HETATM   36  C   UNL     1      -0.826 -16.290 -40.928  1.00  0.00     0.012 A 
ENDBRANCH  27  28
ENDBRANCH   4  27
BRANCH  11  37
HETATM   37  C   UNL     1      -1.121 -16.442 -32.218  1.00  0.00     0.252 C 
HETATM   38  N   UNL     1      -0.552 -15.612 -31.273  1.00  0.00    -0.352 N 
HETATM   39  H   UNL     1       0.199 -14.996 -31.556  1.00  0.00     0.163 HD
HETATM   40  O   UNL     1      -1.842 -17.395 -31.946  1.00  0.00    -0.268 OA
BRANCH  38  41
HETATM   41  C   UNL     1      -0.676 -15.890 -29.846  1.00  0.00     0.084 C 
HETATM   42  C   UNL     1       0.488 -16.761 -29.353  1.00  0.00     0.025 C 
HETATM   43  C   UNL     1       1.814 -16.001 -29.329  1.00  0.00     0.002 C 
HETATM   44  C   UNL     1       1.709 -14.716 -28.513  1.00  0.00     0.000 C 
HETATM   45  C   UNL     1       0.564 -13.829 -28.990  1.00  0.00     0.002 C 
HETATM   46  C   UNL     1      -0.764 -14.586 -29.044  1.00  0.00     0.025 C 
ENDBRANCH  38  41
ENDBRANCH  11  37
TORSDOF 7
ENDMDL
MODEL 10
REMARK VINA RESULT:      -9.7      1.414      2.072
REMARK  7 active torsions:
REMARK  status: ('A' for Active; 'I' for Inactive)
REMARK    1  A    between atoms: C_6  and  N_7 
REMARK       I    between atoms: N_7  and  C_8 
REMARK    2  A    between atoms: C_8  and  C_9 
REMARK    3  A    between atoms: C_9  and  N_10 
REMARK    4  A    between atoms: N_13  and  C_14 
REMARK    5  A    between atoms: C_14  and  C_15 
REMARK    6  A    between atoms: C_30  and  C_31 
REMARK       I    between atoms: C_31  and  N_32 
REMARK    7  A    between atoms: N_32  and  C_33 
ROOT
HETATM    1  N   UNL     1      -4.385   4.043 -31.212  1.00  0.00    -0.290 N 
HETATM    2  C   UNL     1      -3.136   4.588 -31.485  1.00  0.00     0.332 C 
HETATM    3  O   UNL     1      -2.144   3.857 -31.571  1.00  0.00    -0.246 OA
HETATM    4  N   UNL     1      -3.076   5.955 -31.690  1.00  0.00    -0.261 N 
HETATM    5  C   UNL     1      -4.181   6.781 -31.823  1.00  0.00     0.264 C 
HETATM    6  O   UNL     1      -4.118   7.982 -32.074  1.00  0.00    -0.267 OA
HETATM    7  C   UNL     1      -5.503   6.152 -31.669  1.00  0.00     0.059 A 
HETATM    8  C   UNL     1      -5.582   4.794 -31.355  1.00  0.00     0.056 A 
HETATM    9  C   UNL     1      -6.659   6.929 -31.826  1.00  0.00     0.020 A 
HETATM   10  C   UNL     1      -7.915   6.345 -31.694  1.00  0.00     0.018 A 
HETATM   11  C   UNL     1      -8.019   4.981 -31.409  1.00  0.00     0.034 A 
HETATM   12  C   UNL     1      -6.856   4.217 -31.220  1.00  0.00     0.048 A 
ENDROOT
BRANCH   1  13
HETATM   13  C   UNL     1      -4.435   2.625 -30.839  1.00  0.00     0.237 C 
BRANCH  13  14
HETATM   14  C   UNL     1      -4.637   1.713 -32.051  1.00  0.00     0.240 C 
HETATM   15  N   UNL     1      -5.088   0.450 -31.710  1.00  0.00    -0.325 N 
HETATM   16  H   UNL     1      -5.493   0.398 -30.779  1.00  0.00     0.169 HD
HETATM   17  O   UNL     1      -4.500   2.164 -33.185  1.00  0.00    -0.271 OA
BRANCH  15  18
HETATM   18  C   UNL     1      -5.376  -0.636 -32.574  1.00  0.00     0.046 A 
HETATM   19  C   UNL     1      -4.464  -1.666 -32.889  1.00  0.00    -0.034 A 
HETATM   20  C   UNL     1      -4.842  -2.667 -33.808  1.00  0.00     0.015 A 
HETATM   21  C   UNL     1      -3.097  -1.823 -32.279  1.00  0.00     0.050 C 
HETATM   22  C   UNL     1      -6.116  -2.701 -34.376  1.00  0.00    -0.061 A 
HETATM   23  C   UNL     1      -6.505  -3.805 -35.313  1.00  0.00     0.048 C 
HETATM   24  C   UNL     1      -7.042  -1.733 -33.994  1.00  0.00     0.015 A 
HETATM   25  C   UNL     1      -6.690  -0.701 -33.104  1.00  0.00    -0.034 A 
HETATM   26  C   UNL     1      -7.749   0.322 -32.772  1.00  0.00     0.050 C 
ENDBRANCH  15  18
ENDBRANCH  13  14
ENDBRANCH   1  13
BRANCH   4  27
HETATM   27  C   UNL     1      -1.758   6.572 -31.787  1.00  0.00     0.175 C 
BRANCH  27  28
HETATM   28  C   UNL     1      -1.294   7.082 -30.437  1.00  0.00    -0.037 A 
HETATM   29  C   UNL     1      -0.341   6.362 -29.697  1.00  0.00     0.048 A 
HETATM   30  C   UNL     1       0.093   6.893 -28.501  1.00  0.00     0.105 A 
HETATM   31  C   UNL     1      -0.381   8.091 -28.025  1.00  0.00     0.105 A 
HETATM   32  O   UNL     1       1.017   6.335 -27.673  1.00  0.00    -0.323 OA
HETATM   33  O   UNL     1       0.182   8.438 -26.837  1.00  0.00    -0.323 OA
HETATM   34  C   UNL     1      -1.318   8.827 -28.718  1.00  0.00     0.040 A 
HETATM   35  C   UNL     1       1.075   7.325 -26.625  1.00  0.00     0.352 A 
HETATM   36  C   UNL     1      -1.774   8.317 -29.937  1.00  0.00     0.012 A 
ENDBRANCH  27  28
ENDBRANCH   4  27
BRANCH  11  37
HETATM   37  C   UNL     1      -9.378   4.381 -31.310  1.00  0.00     0.252 C 
HETATM   38  N   UNL     1      -9.914   3.888 -32.483  1.00  0.00    -0.352 N 
HETATM   39  H   UNL     1      -9.462   4.119 -33.358  1.00  0.00     0.163 HD
HETATM   40  O   UNL     1      -9.970   4.388 -30.237  1.00  0.00    -0.268 OA
BRANCH  38  41
HETATM   41  C   UNL     1     -11.300   3.437 -32.554  1.00  0.00     0.084 C 
HETATM   42  C   UNL     1     -12.168   4.448 -33.316  1.00  0.00     0.025 C 
HETATM   43  C   UNL     1     -11.854   4.474 -34.812  1.00  0.00     0.002 C 
HETATM   44  C   UNL     1     -11.962   3.084 -35.431  1.00  0.00     0.000 C 
HETATM   45  C   UNL     1     -11.101   2.062 -34.695  1.00  0.00     0.002 C 
HETATM   46  C   UNL     1     -11.387   2.046 -33.193  1.00  0.00     0.025 C 
ENDBRANCH  38  41
ENDBRANCH  11  37
TORSDOF 7
ENDMDL
