MODEL 1
REMARK VINA RESULT:      -8.2      0.000      0.000
REMARK  7 active torsions:
REMARK  status: ('A' for Active; 'I' for Inactive)
REMARK    1  A    between atoms: C_2  and  O_3 
REMARK    2  A    between atoms: O_3  and  C_4 
REMARK    3  A    between atoms: C_7  and  N_8 
REMARK       I    between atoms: N_8  and  C_9 
REMARK    4  A    between atoms: C_9  and  C_10 
REMARK    5  A    between atoms: C_10  and  S_11 
REMARK    6  A    between atoms: S_11  and  C_12 
REMARK    7  A    between atoms: N_13  and  C_14 
ROOT
HETATM    1  C   UNL     1      -9.216   2.885 -33.626  1.00  0.00     0.177 A 
HETATM    2  N   UNL     1      -9.245   1.525 -33.243  1.00  0.00    -0.276 N 
HETATM    3  C   UNL     1     -10.521   0.852 -33.256  1.00  0.00     0.124 A 
HETATM    4  N   UNL     1     -10.669  -0.427 -32.963  1.00  0.00    -0.384 N 
HETATM    5  H   UNL     1     -11.575  -0.869 -33.008  1.00  0.00     0.157 HD
HETATM    6  H   UNL     1      -9.865  -0.990 -32.718  1.00  0.00     0.157 HD
HETATM    7  C   UNL     1     -11.647   1.637 -33.649  1.00  0.00     0.081 A 
HETATM    8  C   UNL     1     -11.434   2.952 -34.050  1.00  0.00     0.187 A 
HETATM    9  N   UNL     1     -12.556   3.568 -34.393  1.00  0.00    -0.153 NA
HETATM   10  N   UNL     1     -13.500   2.627 -34.204  1.00  0.00    -0.280 N 
HETATM   11  H   UNL     1     -14.465   2.875 -34.402  1.00  0.00     0.189 HD
HETATM   12  C   UNL     1     -13.004   1.426 -33.737  1.00  0.00     0.042 A 
HETATM   13  C   UNL     1     -13.893   0.284 -33.439  1.00  0.00     0.071 C 
HETATM   14  N   UNL     1     -10.211   3.607 -34.051  1.00  0.00    -0.202 NA
ENDROOT
BRANCH   1  15
HETATM   15  S   UNL     1      -7.676   3.777 -33.504  1.00  0.00    -0.082 SA
BRANCH  15  16
HETATM   16  C   UNL     1      -8.031   4.844 -32.073  1.00  0.00     0.185 C 
BRANCH  16  17
HETATM   17  C   UNL     1      -7.795   4.079 -30.792  1.00  0.00     0.231 C 
HETATM   18  N   UNL     1      -6.560   3.907 -30.245  1.00  0.00    -0.327 N 
HETATM   19  H   UNL     1      -6.645   3.534 -29.304  1.00  0.00     0.169 HD
HETATM   20  O   UNL     1      -8.760   3.637 -30.153  1.00  0.00    -0.272 OA
BRANCH  18  21
HETATM   21  C   UNL     1      -5.246   4.089 -30.706  1.00  0.00     0.034 A 
HETATM   22  C   UNL     1      -4.547   5.292 -30.697  1.00  0.00     0.032 A 
HETATM   23  C   UNL     1      -3.256   5.366 -31.236  1.00  0.00     0.039 A 
HETATM   24  C   UNL     1      -2.643   4.247 -31.798  1.00  0.00     0.068 A 
HETATM   25  C   UNL     1      -3.335   3.041 -31.813  1.00  0.00     0.039 A 
HETATM   26  C   UNL     1      -4.629   2.969 -31.281  1.00  0.00     0.032 A 
BRANCH  24  27
HETATM   27  O   UNL     1      -1.392   4.468 -32.300  1.00  0.00    -0.352 OA
BRANCH  27  28
HETATM   28  C   UNL     1      -1.235   5.572 -33.190  1.00  0.00     0.171 C 
HETATM   29  C   UNL     1      -1.661   5.122 -34.576  1.00  0.00     0.034 C 
ENDBRANCH  27  28
ENDBRANCH  24  27
ENDBRANCH  18  21
ENDBRANCH  16  17
ENDBRANCH  15  16
ENDBRANCH   1  15
BRANCH   2  30
HETATM   30  C   UNL     1      -8.055   0.808 -32.926  1.00  0.00     0.043 A 
HETATM   31  C   UNL     1      -7.206   0.360 -33.950  1.00  0.00     0.031 A 
HETATM   32  C   UNL     1      -6.009  -0.291 -33.644  1.00  0.00     0.021 A 
HETATM   33  C   UNL     1      -5.653  -0.493 -32.311  1.00  0.00     0.011 A 
HETATM   34 BR   UNL     1      -4.031  -1.370 -31.896  1.00  0.00    -0.051 Br
HETATM   35  C   UNL     1      -6.483  -0.052 -31.283  1.00  0.00     0.021 A 
HETATM   36  C   UNL     1      -7.679   0.601 -31.589  1.00  0.00     0.031 A 
ENDBRANCH   2  30
TORSDOF 7
ENDMDL
MODEL 2
REMARK VINA RESULT:      -8.1      3.349      5.928
REMARK  7 active torsions:
REMARK  status: ('A' for Active; 'I' for Inactive)
REMARK    1  A    between atoms: C_2  and  O_3 
REMARK    2  A    between atoms: O_3  and  C_4 
REMARK    3  A    between atoms: C_7  and  N_8 
REMARK       I    between atoms: N_8  and  C_9 
REMARK    4  A    between atoms: C_9  and  C_10 
REMARK    5  A    between atoms: C_10  and  S_11 
REMARK    6  A    between atoms: S_11  and  C_12 
REMARK    7  A    between atoms: N_13  and  C_14 
ROOT
HETATM    1  C   UNL     1      -5.984   1.880 -32.041  1.00  0.00     0.177 A 
HETATM    2  N   UNL     1      -6.622   0.771 -32.641  1.00  0.00    -0.276 N 
HETATM    3  C   UNL     1      -5.896  -0.475 -32.692  1.00  0.00     0.124 A 
HETATM    4  N   UNL     1      -6.403  -1.590 -33.186  1.00  0.00    -0.384 N 
HETATM    5  H   UNL     1      -5.873  -2.448 -33.181  1.00  0.00     0.157 HD
HETATM    6  H   UNL     1      -7.346  -1.603 -33.551  1.00  0.00     0.157 HD
HETATM    7  C   UNL     1      -4.582  -0.465 -32.132  1.00  0.00     0.081 A 
HETATM    8  C   UNL     1      -4.125   0.702 -31.528  1.00  0.00     0.187 A 
HETATM    9  N   UNL     1      -2.897   0.578 -31.046  1.00  0.00    -0.153 NA
HETATM   10  N   UNL     1      -2.567  -0.691 -31.353  1.00  0.00    -0.280 N 
HETATM   11  H   UNL     1      -1.646  -1.021 -31.080  1.00  0.00     0.189 HD
HETATM   12  C   UNL     1      -3.557  -1.376 -32.030  1.00  0.00     0.042 A 
HETATM   13  C   UNL     1      -3.364  -2.771 -32.479  1.00  0.00     0.071 C 
HETATM   14  N   UNL     1      -4.817   1.902 -31.464  1.00  0.00    -0.202 NA
ENDROOT
BRANCH   1  15
HETATM   15  S   UNL     1      -6.806   3.462 -32.071  1.00  0.00    -0.082 SA
BRANCH  15  16
HETATM   16  C   UNL     1      -5.369   4.577 -32.014  1.00  0.00     0.185 C 
BRANCH  16  17
HETATM   17  C   UNL     1      -5.019   5.035 -33.410  1.00  0.00     0.231 C 
HETATM   18  N   UNL     1      -3.767   5.433 -33.771  1.00  0.00    -0.327 N 
HETATM   19  H   UNL     1      -3.707   5.517 -34.781  1.00  0.00     0.169 HD
HETATM   20  O   UNL     1      -5.875   4.991 -34.304  1.00  0.00    -0.272 OA
BRANCH  18  21
HETATM   21  C   UNL     1      -2.604   5.779 -33.065  1.00  0.00     0.034 A 
HETATM   22  C   UNL     1      -1.653   4.882 -32.590  1.00  0.00     0.032 A 
HETATM   23  C   UNL     1      -0.555   5.339 -31.847  1.00  0.00     0.039 A 
HETATM   24  C   UNL     1      -0.392   6.694 -31.561  1.00  0.00     0.068 A 
HETATM   25  C   UNL     1      -1.339   7.597 -32.031  1.00  0.00     0.039 A 
HETATM   26  C   UNL     1      -2.440   7.139 -32.767  1.00  0.00     0.032 A 
BRANCH  24  27
HETATM   27  O   UNL     1       0.712   6.995 -30.816  1.00  0.00    -0.352 OA
BRANCH  27  28
HETATM   28  C   UNL     1       0.666   6.672 -29.426  1.00  0.00     0.171 C 
HETATM   29  C   UNL     1       0.758   7.968 -28.640  1.00  0.00     0.034 C 
ENDBRANCH  27  28
ENDBRANCH  24  27
ENDBRANCH  18  21
ENDBRANCH  16  17
ENDBRANCH  15  16
ENDBRANCH   1  15
BRANCH   2  30
HETATM   30  C   UNL     1      -7.964   0.844 -33.117  1.00  0.00     0.043 A 
HETATM   31  C   UNL     1      -9.032   0.504 -32.272  1.00  0.00     0.031 A 
HETATM   32  C   UNL     1     -10.352   0.630 -32.713  1.00  0.00     0.021 A 
HETATM   33  C   UNL     1     -10.608   1.099 -34.000  1.00  0.00     0.011 A 
HETATM   34 BR   UNL     1     -12.393   1.274 -34.596  1.00  0.00    -0.051 Br
HETATM   35  C   UNL     1      -9.559   1.443 -34.850  1.00  0.00     0.021 A 
HETATM   36  C   UNL     1      -8.240   1.320 -34.408  1.00  0.00     0.031 A 
ENDBRANCH   2  30
TORSDOF 7
ENDMDL
MODEL 3
REMARK VINA RESULT:      -7.9      3.763      8.280
REMARK  7 active torsions:
REMARK  status: ('A' for Active; 'I' for Inactive)
REMARK    1  A    between atoms: C_2  and  O_3 
REMARK    2  A    between atoms: O_3  and  C_4 
REMARK    3  A    between atoms: C_7  and  N_8 
REMARK       I    between atoms: N_8  and  C_9 
REMARK    4  A    between atoms: C_9  and  C_10 
REMARK    5  A    between atoms: C_10  and  S_11 
REMARK    6  A    between atoms: S_11  and  C_12 
REMARK    7  A    between atoms: N_13  and  C_14 
ROOT
HETATM    1  C   UNL     1      -3.685   3.331 -31.386  1.00  0.00     0.177 A 
HETATM    2  N   UNL     1      -4.596   4.412 -31.410  1.00  0.00    -0.276 N 
HETATM    3  C   UNL     1      -4.058   5.739 -31.590  1.00  0.00     0.124 A 
HETATM    4  N   UNL     1      -4.811   6.820 -31.675  1.00  0.00    -0.384 N 
HETATM    5  H   UNL     1      -4.400   7.729 -31.827  1.00  0.00     0.157 HD
HETATM    6  H   UNL     1      -5.818   6.747 -31.618  1.00  0.00     0.157 HD
HETATM    7  C   UNL     1      -2.639   5.834 -31.719  1.00  0.00     0.081 A 
HETATM    8  C   UNL     1      -1.891   4.661 -31.730  1.00  0.00     0.187 A 
HETATM    9  N   UNL     1      -0.592   4.888 -31.859  1.00  0.00    -0.153 NA
HETATM   10  N   UNL     1      -0.514   6.229 -31.930  1.00  0.00    -0.280 N 
HETATM   11  H   UNL     1       0.407   6.647 -32.030  1.00  0.00     0.189 HD
HETATM   12  C   UNL     1      -1.736   6.865 -31.838  1.00  0.00     0.042 A 
HETATM   13  C   UNL     1      -1.847   8.339 -31.862  1.00  0.00     0.071 C 
HETATM   14  N   UNL     1      -2.397   3.380 -31.567  1.00  0.00    -0.202 NA
ENDROOT
BRANCH   1  15
HETATM   15  S   UNL     1      -4.306   1.695 -31.044  1.00  0.00    -0.082 SA
BRANCH  15  16
HETATM   16  C   UNL     1      -3.547   0.766 -32.413  1.00  0.00     0.185 C 
BRANCH  16  17
HETATM   17  C   UNL     1      -3.966  -0.684 -32.343  1.00  0.00     0.231 C 
HETATM   18  N   UNL     1      -5.173  -1.132 -32.790  1.00  0.00    -0.327 N 
HETATM   19  H   UNL     1      -5.176  -2.146 -32.823  1.00  0.00     0.169 HD
HETATM   20  O   UNL     1      -3.168  -1.535 -31.929  1.00  0.00    -0.272 OA
BRANCH  18  21
HETATM   21  C   UNL     1      -6.378  -0.510 -33.157  1.00  0.00     0.034 A 
HETATM   22  C   UNL     1      -7.369  -0.089 -32.277  1.00  0.00     0.032 A 
HETATM   23  C   UNL     1      -8.558   0.471 -32.763  1.00  0.00     0.039 A 
HETATM   24  C   UNL     1      -8.781   0.615 -34.133  1.00  0.00     0.068 A 
HETATM   25  C   UNL     1      -7.795   0.194 -35.019  1.00  0.00     0.039 A 
HETATM   26  C   UNL     1      -6.610  -0.373 -34.533  1.00  0.00     0.032 A 
BRANCH  24  27
HETATM   27  O   UNL     1      -9.988   1.160 -34.464  1.00  0.00    -0.352 OA
BRANCH  27  28
HETATM   28  C   UNL     1     -11.090   0.872 -33.603  1.00  0.00     0.171 C 
HETATM   29  C   UNL     1     -12.244   1.773 -34.003  1.00  0.00     0.034 C 
ENDBRANCH  27  28
ENDBRANCH  24  27
ENDBRANCH  18  21
ENDBRANCH  16  17
ENDBRANCH  15  16
ENDBRANCH   1  15
BRANCH   2  30
HETATM   30  C   UNL     1      -6.005   4.208 -31.336  1.00  0.00     0.043 A 
HETATM   31  C   UNL     1      -6.654   4.214 -30.091  1.00  0.00     0.031 A 
HETATM   32  C   UNL     1      -8.042   4.075 -30.015  1.00  0.00     0.021 A 
HETATM   33  C   UNL     1      -8.787   3.933 -31.184  1.00  0.00     0.011 A 
HETATM   34 BR   UNL     1     -10.665   3.749 -31.083  1.00  0.00    -0.051 Br
HETATM   35  C   UNL     1      -8.158   3.928 -32.428  1.00  0.00     0.021 A 
HETATM   36  C   UNL     1      -6.771   4.070 -32.503  1.00  0.00     0.031 A 
ENDBRANCH   2  30
TORSDOF 7
ENDMDL
MODEL 4
REMARK VINA RESULT:      -7.8      3.907      6.030
REMARK  7 active torsions:
REMARK  status: ('A' for Active; 'I' for Inactive)
REMARK    1  A    between atoms: C_2  and  O_3 
REMARK    2  A    between atoms: O_3  and  C_4 
REMARK    3  A    between atoms: C_7  and  N_8 
REMARK       I    between atoms: N_8  and  C_9 
REMARK    4  A    between atoms: C_9  and  C_10 
REMARK    5  A    between atoms: C_10  and  S_11 
REMARK    6  A    between atoms: S_11  and  C_12 
REMARK    7  A    between atoms: N_13  and  C_14 
ROOT
HETATM    1  C   UNL     1      -5.319   1.893 -32.362  1.00  0.00     0.177 A 
HETATM    2  N   UNL     1      -6.690   1.616 -32.568  1.00  0.00    -0.276 N 
HETATM    3  C   UNL     1      -7.038   0.331 -33.124  1.00  0.00     0.124 A 
HETATM    4  N   UNL     1      -8.284  -0.061 -33.319  1.00  0.00    -0.384 N 
HETATM    5  H   UNL     1      -8.489  -0.978 -33.687  1.00  0.00     0.157 HD
HETATM    6  H   UNL     1      -9.054   0.547 -33.074  1.00  0.00     0.157 HD
HETATM    7  C   UNL     1      -5.951  -0.545 -33.424  1.00  0.00     0.081 A 
HETATM    8  C   UNL     1      -4.660  -0.136 -33.106  1.00  0.00     0.187 A 
HETATM    9  N   UNL     1      -3.746  -1.038 -33.431  1.00  0.00    -0.153 NA
HETATM   10  N   UNL     1      -4.470  -2.038 -33.968  1.00  0.00    -0.280 N 
HETATM   11  H   UNL     1      -3.972  -2.858 -34.302  1.00  0.00     0.189 HD
HETATM   12  C   UNL     1      -5.827  -1.787 -34.001  1.00  0.00     0.042 A 
HETATM   13  C   UNL     1      -6.779  -2.755 -34.585  1.00  0.00     0.071 C 
HETATM   14  N   UNL     1      -4.313   1.093 -32.563  1.00  0.00    -0.202 NA
ENDROOT
BRANCH   1  15
HETATM   15  S   UNL     1      -4.850   3.516 -31.791  1.00  0.00    -0.082 SA
BRANCH  15  16
HETATM   16  C   UNL     1      -3.060   3.276 -31.564  1.00  0.00     0.185 C 
BRANCH  16  17
HETATM   17  C   UNL     1      -2.298   4.233 -32.451  1.00  0.00     0.231 C 
HETATM   18  N   UNL     1      -1.390   5.129 -31.972  1.00  0.00    -0.327 N 
HETATM   19  H   UNL     1      -0.865   5.535 -32.740  1.00  0.00     0.169 HD
HETATM   20  O   UNL     1      -2.435   4.173 -33.681  1.00  0.00    -0.272 OA
BRANCH  18  21
HETATM   21  C   UNL     1      -1.073   5.619 -30.695  1.00  0.00     0.034 A 
HETATM   22  C   UNL     1      -1.795   6.582 -29.998  1.00  0.00     0.032 A 
HETATM   23  C   UNL     1      -1.351   7.035 -28.749  1.00  0.00     0.039 A 
HETATM   24  C   UNL     1      -0.178   6.542 -28.177  1.00  0.00     0.068 A 
HETATM   25  C   UNL     1       0.551   5.581 -28.868  1.00  0.00     0.039 A 
HETATM   26  C   UNL     1       0.110   5.133 -30.120  1.00  0.00     0.032 A 
BRANCH  24  27
HETATM   27  O   UNL     1       0.143   7.085 -26.966  1.00  0.00    -0.352 OA
BRANCH  27  28
HETATM   28  C   UNL     1       1.504   7.463 -26.763  1.00  0.00     0.171 C 
HETATM   29  C   UNL     1       1.722   8.808 -27.434  1.00  0.00     0.034 C 
ENDBRANCH  27  28
ENDBRANCH  24  27
ENDBRANCH  18  21
ENDBRANCH  16  17
ENDBRANCH  15  16
ENDBRANCH   1  15
BRANCH   2  30
HETATM   30  C   UNL     1      -7.709   2.533 -32.177  1.00  0.00     0.043 A 
HETATM   31  C   UNL     1      -8.237   3.441 -33.109  1.00  0.00     0.031 A 
HETATM   32  C   UNL     1      -9.276   4.301 -32.747  1.00  0.00     0.021 A 
HETATM   33  C   UNL     1      -9.795   4.254 -31.455  1.00  0.00     0.011 A 
HETATM   34 BR   UNL     1     -11.205   5.415 -30.968  1.00  0.00    -0.051 Br
HETATM   35  C   UNL     1      -9.284   3.357 -30.519  1.00  0.00     0.021 A 
HETATM   36  C   UNL     1      -8.247   2.495 -30.881  1.00  0.00     0.031 A 
ENDBRANCH   2  30
TORSDOF 7
ENDMDL
MODEL 5
REMARK VINA RESULT:      -7.8      2.534      3.796
REMARK  7 active torsions:
REMARK  status: ('A' for Active; 'I' for Inactive)
REMARK    1  A    between atoms: C_2  and  O_3 
REMARK    2  A    between atoms: O_3  and  C_4 
REMARK    3  A    between atoms: C_7  and  N_8 
REMARK       I    between atoms: N_8  and  C_9 
REMARK    4  A    between atoms: C_9  and  C_10 
REMARK    5  A    between atoms: C_10  and  S_11 
REMARK    6  A    between atoms: S_11  and  C_12 
REMARK    7  A    between atoms: N_13  and  C_14 
ROOT
HETATM    1  C   UNL     1      -6.584   3.027 -33.411  1.00  0.00     0.177 A 
HETATM    2  N   UNL     1      -7.052   1.699 -33.288  1.00  0.00    -0.276 N 
HETATM    3  C   UNL     1      -8.445   1.449 -33.568  1.00  0.00     0.124 A 
HETATM    4  N   UNL     1      -8.988   0.246 -33.531  1.00  0.00    -0.384 N 
HETATM    5  H   UNL     1      -9.961   0.108 -33.759  1.00  0.00     0.157 HD
HETATM    6  H   UNL     1      -8.424  -0.561 -33.302  1.00  0.00     0.157 HD
HETATM    7  C   UNL     1      -9.229   2.584 -33.939  1.00  0.00     0.081 A 
HETATM    8  C   UNL     1      -8.596   3.817 -34.067  1.00  0.00     0.187 A 
HETATM    9  N   UNL     1      -9.432   4.783 -34.419  1.00  0.00    -0.153 NA
HETATM   10  N   UNL     1     -10.617   4.153 -34.513  1.00  0.00    -0.280 N 
HETATM   11  H   UNL     1     -11.429   4.705 -34.773  1.00  0.00     0.189 HD
HETATM   12  C   UNL     1     -10.557   2.805 -34.219  1.00  0.00     0.042 A 
HETATM   13  C   UNL     1     -11.765   1.954 -34.236  1.00  0.00     0.071 C 
HETATM   14  N   UNL     1      -7.256   4.067 -33.810  1.00  0.00    -0.202 NA
ENDROOT
BRANCH   1  15
HETATM   15  S   UNL     1      -4.898   3.387 -32.954  1.00  0.00    -0.082 SA
BRANCH  15  16
HETATM   16  C   UNL     1      -4.792   5.134 -33.454  1.00  0.00     0.185 C 
BRANCH  16  17
HETATM   17  C   UNL     1      -3.822   5.279 -34.604  1.00  0.00     0.231 C 
HETATM   18  N   UNL     1      -2.490   5.503 -34.429  1.00  0.00    -0.327 N 
HETATM   19  H   UNL     1      -1.999   5.381 -35.310  1.00  0.00     0.169 HD
HETATM   20  O   UNL     1      -4.219   5.122 -35.767  1.00  0.00    -0.272 OA
BRANCH  18  21
HETATM   21  C   UNL     1      -1.693   5.894 -33.341  1.00  0.00     0.034 A 
HETATM   22  C   UNL     1      -0.962   5.034 -32.528  1.00  0.00     0.032 A 
HETATM   23  C   UNL     1      -0.244   5.534 -31.433  1.00  0.00     0.039 A 
HETATM   24  C   UNL     1      -0.247   6.895 -31.127  1.00  0.00     0.068 A 
HETATM   25  C   UNL     1      -0.977   7.761 -31.935  1.00  0.00     0.039 A 
HETATM   26  C   UNL     1      -1.701   7.260 -33.025  1.00  0.00     0.032 A 
BRANCH  24  27
HETATM   27  O   UNL     1       0.481   7.239 -30.025  1.00  0.00    -0.352 OA
BRANCH  27  28
HETATM   28  C   UNL     1      -0.200   7.242 -28.770  1.00  0.00     0.171 C 
HETATM   29  C   UNL     1       0.750   6.696 -27.719  1.00  0.00     0.034 C 
ENDBRANCH  27  28
ENDBRANCH  24  27
ENDBRANCH  18  21
ENDBRANCH  16  17
ENDBRANCH  15  16
ENDBRANCH   1  15
BRANCH   2  30
HETATM   30  C   UNL     1      -6.176   0.620 -32.971  1.00  0.00     0.043 A 
HETATM   31  C   UNL     1      -5.569  -0.122 -33.998  1.00  0.00     0.031 A 
HETATM   32  C   UNL     1      -4.664  -1.142 -33.694  1.00  0.00     0.021 A 
HETATM   33  C   UNL     1      -4.359  -1.422 -32.364  1.00  0.00     0.011 A 
HETATM   34 BR   UNL     1      -3.131  -2.798 -31.954  1.00  0.00    -0.051 Br
HETATM   35  C   UNL     1      -4.949  -0.693 -31.333  1.00  0.00     0.021 A 
HETATM   36  C   UNL     1      -5.853   0.328 -31.637  1.00  0.00     0.031 A 
ENDBRANCH   2  30
TORSDOF 7
ENDMDL
MODEL 6
REMARK VINA RESULT:      -7.8      2.881      4.232
REMARK  7 active torsions:
REMARK  status: ('A' for Active; 'I' for Inactive)
REMARK    1  A    between atoms: C_2  and  O_3 
REMARK    2  A    between atoms: O_3  and  C_4 
REMARK    3  A    between atoms: C_7  and  N_8 
REMARK       I    between atoms: N_8  and  C_9 
REMARK    4  A    between atoms: C_9  and  C_10 
REMARK    5  A    between atoms: C_10  and  S_11 
REMARK    6  A    between atoms: S_11  and  C_12 
REMARK    7  A    between atoms: N_13  and  C_14 
ROOT
HETATM    1  C   UNL     1      -6.992   3.815 -32.623  1.00  0.00     0.177 A 
HETATM    2  N   UNL     1      -7.836   2.682 -32.617  1.00  0.00    -0.276 N 
HETATM    3  C   UNL     1      -9.184   2.851 -32.131  1.00  0.00     0.124 A 
HETATM    4  N   UNL     1     -10.078   1.880 -32.119  1.00  0.00    -0.384 N 
HETATM    5  H   UNL     1     -11.019   2.044 -31.796  1.00  0.00     0.157 HD
HETATM    6  H   UNL     1      -9.836   0.960 -32.464  1.00  0.00     0.157 HD
HETATM    7  C   UNL     1      -9.537   4.163 -31.690  1.00  0.00     0.081 A 
HETATM    8  C   UNL     1      -8.599   5.183 -31.816  1.00  0.00     0.187 A 
HETATM    9  N   UNL     1      -9.052   6.347 -31.376  1.00  0.00    -0.153 NA
HETATM   10  N   UNL     1     -10.299   6.061 -30.959  1.00  0.00    -0.280 N 
HETATM   11  H   UNL     1     -10.854   6.817 -30.568  1.00  0.00     0.189 HD
HETATM   12  C   UNL     1     -10.648   4.735 -31.115  1.00  0.00     0.042 A 
HETATM   13  C   UNL     1     -11.967   4.225 -30.684  1.00  0.00     0.071 C 
HETATM   14  N   UNL     1      -7.304   5.033 -32.290  1.00  0.00    -0.202 NA
ENDROOT
BRANCH   1  15
HETATM   15  S   UNL     1      -5.286   3.611 -33.102  1.00  0.00    -0.082 SA
BRANCH  15  16
HETATM   16  C   UNL     1      -4.876   5.318 -33.582  1.00  0.00     0.185 C 
BRANCH  16  17
HETATM   17  C   UNL     1      -3.794   5.307 -34.637  1.00  0.00     0.231 C 
HETATM   18  N   UNL     1      -2.465   5.347 -34.339  1.00  0.00    -0.327 N 
HETATM   19  H   UNL     1      -1.918   5.143 -35.169  1.00  0.00     0.169 HD
HETATM   20  O   UNL     1      -4.101   5.188 -35.831  1.00  0.00    -0.272 OA
BRANCH  18  21
HETATM   21  C   UNL     1      -1.725   5.641 -33.183  1.00  0.00     0.034 A 
HETATM   22  C   UNL     1      -1.481   4.759 -32.135  1.00  0.00     0.032 A 
HETATM   23  C   UNL     1      -0.773   5.183 -31.002  1.00  0.00     0.039 A 
HETATM   24  C   UNL     1      -0.302   6.491 -30.892  1.00  0.00     0.068 A 
HETATM   25  C   UNL     1      -0.543   7.379 -31.935  1.00  0.00     0.039 A 
HETATM   26  C   UNL     1      -1.258   6.958 -33.064  1.00  0.00     0.032 A 
BRANCH  24  27
HETATM   27  O   UNL     1       0.356   6.769 -29.728  1.00  0.00    -0.352 OA
BRANCH  27  28
HETATM   28  C   UNL     1       0.425   5.727 -28.756  1.00  0.00     0.171 C 
HETATM   29  C   UNL     1       0.089   6.326 -27.402  1.00  0.00     0.034 C 
ENDBRANCH  27  28
ENDBRANCH  24  27
ENDBRANCH  18  21
ENDBRANCH  16  17
ENDBRANCH  15  16
ENDBRANCH   1  15
BRANCH   2  30
HETATM   30  C   UNL     1      -7.410   1.425 -33.138  1.00  0.00     0.043 A 
HETATM   31  C   UNL     1      -6.845   0.463 -32.286  1.00  0.00     0.031 A 
HETATM   32  C   UNL     1      -6.480  -0.792 -32.779  1.00  0.00     0.021 A 
HETATM   33  C   UNL     1      -6.683  -1.092 -34.125  1.00  0.00     0.011 A 
HETATM   34 BR   UNL     1      -6.194  -2.792 -34.791  1.00  0.00    -0.051 Br
HETATM   35  C   UNL     1      -7.246  -0.149 -34.983  1.00  0.00     0.021 A 
HETATM   36  C   UNL     1      -7.613   1.105 -34.489  1.00  0.00     0.031 A 
ENDBRANCH   2  30
TORSDOF 7
ENDMDL
MODEL 7
REMARK VINA RESULT:      -7.7      2.444      7.965
REMARK  7 active torsions:
REMARK  status: ('A' for Active; 'I' for Inactive)
REMARK    1  A    between atoms: C_2  and  O_3 
REMARK    2  A    between atoms: O_3  and  C_4 
REMARK    3  A    between atoms: C_7  and  N_8 
REMARK       I    between atoms: N_8  and  C_9 
REMARK    4  A    between atoms: C_9  and  C_10 
REMARK    5  A    between atoms: C_10  and  S_11 
REMARK    6  A    between atoms: S_11  and  C_12 
REMARK    7  A    between atoms: N_13  and  C_14 
ROOT
HETATM    1  C   UNL     1      -6.386   3.748 -31.282  1.00  0.00     0.177 A 
HETATM    2  N   UNL     1      -5.405   2.987 -31.957  1.00  0.00    -0.276 N 
HETATM    3  C   UNL     1      -4.051   3.483 -31.955  1.00  0.00     0.124 A 
HETATM    4  N   UNL     1      -3.041   2.839 -32.511  1.00  0.00    -0.384 N 
HETATM    5  H   UNL     1      -2.103   3.206 -32.467  1.00  0.00     0.157 HD
HETATM    6  H   UNL     1      -3.193   1.949 -32.967  1.00  0.00     0.157 HD
HETATM    7  C   UNL     1      -3.831   4.717 -31.270  1.00  0.00     0.081 A 
HETATM    8  C   UNL     1      -4.900   5.311 -30.608  1.00  0.00     0.187 A 
HETATM    9  N   UNL     1      -4.563   6.444 -30.011  1.00  0.00    -0.153 NA
HETATM   10  N   UNL     1      -3.255   6.574 -30.301  1.00  0.00    -0.280 N 
HETATM   11  H   UNL     1      -2.768   7.391 -29.944  1.00  0.00     0.189 HD
HETATM   12  C   UNL     1      -2.753   5.551 -31.080  1.00  0.00     0.042 A 
HETATM   13  C   UNL     1      -1.344   5.537 -31.528  1.00  0.00     0.071 C 
HETATM   14  N   UNL     1      -6.204   4.838 -30.595  1.00  0.00    -0.202 NA
ENDROOT
BRANCH   1  15
HETATM   15  S   UNL     1      -8.088   3.225 -31.371  1.00  0.00    -0.082 SA
BRANCH  15  16
HETATM   16  C   UNL     1      -8.827   4.660 -32.213  1.00  0.00     0.185 C 
BRANCH  16  17
HETATM   17  C   UNL     1      -8.444   4.649 -33.675  1.00  0.00     0.231 C 
HETATM   18  N   UNL     1      -9.259   4.165 -34.653  1.00  0.00    -0.327 N 
HETATM   19  H   UNL     1      -8.896   4.422 -35.566  1.00  0.00     0.169 HD
HETATM   20  O   UNL     1      -7.376   5.162 -34.034  1.00  0.00    -0.272 OA
BRANCH  18  21
HETATM   21  C   UNL     1     -10.424   3.380 -34.664  1.00  0.00     0.034 A 
HETATM   22  C   UNL     1     -10.516   2.068 -34.213  1.00  0.00     0.032 A 
HETATM   23  C   UNL     1     -11.722   1.363 -34.325  1.00  0.00     0.039 A 
HETATM   24  C   UNL     1     -12.852   1.951 -34.891  1.00  0.00     0.068 A 
HETATM   25  C   UNL     1     -12.768   3.263 -35.346  1.00  0.00     0.039 A 
HETATM   26  C   UNL     1     -11.560   3.965 -35.241  1.00  0.00     0.032 A 
BRANCH  24  27
HETATM   27  O   UNL     1     -13.952   1.144 -34.950  1.00  0.00    -0.352 OA
BRANCH  27  28
HETATM   28  C   UNL     1     -14.418   0.588 -33.721  1.00  0.00     0.171 C 
HETATM   29  C   UNL     1     -15.086   1.698 -32.929  1.00  0.00     0.034 C 
ENDBRANCH  27  28
ENDBRANCH  24  27
ENDBRANCH  18  21
ENDBRANCH  16  17
ENDBRANCH  15  16
ENDBRANCH   1  15
BRANCH   2  30
HETATM   30  C   UNL     1      -5.712   1.732 -32.561  1.00  0.00     0.043 A 
HETATM   31  C   UNL     1      -5.582   0.544 -31.824  1.00  0.00     0.031 A 
HETATM   32  C   UNL     1      -5.938  -0.682 -32.391  1.00  0.00     0.021 A 
HETATM   33  C   UNL     1      -6.428  -0.725 -33.695  1.00  0.00     0.011 A 
HETATM   34 BR   UNL     1      -6.914  -2.384 -34.459  1.00  0.00    -0.051 Br
HETATM   35  C   UNL     1      -6.566   0.445 -34.438  1.00  0.00     0.021 A 
HETATM   36  C   UNL     1      -6.213   1.672 -33.870  1.00  0.00     0.031 A 
ENDBRANCH   2  30
TORSDOF 7
ENDMDL
MODEL 8
REMARK VINA RESULT:      -7.6     16.537     18.830
REMARK  7 active torsions:
REMARK  status: ('A' for Active; 'I' for Inactive)
REMARK    1  A    between atoms: C_2  and  O_3 
REMARK    2  A    between atoms: O_3  and  C_4 
REMARK    3  A    between atoms: C_7  and  N_8 
REMARK       I    between atoms: N_8  and  C_9 
REMARK    4  A    between atoms: C_9  and  C_10 
REMARK    5  A    between atoms: C_10  and  S_11 
REMARK    6  A    between atoms: S_11  and  C_12 
REMARK    7  A    between atoms: N_13  and  C_14 
ROOT
HETATM    1  C   UNL     1      -6.011 -15.809 -38.083  1.00  0.00     0.177 A 
HETATM    2  N   UNL     1      -6.072 -14.913 -39.174  1.00  0.00    -0.276 N 
HETATM    3  C   UNL     1      -4.941 -14.866 -40.068  1.00  0.00     0.124 A 
HETATM    4  N   UNL     1      -4.900 -14.104 -41.145  1.00  0.00    -0.384 N 
HETATM    5  H   UNL     1      -4.101 -14.117 -41.761  1.00  0.00     0.157 HD
HETATM    6  H   UNL     1      -5.687 -13.514 -41.383  1.00  0.00     0.157 HD
HETATM    7  C   UNL     1      -3.852 -15.734 -39.756  1.00  0.00     0.081 A 
HETATM    8  C   UNL     1      -3.978 -16.598 -38.672  1.00  0.00     0.187 A 
HETATM    9  N   UNL     1      -2.902 -17.351 -38.494  1.00  0.00    -0.153 NA
HETATM   10  N   UNL     1      -2.077 -16.956 -39.481  1.00  0.00    -0.280 N 
HETATM   11  H   UNL     1      -1.166 -17.402 -39.545  1.00  0.00     0.189 HD
HETATM   12  C   UNL     1      -2.600 -15.959 -40.280  1.00  0.00     0.042 A 
HETATM   13  C   UNL     1      -1.827 -15.375 -41.396  1.00  0.00     0.071 C 
HETATM   14  N   UNL     1      -5.064 -16.658 -37.811  1.00  0.00    -0.202 NA
ENDROOT
BRANCH   1  15
HETATM   15  S   UNL     1      -7.339 -15.802 -36.893  1.00  0.00    -0.082 SA
BRANCH  15  16
HETATM   16  C   UNL     1      -6.417 -15.388 -35.379  1.00  0.00     0.185 C 
BRANCH  16  17
HETATM   17  C   UNL     1      -6.427 -13.892 -35.167  1.00  0.00     0.231 C 
HETATM   18  N   UNL     1      -5.513 -13.055 -35.731  1.00  0.00    -0.327 N 
HETATM   19  H   UNL     1      -5.808 -12.090 -35.616  1.00  0.00     0.169 HD
HETATM   20  O   UNL     1      -7.339 -13.370 -34.510  1.00  0.00    -0.272 OA
BRANCH  18  21
HETATM   21  C   UNL     1      -4.277 -13.237 -36.373  1.00  0.00     0.034 A 
HETATM   22  C   UNL     1      -3.267 -14.094 -35.948  1.00  0.00     0.032 A 
HETATM   23  C   UNL     1      -2.050 -14.153 -36.641  1.00  0.00     0.039 A 
HETATM   24  C   UNL     1      -1.818 -13.356 -37.762  1.00  0.00     0.068 A 
HETATM   25  C   UNL     1      -2.822 -12.495 -38.191  1.00  0.00     0.039 A 
HETATM   26  C   UNL     1      -4.036 -12.431 -37.495  1.00  0.00     0.032 A 
BRANCH  24  27
HETATM   27  O   UNL     1      -0.583 -13.504 -38.327  1.00  0.00    -0.352 OA
BRANCH  27  28
HETATM   28  C   UNL     1       0.138 -14.694 -38.009  1.00  0.00     0.171 C 
HETATM   29  C   UNL     1       1.486 -14.624 -38.705  1.00  0.00     0.034 C 
ENDBRANCH  27  28
ENDBRANCH  24  27
ENDBRANCH  18  21
ENDBRANCH  16  17
ENDBRANCH  15  16
ENDBRANCH   1  15
BRANCH   2  30
HETATM   30  C   UNL     1      -7.234 -14.129 -39.438  1.00  0.00     0.043 A 
HETATM   31  C   UNL     1      -7.333 -12.822 -38.933  1.00  0.00     0.031 A 
HETATM   32  C   UNL     1      -8.442 -12.029 -39.238  1.00  0.00     0.021 A 
HETATM   33  C   UNL     1      -9.453 -12.536 -40.051  1.00  0.00     0.011 A 
HETATM   34 BR   UNL     1     -10.950 -11.461 -40.467  1.00  0.00    -0.051 Br
HETATM   35  C   UNL     1      -9.368 -13.830 -40.562  1.00  0.00     0.021 A 
HETATM   36  C   UNL     1      -8.258 -14.623 -40.260  1.00  0.00     0.031 A 
ENDBRANCH   2  30
TORSDOF 7
ENDMDL
MODEL 9
REMARK VINA RESULT:      -7.6      1.719      2.010
REMARK  7 active torsions:
REMARK  status: ('A' for Active; 'I' for Inactive)
REMARK    1  A    between atoms: C_2  and  O_3 
REMARK    2  A    between atoms: O_3  and  C_4 
REMARK    3  A    between atoms: C_7  and  N_8 
REMARK       I    between atoms: N_8  and  C_9 
REMARK    4  A    between atoms: C_9  and  C_10 
REMARK    5  A    between atoms: C_10  and  S_11 
REMARK    6  A    between atoms: S_11  and  C_12 
REMARK    7  A    between atoms: N_13  and  C_14 
ROOT
HETATM    1  C   UNL     1      -9.346   3.224 -33.765  1.00  0.00     0.177 A 
HETATM    2  N   UNL     1      -9.599   1.845 -33.586  1.00  0.00    -0.276 N 
HETATM    3  C   UNL     1     -10.970   1.429 -33.422  1.00  0.00     0.124 A 
HETATM    4  N   UNL     1     -11.335   0.166 -33.293  1.00  0.00    -0.384 N 
HETATM    5  H   UNL     1     -12.307  -0.088 -33.206  1.00  0.00     0.157 HD
HETATM    6  H   UNL     1     -10.640  -0.569 -33.309  1.00  0.00     0.157 HD
HETATM    7  C   UNL     1     -11.953   2.465 -33.448  1.00  0.00     0.081 A 
HETATM    8  C   UNL     1     -11.538   3.770 -33.691  1.00  0.00     0.187 A 
HETATM    9  N   UNL     1     -12.544   4.632 -33.694  1.00  0.00    -0.153 NA
HETATM   10  N   UNL     1     -13.618   3.860 -33.446  1.00  0.00    -0.280 N 
HETATM   11  H   UNL     1     -14.526   4.312 -33.395  1.00  0.00     0.189 HD
HETATM   12  C   UNL     1     -13.316   2.524 -33.274  1.00  0.00     0.042 A 
HETATM   13  C   UNL     1     -14.362   1.527 -32.960  1.00  0.00     0.071 C 
HETATM   14  N   UNL     1     -10.223   4.180 -33.860  1.00  0.00    -0.202 NA
ENDROOT
BRANCH   1  15
HETATM   15  S   UNL     1      -7.655   3.782 -33.848  1.00  0.00    -0.082 SA
BRANCH  15  16
HETATM   16  C   UNL     1      -7.537   4.696 -32.279  1.00  0.00     0.185 C 
BRANCH  16  17
HETATM   17  C   UNL     1      -7.247   6.153 -32.555  1.00  0.00     0.231 C 
HETATM   18  N   UNL     1      -5.986   6.647 -32.697  1.00  0.00    -0.327 N 
HETATM   19  H   UNL     1      -6.022   7.594 -33.060  1.00  0.00     0.169 HD
HETATM   20  O   UNL     1      -8.184   6.943 -32.735  1.00  0.00    -0.272 OA
BRANCH  18  21
HETATM   21  C   UNL     1      -4.700   6.155 -32.417  1.00  0.00     0.034 A 
HETATM   22  C   UNL     1      -3.999   6.360 -31.234  1.00  0.00     0.032 A 
HETATM   23  C   UNL     1      -2.695   5.866 -31.088  1.00  0.00     0.039 A 
HETATM   24  C   UNL     1      -2.069   5.166 -32.118  1.00  0.00     0.068 A 
HETATM   25  C   UNL     1      -2.763   4.958 -33.305  1.00  0.00     0.039 A 
HETATM   26  C   UNL     1      -4.063   5.459 -33.454  1.00  0.00     0.032 A 
BRANCH  24  27
HETATM   27  O   UNL     1      -0.795   4.757 -31.844  1.00  0.00    -0.352 OA
BRANCH  27  28
HETATM   28  C   UNL     1       0.022   5.644 -31.080  1.00  0.00     0.171 C 
HETATM   29  C   UNL     1       0.724   4.829 -30.009  1.00  0.00     0.034 C 
ENDBRANCH  27  28
ENDBRANCH  24  27
ENDBRANCH  18  21
ENDBRANCH  16  17
ENDBRANCH  15  16
ENDBRANCH   1  15
BRANCH   2  30
HETATM   30  C   UNL     1      -8.553   0.877 -33.637  1.00  0.00     0.043 A 
HETATM   31  C   UNL     1      -8.155   0.331 -34.868  1.00  0.00     0.031 A 
HETATM   32  C   UNL     1      -7.092  -0.573 -34.931  1.00  0.00     0.021 A 
HETATM   33  C   UNL     1      -6.420  -0.932 -33.765  1.00  0.00     0.011 A 
HETATM   34 BR   UNL     1      -4.979  -2.151 -33.851  1.00  0.00    -0.051 Br
HETATM   35  C   UNL     1      -6.800  -0.397 -32.536  1.00  0.00     0.021 A 
HETATM   36  C   UNL     1      -7.861   0.509 -32.473  1.00  0.00     0.031 A 
ENDBRANCH   2  30
TORSDOF 7
ENDMDL
MODEL 10
REMARK VINA RESULT:      -7.6      4.135      8.948
REMARK  7 active torsions:
REMARK  status: ('A' for Active; 'I' for Inactive)
REMARK    1  A    between atoms: C_2  and  O_3 
REMARK    2  A    between atoms: O_3  and  C_4 
REMARK    3  A    between atoms: C_7  and  N_8 
REMARK       I    between atoms: N_8  and  C_9 
REMARK    4  A    between atoms: C_9  and  C_10 
REMARK    5  A    between atoms: C_10  and  S_11 
REMARK    6  A    between atoms: S_11  and  C_12 
REMARK    7  A    between atoms: N_13  and  C_14 
ROOT
HETATM    1  C   UNL     1      -3.225   4.604 -31.532  1.00  0.00     0.177 A 
HETATM    2  N   UNL     1      -3.620   5.801 -30.893  1.00  0.00    -0.276 N 
HETATM    3  C   UNL     1      -2.587   6.623 -30.309  1.00  0.00     0.124 A 
HETATM    4  N   UNL     1      -2.826   7.783 -29.726  1.00  0.00    -0.384 N 
HETATM    5  H   UNL     1      -2.074   8.341 -29.352  1.00  0.00     0.157 HD
HETATM    6  H   UNL     1      -3.770   8.143 -29.674  1.00  0.00     0.157 HD
HETATM    7  C   UNL     1      -1.250   6.136 -30.427  1.00  0.00     0.081 A 
HETATM    8  C   UNL     1      -1.029   4.961 -31.139  1.00  0.00     0.187 A 
HETATM    9  N   UNL     1       0.251   4.623 -31.177  1.00  0.00    -0.153 NA
HETATM   10  N   UNL     1       0.854   5.599 -30.474  1.00  0.00    -0.280 N 
HETATM   11  H   UNL     1       1.863   5.549 -30.361  1.00  0.00     0.189 HD
HETATM   12  C   UNL     1      -0.016   6.548 -29.979  1.00  0.00     0.042 A 
HETATM   13  C   UNL     1       0.458   7.679 -29.153  1.00  0.00     0.071 C 
HETATM   14  N   UNL     1      -2.013   4.169 -31.712  1.00  0.00    -0.202 NA
ENDROOT
BRANCH   1  15
HETATM   15  S   UNL     1      -4.487   3.509 -32.154  1.00  0.00    -0.082 SA
BRANCH  15  16
HETATM   16  C   UNL     1      -4.767   2.467 -30.689  1.00  0.00     0.185 C 
BRANCH  16  17
HETATM   17  C   UNL     1      -6.237   2.141 -30.564  1.00  0.00     0.231 C 
HETATM   18  N   UNL     1      -6.820   1.085 -31.197  1.00  0.00    -0.327 N 
HETATM   19  H   UNL     1      -7.757   0.937 -30.834  1.00  0.00     0.169 HD
HETATM   20  O   UNL     1      -6.952   2.807 -29.804  1.00  0.00    -0.272 OA
BRANCH  18  21
HETATM   21  C   UNL     1      -6.429   0.221 -32.232  1.00  0.00     0.034 A 
HETATM   22  C   UNL     1      -7.036   0.132 -33.481  1.00  0.00     0.032 A 
HETATM   23  C   UNL     1      -6.593  -0.810 -34.419  1.00  0.00     0.039 A 
HETATM   24  C   UNL     1      -5.544  -1.681 -34.127  1.00  0.00     0.068 A 
HETATM   25  C   UNL     1      -4.933  -1.600 -32.881  1.00  0.00     0.039 A 
HETATM   26  C   UNL     1      -5.381  -0.664 -31.940  1.00  0.00     0.032 A 
BRANCH  24  27
HETATM   27  O   UNL     1      -5.228  -2.556 -35.127  1.00  0.00    -0.352 OA
BRANCH  27  28
HETATM   28  C   UNL     1      -5.266  -3.947 -34.810  1.00  0.00     0.171 C 
HETATM   29  C   UNL     1      -6.664  -4.458 -35.110  1.00  0.00     0.034 C 
ENDBRANCH  27  28
ENDBRANCH  24  27
ENDBRANCH  18  21
ENDBRANCH  16  17
ENDBRANCH  15  16
ENDBRANCH   1  15
BRANCH   2  30
HETATM   30  C   UNL     1      -4.978   6.234 -30.881  1.00  0.00     0.043 A 
HETATM   31  C   UNL     1      -5.770   6.044 -29.737  1.00  0.00     0.031 A 
HETATM   32  C   UNL     1      -7.083   6.519 -29.699  1.00  0.00     0.021 A 
HETATM   33  C   UNL     1      -7.609   7.189 -30.802  1.00  0.00     0.011 A 
HETATM   34 BR   UNL     1      -9.383   7.836 -30.747  1.00  0.00    -0.051 Br
HETATM   35  C   UNL     1      -6.835   7.390 -31.943  1.00  0.00     0.021 A 
HETATM   36  C   UNL     1      -5.521   6.917 -31.981  1.00  0.00     0.031 A 
ENDBRANCH   2  30
TORSDOF 7
ENDMDL
