MODEL 1
REMARK VINA RESULT:      -8.1      0.000      0.000
REMARK  4 active torsions:
REMARK  status: ('A' for Active; 'I' for Inactive)
REMARK    1  A    between atoms: C_8  and  N_9 
REMARK       I    between atoms: N_9  and  C_10 
REMARK       I    between atoms: C_10  and  N_11 
REMARK    2  A    between atoms: N_11  and  C_12 
REMARK    3  A    between atoms: C_15  and  O_16 
REMARK    4  A    between atoms: O_16  and  C_17 
ROOT
HETATM    1  C   UNL     1      -7.559   1.150 -32.038  1.00  0.00     0.054 A 
HETATM    2  C   UNL     1      -7.115   0.158 -31.166  1.00  0.00     0.149 A 
HETATM    3  N   UNL     1      -5.867  -0.376 -31.189  1.00  0.00    -0.235 NA
HETATM    4  C   UNL     1      -5.013   0.100 -32.119  1.00  0.00     0.169 A 
HETATM    5  C   UNL     1      -5.351   1.093 -33.023  1.00  0.00     0.060 A 
HETATM    6  C   UNL     1      -6.641   1.623 -32.979  1.00  0.00     0.035 A 
ENDROOT
BRANCH   1   7
HETATM    7  N   UNL     1      -8.857   1.706 -32.052  1.00  0.00    -0.307 N 
HETATM    8  C   UNL     1      -9.896   1.363 -32.905  1.00  0.00     0.325 C 
HETATM    9  N   UNL     1     -11.014   2.131 -32.644  1.00  0.00    -0.305 N 
HETATM   10  O   UNL     1      -9.820   0.499 -33.766  1.00  0.00    -0.247 OA
HETATM   11  H   UNL     1     -11.066   2.576 -31.741  1.00  0.00     0.171 HD
HETATM   12  H   UNL     1      -9.008   2.503 -31.455  1.00  0.00     0.170 HD
BRANCH   9  13
HETATM   13  C   UNL     1     -12.174   2.191 -33.402  1.00  0.00     0.086 A 
HETATM   14  C   UNL     1     -12.596   3.368 -33.996  1.00  0.00     0.052 A 
HETATM   15  C   UNL     1     -12.044   4.742 -34.003  1.00  0.00     0.072 C 
HETATM   16  N   UNL     1     -13.750   3.060 -34.656  1.00  0.00    -0.280 N 
HETATM   17  H   UNL     1     -14.347   3.676 -35.198  1.00  0.00     0.189 HD
HETATM   18  N   UNL     1     -14.098   1.775 -34.566  1.00  0.00    -0.177 NA
HETATM   19  C   UNL     1     -13.140   1.222 -33.805  1.00  0.00     0.079 A 
HETATM   20  C   UNL     1     -13.214  -0.239 -33.548  1.00  0.00     0.075 C 
ENDBRANCH   9  13
ENDBRANCH   1   7
BRANCH   4  21
HETATM   21  O   UNL     1      -3.722  -0.409 -32.226  1.00  0.00    -0.292 OA
BRANCH  21  22
HETATM   22  C   UNL     1      -3.608  -1.728 -32.591  1.00  0.00     0.078 A 
HETATM   23  C   UNL     1      -2.979  -2.609 -31.709  1.00  0.00     0.040 A 
HETATM   24  C   UNL     1      -2.898  -3.964 -32.031  1.00  0.00     0.045 A 
HETATM   25  C   UNL     1      -3.458  -4.421 -33.220  1.00  0.00     0.116 A 
HETATM   26  F   UNL     1      -3.380  -5.723 -33.527  1.00  0.00    -0.206 F 
HETATM   27  C   UNL     1      -4.106  -3.550 -34.093  1.00  0.00     0.045 A 
HETATM   28  C   UNL     1      -4.191  -2.194 -33.773  1.00  0.00     0.040 A 
ENDBRANCH  21  22
ENDBRANCH   4  21
TORSDOF 4
ENDMDL
MODEL 2
REMARK VINA RESULT:      -8.1      2.131      2.426
REMARK  4 active torsions:
REMARK  status: ('A' for Active; 'I' for Inactive)
REMARK    1  A    between atoms: C_8  and  N_9 
REMARK       I    between atoms: N_9  and  C_10 
REMARK       I    between atoms: C_10  and  N_11 
REMARK    2  A    between atoms: N_11  and  C_12 
REMARK    3  A    between atoms: C_15  and  O_16 
REMARK    4  A    between atoms: O_16  and  C_17 
ROOT
HETATM    1  C   UNL     1      -8.856   0.638 -33.877  1.00  0.00     0.054 A 
HETATM    2  C   UNL     1      -8.485  -0.489 -33.148  1.00  0.00     0.149 A 
HETATM    3  N   UNL     1      -7.458  -1.312 -33.484  1.00  0.00    -0.235 NA
HETATM    4  C   UNL     1      -6.759  -0.998 -34.595  1.00  0.00     0.169 A 
HETATM    5  C   UNL     1      -7.039   0.107 -35.382  1.00  0.00     0.060 A 
HETATM    6  C   UNL     1      -8.101   0.934 -35.015  1.00  0.00     0.035 A 
ENDROOT
BRANCH   1   7
HETATM    7  N   UNL     1      -9.933   1.497 -33.565  1.00  0.00    -0.307 N 
HETATM    8  C   UNL     1     -11.222   1.117 -33.218  1.00  0.00     0.325 C 
HETATM    9  N   UNL     1     -12.015   2.228 -33.003  1.00  0.00    -0.305 N 
HETATM   10  O   UNL     1     -11.593  -0.043 -33.120  1.00  0.00    -0.247 OA
HETATM   11  H   UNL     1     -11.546   3.098 -32.810  1.00  0.00     0.171 HD
HETATM   12  H   UNL     1      -9.777   2.481 -33.713  1.00  0.00     0.170 HD
BRANCH   9  13
HETATM   13  C   UNL     1     -13.389   2.240 -32.813  1.00  0.00     0.086 A 
HETATM   14  C   UNL     1     -13.987   3.062 -31.875  1.00  0.00     0.052 A 
HETATM   15  C   UNL     1     -13.442   4.037 -30.902  1.00  0.00     0.072 C 
HETATM   16  N   UNL     1     -15.328   2.819 -31.965  1.00  0.00    -0.280 N 
HETATM   17  H   UNL     1     -16.078   3.232 -31.423  1.00  0.00     0.189 HD
HETATM   18  N   UNL     1     -15.653   1.928 -32.904  1.00  0.00    -0.177 NA
HETATM   19  C   UNL     1     -14.478   1.564 -33.441  1.00  0.00     0.079 A 
HETATM   20  C   UNL     1     -14.499   0.597 -34.568  1.00  0.00     0.075 C 
ENDBRANCH   9  13
ENDBRANCH   1   7
BRANCH   4  21
HETATM   21  O   UNL     1      -5.706  -1.801 -35.023  1.00  0.00    -0.292 OA
BRANCH  21  22
HETATM   22  C   UNL     1      -4.872  -2.294 -34.049  1.00  0.00     0.078 A 
HETATM   23  C   UNL     1      -4.486  -3.633 -34.121  1.00  0.00     0.040 A 
HETATM   24  C   UNL     1      -3.597  -4.145 -33.175  1.00  0.00     0.045 A 
HETATM   25  C   UNL     1      -3.096  -3.309 -32.182  1.00  0.00     0.116 A 
HETATM   26  F   UNL     1      -2.242  -3.802 -31.275  1.00  0.00    -0.206 F 
HETATM   27  C   UNL     1      -3.461  -1.966 -32.118  1.00  0.00     0.045 A 
HETATM   28  C   UNL     1      -4.348  -1.451 -33.064  1.00  0.00     0.040 A 
ENDBRANCH  21  22
ENDBRANCH   4  21
TORSDOF 4
ENDMDL
MODEL 3
REMARK VINA RESULT:      -7.9      1.510      1.874
REMARK  4 active torsions:
REMARK  status: ('A' for Active; 'I' for Inactive)
REMARK    1  A    between atoms: C_8  and  N_9 
REMARK       I    between atoms: N_9  and  C_10 
REMARK       I    between atoms: C_10  and  N_11 
REMARK    2  A    between atoms: N_11  and  C_12 
REMARK    3  A    between atoms: C_15  and  O_16 
REMARK    4  A    between atoms: O_16  and  C_17 
ROOT
HETATM    1  C   UNL     1      -8.324   0.730 -32.601  1.00  0.00     0.054 A 
HETATM    2  C   UNL     1      -7.494   0.469 -31.514  1.00  0.00     0.149 A 
HETATM    3  N   UNL     1      -6.179   0.143 -31.617  1.00  0.00    -0.235 NA
HETATM    4  C   UNL     1      -5.660   0.077 -32.861  1.00  0.00     0.169 A 
HETATM    5  C   UNL     1      -6.396   0.331 -34.006  1.00  0.00     0.060 A 
HETATM    6  C   UNL     1      -7.745   0.662 -33.871  1.00  0.00     0.035 A 
ENDROOT
BRANCH   1   7
HETATM    7  N   UNL     1      -9.697   1.048 -32.524  1.00  0.00    -0.307 N 
HETATM    8  C   UNL     1     -10.297   2.234 -32.923  1.00  0.00     0.325 C 
HETATM    9  N   UNL     1     -11.656   2.199 -32.677  1.00  0.00    -0.305 N 
HETATM   10  O   UNL     1      -9.695   3.174 -33.422  1.00  0.00    -0.247 OA
HETATM   11  H   UNL     1     -12.079   1.292 -32.560  1.00  0.00     0.171 HD
HETATM   12  H   UNL     1     -10.282   0.390 -32.033  1.00  0.00     0.170 HD
BRANCH   9  13
HETATM   13  C   UNL     1     -12.545   3.259 -32.782  1.00  0.00     0.086 A 
HETATM   14  C   UNL     1     -13.023   3.689 -34.008  1.00  0.00     0.052 A 
HETATM   15  C   UNL     1     -12.772   3.241 -35.396  1.00  0.00     0.072 C 
HETATM   16  N   UNL     1     -13.864   4.730 -33.736  1.00  0.00    -0.280 N 
HETATM   17  H   UNL     1     -14.390   5.299 -34.390  1.00  0.00     0.189 HD
HETATM   18  N   UNL     1     -13.995   4.993 -32.434  1.00  0.00    -0.177 NA
HETATM   19  C   UNL     1     -13.198   4.098 -31.830  1.00  0.00     0.079 A 
HETATM   20  C   UNL     1     -13.153   4.097 -30.346  1.00  0.00     0.075 C 
ENDBRANCH   9  13
ENDBRANCH   1   7
BRANCH   4  21
HETATM   21  O   UNL     1      -4.327  -0.273 -33.058  1.00  0.00    -0.292 OA
BRANCH  21  22
HETATM   22  C   UNL     1      -4.050  -1.616 -33.147  1.00  0.00     0.078 A 
HETATM   23  C   UNL     1      -3.376  -2.226 -32.088  1.00  0.00     0.040 A 
HETATM   24  C   UNL     1      -3.129  -3.598 -32.129  1.00  0.00     0.045 A 
HETATM   25  C   UNL     1      -3.572  -4.342 -33.219  1.00  0.00     0.116 A 
HETATM   26  F   UNL     1      -3.335  -5.661 -33.255  1.00  0.00    -0.206 F 
HETATM   27  C   UNL     1      -4.264  -3.742 -34.267  1.00  0.00     0.045 A 
HETATM   28  C   UNL     1      -4.514  -2.370 -34.228  1.00  0.00     0.040 A 
ENDBRANCH  21  22
ENDBRANCH   4  21
TORSDOF 4
ENDMDL
MODEL 4
REMARK VINA RESULT:      -7.9      4.821      8.067
REMARK  4 active torsions:
REMARK  status: ('A' for Active; 'I' for Inactive)
REMARK    1  A    between atoms: C_8  and  N_9 
REMARK       I    between atoms: N_9  and  C_10 
REMARK       I    between atoms: C_10  and  N_11 
REMARK    2  A    between atoms: N_11  and  C_12 
REMARK    3  A    between atoms: C_15  and  O_16 
REMARK    4  A    between atoms: O_16  and  C_17 
ROOT
HETATM    1  C   UNL     1      -4.623   2.090 -31.697  1.00  0.00     0.054 A 
HETATM    2  C   UNL     1      -4.777   0.804 -31.185  1.00  0.00     0.149 A 
HETATM    3  N   UNL     1      -5.525  -0.167 -31.770  1.00  0.00    -0.235 NA
HETATM    4  C   UNL     1      -6.149   0.151 -32.924  1.00  0.00     0.169 A 
HETATM    5  C   UNL     1      -6.051   1.397 -33.521  1.00  0.00     0.060 A 
HETATM    6  C   UNL     1      -5.277   2.377 -32.898  1.00  0.00     0.035 A 
ENDROOT
BRANCH   1   7
HETATM    7  N   UNL     1      -3.871   3.124 -31.098  1.00  0.00    -0.307 N 
HETATM    8  C   UNL     1      -2.898   3.902 -31.710  1.00  0.00     0.325 C 
HETATM    9  N   UNL     1      -2.358   4.801 -30.810  1.00  0.00    -0.305 N 
HETATM   10  O   UNL     1      -2.573   3.798 -32.883  1.00  0.00    -0.247 OA
HETATM   11  H   UNL     1      -2.898   5.008 -29.985  1.00  0.00     0.171 HD
HETATM   12  H   UNL     1      -3.977   3.235 -30.102  1.00  0.00     0.170 HD
BRANCH   9  13
HETATM   13  C   UNL     1      -1.250   5.612 -31.013  1.00  0.00     0.086 A 
HETATM   14  C   UNL     1      -1.325   6.770 -31.767  1.00  0.00     0.052 A 
HETATM   15  C   UNL     1      -2.434   7.418 -32.504  1.00  0.00     0.072 C 
HETATM   16  N   UNL     1      -0.071   7.308 -31.750  1.00  0.00    -0.280 N 
HETATM   17  H   UNL     1       0.256   8.154 -32.204  1.00  0.00     0.189 HD
HETATM   18  N   UNL     1       0.806   6.612 -31.025  1.00  0.00    -0.177 NA
HETATM   19  C   UNL     1       0.101   5.569 -30.558  1.00  0.00     0.079 A 
HETATM   20  C   UNL     1       0.793   4.609 -29.660  1.00  0.00     0.075 C 
ENDBRANCH   9  13
ENDBRANCH   1   7
BRANCH   4  21
HETATM   21  O   UNL     1      -6.955  -0.777 -33.576  1.00  0.00    -0.292 OA
BRANCH  21  22
HETATM   22  C   UNL     1      -6.369  -1.973 -33.912  1.00  0.00     0.078 A 
HETATM   23  C   UNL     1      -7.192  -3.024 -34.319  1.00  0.00     0.040 A 
HETATM   24  C   UNL     1      -6.619  -4.232 -34.717  1.00  0.00     0.045 A 
HETATM   25  C   UNL     1      -5.234  -4.367 -34.716  1.00  0.00     0.116 A 
HETATM   26  F   UNL     1      -4.686  -5.528 -35.099  1.00  0.00    -0.206 F 
HETATM   27  C   UNL     1      -4.407  -3.315 -34.331  1.00  0.00     0.045 A 
HETATM   28  C   UNL     1      -4.977  -2.104 -33.935  1.00  0.00     0.040 A 
ENDBRANCH  21  22
ENDBRANCH   4  21
TORSDOF 4
ENDMDL
MODEL 5
REMARK VINA RESULT:      -7.8      2.122      3.094
REMARK  4 active torsions:
REMARK  status: ('A' for Active; 'I' for Inactive)
REMARK    1  A    between atoms: C_8  and  N_9 
REMARK       I    between atoms: N_9  and  C_10 
REMARK       I    between atoms: C_10  and  N_11 
REMARK    2  A    between atoms: N_11  and  C_12 
REMARK    3  A    between atoms: C_15  and  O_16 
REMARK    4  A    between atoms: O_16  and  C_17 
ROOT
HETATM    1  C   UNL     1      -9.024   1.301 -33.027  1.00  0.00     0.054 A 
HETATM    2  C   UNL     1      -7.938   1.996 -33.554  1.00  0.00     0.149 A 
HETATM    3  N   UNL     1      -6.856   1.406 -34.123  1.00  0.00    -0.235 NA
HETATM    4  C   UNL     1      -6.851   0.057 -34.177  1.00  0.00     0.169 A 
HETATM    5  C   UNL     1      -7.885  -0.727 -33.692  1.00  0.00     0.060 A 
HETATM    6  C   UNL     1      -8.985  -0.094 -33.111  1.00  0.00     0.035 A 
ENDROOT
BRANCH   1   7
HETATM    7  N   UNL     1     -10.150   1.887 -32.410  1.00  0.00    -0.307 N 
HETATM    8  C   UNL     1     -11.189   2.554 -33.044  1.00  0.00     0.325 C 
HETATM    9  N   UNL     1     -12.107   3.015 -32.119  1.00  0.00    -0.305 N 
HETATM   10  O   UNL     1     -11.270   2.706 -34.253  1.00  0.00    -0.247 OA
HETATM   11  H   UNL     1     -12.105   2.578 -31.211  1.00  0.00     0.171 HD
HETATM   12  H   UNL     1     -10.143   1.917 -31.402  1.00  0.00     0.170 HD
BRANCH   9  13
HETATM   13  C   UNL     1     -13.173   3.867 -32.365  1.00  0.00     0.086 A 
HETATM   14  C   UNL     1     -14.481   3.413 -32.374  1.00  0.00     0.052 A 
HETATM   15  C   UNL     1     -15.080   2.074 -32.171  1.00  0.00     0.072 C 
HETATM   16  N   UNL     1     -15.254   4.507 -32.640  1.00  0.00    -0.280 N 
HETATM   17  H   UNL     1     -16.262   4.555 -32.733  1.00  0.00     0.189 HD
HETATM   18  N   UNL     1     -14.560   5.639 -32.776  1.00  0.00    -0.177 NA
HETATM   19  C   UNL     1     -13.281   5.270 -32.605  1.00  0.00     0.079 A 
HETATM   20  C   UNL     1     -12.240   6.328 -32.652  1.00  0.00     0.075 C 
ENDBRANCH   9  13
ENDBRANCH   1   7
BRANCH   4  21
HETATM   21  O   UNL     1      -5.769  -0.629 -34.722  1.00  0.00    -0.292 OA
BRANCH  21  22
HETATM   22  C   UNL     1      -4.991  -1.347 -33.847  1.00  0.00     0.078 A 
HETATM   23  C   UNL     1      -4.691  -2.674 -34.160  1.00  0.00     0.040 A 
HETATM   24  C   UNL     1      -3.859  -3.409 -33.316  1.00  0.00     0.045 A 
HETATM   25  C   UNL     1      -3.327  -2.804 -32.181  1.00  0.00     0.116 A 
HETATM   26  F   UNL     1      -2.527  -3.512 -31.372  1.00  0.00    -0.206 F 
HETATM   27  C   UNL     1      -3.605  -1.475 -31.875  1.00  0.00     0.045 A 
HETATM   28  C   UNL     1      -4.436  -0.736 -32.719  1.00  0.00     0.040 A 
ENDBRANCH  21  22
ENDBRANCH   4  21
TORSDOF 4
ENDMDL
MODEL 6
REMARK VINA RESULT:      -7.7      5.316      8.386
REMARK  4 active torsions:
REMARK  status: ('A' for Active; 'I' for Inactive)
REMARK    1  A    between atoms: C_8  and  N_9 
REMARK       I    between atoms: N_9  and  C_10 
REMARK       I    between atoms: C_10  and  N_11 
REMARK    2  A    between atoms: N_11  and  C_12 
REMARK    3  A    between atoms: C_15  and  O_16 
REMARK    4  A    between atoms: O_16  and  C_17 
ROOT
HETATM    1  C   UNL     1      -5.067   3.418 -31.454  1.00  0.00     0.054 A 
HETATM    2  C   UNL     1      -5.414   3.117 -32.769  1.00  0.00     0.149 A 
HETATM    3  N   UNL     1      -6.076   1.993 -33.146  1.00  0.00    -0.235 NA
HETATM    4  C   UNL     1      -6.416   1.125 -32.170  1.00  0.00     0.169 A 
HETATM    5  C   UNL     1      -6.129   1.336 -30.831  1.00  0.00     0.060 A 
HETATM    6  C   UNL     1      -5.447   2.499 -30.472  1.00  0.00     0.035 A 
ENDROOT
BRANCH   1   7
HETATM    7  N   UNL     1      -4.359   4.566 -31.037  1.00  0.00    -0.307 N 
HETATM    8  C   UNL     1      -2.990   4.773 -31.126  1.00  0.00     0.325 C 
HETATM    9  N   UNL     1      -2.649   6.004 -30.598  1.00  0.00    -0.305 N 
HETATM   10  O   UNL     1      -2.204   3.970 -31.605  1.00  0.00    -0.247 OA
HETATM   11  H   UNL     1      -3.382   6.691 -30.521  1.00  0.00     0.171 HD
HETATM   12  H   UNL     1      -4.888   5.258 -30.529  1.00  0.00     0.170 HD
BRANCH   9  13
HETATM   13  C   UNL     1      -1.367   6.476 -30.358  1.00  0.00     0.086 A 
HETATM   14  C   UNL     1      -0.543   6.902 -31.385  1.00  0.00     0.052 A 
HETATM   15  C   UNL     1      -0.724   6.970 -32.853  1.00  0.00     0.072 C 
HETATM   16  N   UNL     1       0.621   7.296 -30.791  1.00  0.00    -0.280 N 
HETATM   17  H   UNL     1       1.460   7.658 -31.232  1.00  0.00     0.189 HD
HETATM   18  N   UNL     1       0.612   7.189 -29.461  1.00  0.00    -0.177 NA
HETATM   19  C   UNL     1      -0.601   6.693 -29.173  1.00  0.00     0.079 A 
HETATM   20  C   UNL     1      -0.949   6.495 -27.743  1.00  0.00     0.075 C 
ENDBRANCH   9  13
ENDBRANCH   1   7
BRANCH   4  21
HETATM   21  O   UNL     1      -7.076  -0.063 -32.472  1.00  0.00    -0.292 OA
BRANCH  21  22
HETATM   22  C   UNL     1      -6.345  -1.024 -33.127  1.00  0.00     0.078 A 
HETATM   23  C   UNL     1      -5.005  -1.194 -32.775  1.00  0.00     0.040 A 
HETATM   24  C   UNL     1      -4.255  -2.198 -33.387  1.00  0.00     0.045 A 
HETATM   25  C   UNL     1      -4.857  -3.026 -34.329  1.00  0.00     0.116 A 
HETATM   26  F   UNL     1      -4.135  -3.991 -34.915  1.00  0.00    -0.206 F 
HETATM   27  C   UNL     1      -6.199  -2.875 -34.668  1.00  0.00     0.045 A 
HETATM   28  C   UNL     1      -6.953  -1.873 -34.056  1.00  0.00     0.040 A 
ENDBRANCH  21  22
ENDBRANCH   4  21
TORSDOF 4
ENDMDL
MODEL 7
REMARK VINA RESULT:      -7.7      5.878      7.178
REMARK  4 active torsions:
REMARK  status: ('A' for Active; 'I' for Inactive)
REMARK    1  A    between atoms: C_8  and  N_9 
REMARK       I    between atoms: N_9  and  C_10 
REMARK       I    between atoms: C_10  and  N_11 
REMARK    2  A    between atoms: N_11  and  C_12 
REMARK    3  A    between atoms: C_15  and  O_16 
REMARK    4  A    between atoms: O_16  and  C_17 
ROOT
HETATM    1  C   UNL     1      -5.100   5.399 -33.755  1.00  0.00     0.054 A 
HETATM    2  C   UNL     1      -4.784   6.215 -32.672  1.00  0.00     0.149 A 
HETATM    3  N   UNL     1      -3.551   6.735 -32.442  1.00  0.00    -0.235 NA
HETATM    4  C   UNL     1      -2.583   6.436 -33.333  1.00  0.00     0.169 A 
HETATM    5  C   UNL     1      -2.796   5.644 -34.449  1.00  0.00     0.060 A 
HETATM    6  C   UNL     1      -4.073   5.120 -34.661  1.00  0.00     0.035 A 
ENDROOT
BRANCH   1   7
HETATM    7  N   UNL     1      -6.366   4.825 -34.006  1.00  0.00    -0.307 N 
HETATM    8  C   UNL     1      -6.939   3.756 -33.333  1.00  0.00     0.325 C 
HETATM    9  N   UNL     1      -8.178   3.454 -33.865  1.00  0.00    -0.305 N 
HETATM   10  O   UNL     1      -6.411   3.169 -32.400  1.00  0.00    -0.247 OA
HETATM   11  H   UNL     1      -8.636   4.173 -34.403  1.00  0.00     0.171 HD
HETATM   12  H   UNL     1      -6.854   5.158 -34.823  1.00  0.00     0.170 HD
BRANCH   9  13
HETATM   13  C   UNL     1      -8.960   2.347 -33.568  1.00  0.00     0.086 A 
HETATM   14  C   UNL     1     -10.061   2.437 -32.735  1.00  0.00     0.052 A 
HETATM   15  C   UNL     1     -10.666   3.564 -31.989  1.00  0.00     0.072 C 
HETATM   16  N   UNL     1     -10.585   1.177 -32.672  1.00  0.00    -0.280 N 
HETATM   17  H   UNL     1     -11.393   0.859 -32.147  1.00  0.00     0.189 HD
HETATM   18  N   UNL     1      -9.934   0.283 -33.417  1.00  0.00    -0.177 NA
HETATM   19  C   UNL     1      -8.935   0.981 -33.981  1.00  0.00     0.079 A 
HETATM   20  C   UNL     1      -8.035   0.269 -34.923  1.00  0.00     0.075 C 
ENDBRANCH   9  13
ENDBRANCH   1   7
BRANCH   4  21
HETATM   21  O   UNL     1      -1.285   6.909 -33.160  1.00  0.00    -0.292 OA
BRANCH  21  22
HETATM   22  C   UNL     1      -0.666   6.590 -31.976  1.00  0.00     0.078 A 
HETATM   23  C   UNL     1      -0.569   7.576 -30.992  1.00  0.00     0.040 A 
HETATM   24  C   UNL     1       0.007   7.264 -29.760  1.00  0.00     0.045 A 
HETATM   25  C   UNL     1       0.462   5.970 -29.524  1.00  0.00     0.116 A 
HETATM   26  F   UNL     1       1.013   5.672 -28.340  1.00  0.00    -0.206 F 
HETATM   27  C   UNL     1       0.347   4.977 -30.494  1.00  0.00     0.045 A 
HETATM   28  C   UNL     1      -0.230   5.286 -31.727  1.00  0.00     0.040 A 
ENDBRANCH  21  22
ENDBRANCH   4  21
TORSDOF 4
ENDMDL
MODEL 8
REMARK VINA RESULT:      -7.6      1.117      2.106
REMARK  4 active torsions:
REMARK  status: ('A' for Active; 'I' for Inactive)
REMARK    1  A    between atoms: C_8  and  N_9 
REMARK       I    between atoms: N_9  and  C_10 
REMARK       I    between atoms: C_10  and  N_11 
REMARK    2  A    between atoms: N_11  and  C_12 
REMARK    3  A    between atoms: C_15  and  O_16 
REMARK    4  A    between atoms: O_16  and  C_17 
ROOT
HETATM    1  C   UNL     1      -7.188   1.752 -32.126  1.00  0.00     0.054 A 
HETATM    2  C   UNL     1      -7.186   0.487 -31.542  1.00  0.00     0.149 A 
HETATM    3  N   UNL     1      -6.089  -0.306 -31.442  1.00  0.00    -0.235 NA
HETATM    4  C   UNL     1      -4.932   0.180 -31.940  1.00  0.00     0.169 A 
HETATM    5  C   UNL     1      -4.825   1.430 -32.528  1.00  0.00     0.060 A 
HETATM    6  C   UNL     1      -5.969   2.224 -32.620  1.00  0.00     0.035 A 
ENDROOT
BRANCH   1   7
HETATM    7  N   UNL     1      -8.317   2.587 -32.265  1.00  0.00    -0.307 N 
HETATM    8  C   UNL     1      -9.253   2.552 -33.289  1.00  0.00     0.325 C 
HETATM    9  N   UNL     1     -10.209   3.533 -33.108  1.00  0.00    -0.305 N 
HETATM   10  O   UNL     1      -9.224   1.759 -34.218  1.00  0.00    -0.247 OA
HETATM   11  H   UNL     1     -10.311   3.911 -32.180  1.00  0.00     0.171 HD
HETATM   12  H   UNL     1      -8.390   3.353 -31.613  1.00  0.00     0.170 HD
BRANCH   9  13
HETATM   13  C   UNL     1     -11.191   3.910 -34.013  1.00  0.00     0.086 A 
HETATM   14  C   UNL     1     -12.409   3.256 -34.080  1.00  0.00     0.052 A 
HETATM   15  C   UNL     1     -12.973   2.107 -33.335  1.00  0.00     0.072 C 
HETATM   16  N   UNL     1     -13.117   3.885 -35.063  1.00  0.00    -0.280 N 
HETATM   17  H   UNL     1     -14.050   3.673 -35.398  1.00  0.00     0.189 HD
HETATM   18  N   UNL     1     -12.473   4.912 -35.620  1.00  0.00    -0.177 NA
HETATM   19  C   UNL     1     -11.290   4.949 -34.987  1.00  0.00     0.079 A 
HETATM   20  C   UNL     1     -10.339   6.029 -35.353  1.00  0.00     0.075 C 
ENDBRANCH   9  13
ENDBRANCH   1   7
BRANCH   4  21
HETATM   21  O   UNL     1      -3.765  -0.577 -31.898  1.00  0.00    -0.292 OA
BRANCH  21  22
HETATM   22  C   UNL     1      -3.782  -1.771 -32.577  1.00  0.00     0.078 A 
HETATM   23  C   UNL     1      -3.194  -2.885 -31.976  1.00  0.00     0.040 A 
HETATM   24  C   UNL     1      -3.244  -4.121 -32.619  1.00  0.00     0.045 A 
HETATM   25  C   UNL     1      -3.892  -4.230 -33.846  1.00  0.00     0.116 A 
HETATM   26  F   UNL     1      -3.940  -5.419 -34.462  1.00  0.00    -0.206 F 
HETATM   27  C   UNL     1      -4.499  -3.127 -34.440  1.00  0.00     0.045 A 
HETATM   28  C   UNL     1      -4.453  -1.889 -33.798  1.00  0.00     0.040 A 
ENDBRANCH  21  22
ENDBRANCH   4  21
TORSDOF 4
ENDMDL
MODEL 9
REMARK VINA RESULT:      -7.5      3.962      5.131
REMARK  4 active torsions:
REMARK  status: ('A' for Active; 'I' for Inactive)
REMARK    1  A    between atoms: C_8  and  N_9 
REMARK       I    between atoms: N_9  and  C_10 
REMARK       I    between atoms: C_10  and  N_11 
REMARK    2  A    between atoms: N_11  and  C_12 
REMARK    3  A    between atoms: C_15  and  O_16 
REMARK    4  A    between atoms: O_16  and  C_17 
ROOT
HETATM    1  C   UNL     1      -7.298   2.300 -32.024  1.00  0.00     0.054 A 
HETATM    2  C   UNL     1      -6.648   3.483 -31.678  1.00  0.00     0.149 A 
HETATM    3  N   UNL     1      -5.300   3.644 -31.682  1.00  0.00    -0.235 NA
HETATM    4  C   UNL     1      -4.557   2.580 -32.051  1.00  0.00     0.169 A 
HETATM    5  C   UNL     1      -5.104   1.363 -32.425  1.00  0.00     0.060 A 
HETATM    6  C   UNL     1      -6.493   1.225 -32.411  1.00  0.00     0.035 A 
ENDROOT
BRANCH   1   7
HETATM    7  N   UNL     1      -8.695   2.098 -32.006  1.00  0.00    -0.307 N 
HETATM    8  C   UNL     1      -9.535   2.024 -33.108  1.00  0.00     0.325 C 
HETATM    9  N   UNL     1     -10.845   1.842 -32.709  1.00  0.00    -0.305 N 
HETATM   10  O   UNL     1      -9.157   2.110 -34.267  1.00  0.00    -0.247 OA
HETATM   11  H   UNL     1     -10.998   1.483 -31.780  1.00  0.00     0.171 HD
HETATM   12  H   UNL     1      -9.138   2.117 -31.101  1.00  0.00     0.170 HD
BRANCH   9  13
HETATM   13  C   UNL     1     -11.973   1.898 -33.516  1.00  0.00     0.086 A 
HETATM   14  C   UNL     1     -12.355   3.065 -34.153  1.00  0.00     0.052 A 
HETATM   15  C   UNL     1     -11.787   4.433 -34.168  1.00  0.00     0.072 C 
HETATM   16  N   UNL     1     -13.485   2.755 -34.853  1.00  0.00    -0.280 N 
HETATM   17  H   UNL     1     -14.052   3.365 -35.433  1.00  0.00     0.189 HD
HETATM   18  N   UNL     1     -13.852   1.477 -34.748  1.00  0.00    -0.177 NA
HETATM   19  C   UNL     1     -12.934   0.930 -33.937  1.00  0.00     0.079 A 
HETATM   20  C   UNL     1     -13.036  -0.523 -33.650  1.00  0.00     0.075 C 
ENDBRANCH   9  13
ENDBRANCH   1   7
BRANCH   4  21
HETATM   21  O   UNL     1      -3.167   2.651 -32.060  1.00  0.00    -0.292 OA
BRANCH  21  22
HETATM   22  C   UNL     1      -2.614   3.844 -32.458  1.00  0.00     0.078 A 
HETATM   23  C   UNL     1      -1.924   4.604 -31.512  1.00  0.00     0.040 A 
HETATM   24  C   UNL     1      -1.308   5.793 -31.901  1.00  0.00     0.045 A 
HETATM   25  C   UNL     1      -1.376   6.198 -33.231  1.00  0.00     0.116 A 
HETATM   26  F   UNL     1      -0.782   7.339 -33.604  1.00  0.00    -0.206 F 
HETATM   27  C   UNL     1      -2.044   5.432 -34.184  1.00  0.00     0.045 A 
HETATM   28  C   UNL     1      -2.660   4.241 -33.797  1.00  0.00     0.040 A 
ENDBRANCH  21  22
ENDBRANCH   4  21
TORSDOF 4
ENDMDL
MODEL 10
REMARK VINA RESULT:      -7.5      4.045      6.507
REMARK  4 active torsions:
REMARK  status: ('A' for Active; 'I' for Inactive)
REMARK    1  A    between atoms: C_8  and  N_9 
REMARK       I    between atoms: N_9  and  C_10 
REMARK       I    between atoms: C_10  and  N_11 
REMARK    2  A    between atoms: N_11  and  C_12 
REMARK    3  A    between atoms: C_15  and  O_16 
REMARK    4  A    between atoms: O_16  and  C_17 
ROOT
HETATM    1  C   UNL     1      -6.792   2.126 -32.799  1.00  0.00     0.054 A 
HETATM    2  C   UNL     1      -7.166   0.955 -32.146  1.00  0.00     0.149 A 
HETATM    3  N   UNL     1      -7.352  -0.240 -32.765  1.00  0.00    -0.235 NA
HETATM    4  C   UNL     1      -7.153  -0.277 -34.099  1.00  0.00     0.169 A 
HETATM    5  C   UNL     1      -6.769   0.829 -34.841  1.00  0.00     0.060 A 
HETATM    6  C   UNL     1      -6.587   2.044 -34.179  1.00  0.00     0.035 A 
ENDROOT
BRANCH   1   7
HETATM    7  N   UNL     1      -6.615   3.385 -32.185  1.00  0.00    -0.307 N 
HETATM    8  C   UNL     1      -5.479   3.833 -31.527  1.00  0.00     0.325 C 
HETATM    9  N   UNL     1      -5.675   5.108 -31.032  1.00  0.00    -0.305 N 
HETATM   10  O   UNL     1      -4.453   3.181 -31.406  1.00  0.00    -0.247 OA
HETATM   11  H   UNL     1      -6.416   5.654 -31.444  1.00  0.00     0.171 HD
HETATM   12  H   UNL     1      -7.432   3.974 -32.129  1.00  0.00     0.170 HD
BRANCH   9  13
HETATM   13  C   UNL     1      -4.833   5.803 -30.176  1.00  0.00     0.086 A 
HETATM   14  C   UNL     1      -5.151   6.002 -28.844  1.00  0.00     0.052 A 
HETATM   15  C   UNL     1      -6.320   5.614 -28.023  1.00  0.00     0.072 C 
HETATM   16  N   UNL     1      -4.109   6.708 -28.313  1.00  0.00    -0.280 N 
HETATM   17  H   UNL     1      -3.998   7.043 -27.362  1.00  0.00     0.189 HD
HETATM   18  N   UNL     1      -3.128   6.959 -29.181  1.00  0.00    -0.177 NA
HETATM   19  C   UNL     1      -3.549   6.407 -30.330  1.00  0.00     0.079 A 
HETATM   20  C   UNL     1      -2.644   6.476 -31.506  1.00  0.00     0.075 C 
ENDBRANCH   9  13
ENDBRANCH   1   7
BRANCH   4  21
HETATM   21  O   UNL     1      -7.344  -1.455 -34.815  1.00  0.00    -0.292 OA
BRANCH  21  22
HETATM   22  C   UNL     1      -6.388  -2.429 -34.664  1.00  0.00     0.078 A 
HETATM   23  C   UNL     1      -5.142  -2.063 -34.153  1.00  0.00     0.040 A 
HETATM   24  C   UNL     1      -4.172  -3.042 -33.940  1.00  0.00     0.045 A 
HETATM   25  C   UNL     1      -4.464  -4.372 -34.226  1.00  0.00     0.116 A 
HETATM   26  F   UNL     1      -3.531  -5.311 -34.019  1.00  0.00    -0.206 F 
HETATM   27  C   UNL     1      -5.713  -4.746 -34.716  1.00  0.00     0.045 A 
HETATM   28  C   UNL     1      -6.687  -3.769 -34.928  1.00  0.00     0.040 A 
ENDBRANCH  21  22
ENDBRANCH   4  21
TORSDOF 4
ENDMDL
