MODEL 1
REMARK VINA RESULT:      -9.3      0.000      0.000
REMARK  5 active torsions:
REMARK  status: ('A' for Active; 'I' for Inactive)
REMARK    1  A    between atoms: C_6  and  C_7 
REMARK    2  A    between atoms: C_7  and  C_8 
REMARK       I    between atoms: C_8  and  N_9 
REMARK    3  A    between atoms: N_9  and  N_10 
REMARK       I    between atoms: N_10  and  C_11 
REMARK    4  A    between atoms: C_11  and  C_12 
REMARK    5  A    between atoms: C_12  and  C_13 
ROOT
HETATM    1  C   UNL     1      -3.202   3.157 -32.206  1.00  0.00     0.243 C 
HETATM    2  N   UNL     1      -2.834   4.008 -33.224  1.00  0.00    -0.267 N 
HETATM    3  O   UNL     1      -2.496   2.961 -31.216  1.00  0.00    -0.271 OA
HETATM    4  H   UNL     1      -3.469   4.266 -33.984  1.00  0.00     0.190 HD
ENDROOT
BRANCH   1   5
HETATM    5  C   UNL     1      -4.570   2.540 -32.348  1.00  0.00     0.183 C 
BRANCH   5   6
HETATM    6  C   UNL     1      -4.556   1.089 -32.740  1.00  0.00     0.116 A 
HETATM    7  N   UNL     1      -5.498   0.611 -33.494  1.00  0.00    -0.227 NA
HETATM    8  C   UNL     1      -5.388  -0.715 -33.769  1.00  0.00     0.116 A 
HETATM    9  C   UNL     1      -4.415  -1.579 -33.312  1.00  0.00     0.075 A 
HETATM   10  S   UNL     1      -6.508  -1.506 -34.773  1.00  0.00    -0.074 SA
HETATM   11  C   UNL     1      -4.595  -2.928 -33.783  1.00  0.00    -0.031 A 
HETATM   12  C   UNL     1      -3.390  -1.021 -32.451  1.00  0.00     0.260 A 
HETATM   13  C   UNL     1      -3.700  -4.072 -33.428  1.00  0.00     0.050 C 
HETATM   14  C   UNL     1      -5.719  -3.015 -34.596  1.00  0.00    -0.012 A 
HETATM   15  C   UNL     1      -6.272  -4.217 -35.289  1.00  0.00     0.057 C 
HETATM   16  N   UNL     1      -3.522   0.333 -32.231  1.00  0.00    -0.310 N 
HETATM   17  O   UNL     1      -2.479  -1.667 -31.942  1.00  0.00    -0.267 OA
HETATM   18  H   UNL     1      -2.813   0.736 -31.635  1.00  0.00     0.170 HD
ENDBRANCH   5   6
ENDBRANCH   1   5
BRANCH   2  19
HETATM   19  N   UNL     1      -1.718   4.833 -33.023  1.00  0.00    -0.267 N 
HETATM   20  C   UNL     1      -1.965   6.136 -32.621  1.00  0.00     0.240 C 
HETATM   21  O   UNL     1      -3.090   6.633 -32.641  1.00  0.00    -0.272 OA
HETATM   22  H   UNL     1      -0.871   4.347 -32.728  1.00  0.00     0.190 HD
BRANCH  20  23
HETATM   23  C   UNL     1      -0.718   6.889 -32.194  1.00  0.00     0.148 C 
BRANCH  23  24
HETATM   24  C   UNL     1      -0.426   6.750 -30.721  1.00  0.00     0.011 A 
HETATM   25  C   UNL     1      -0.946   7.628 -29.760  1.00  0.00     0.043 A 
HETATM   26 CL   UNL     1      -2.003   8.925 -30.195  1.00  0.00    -0.084 Cl
HETATM   27  C   UNL     1      -0.630   7.475 -28.404  1.00  0.00     0.024 A 
HETATM   28  C   UNL     1       0.214   6.444 -27.990  1.00  0.00     0.005 A 
HETATM   29  C   UNL     1       0.741   5.568 -28.934  1.00  0.00     0.043 A 
HETATM   30  C   UNL     1       0.421   5.728 -30.280  1.00  0.00     0.124 A 
HETATM   31  F   UNL     1       0.940   4.863 -31.164  1.00  0.00    -0.205 F 
ENDBRANCH  23  24
ENDBRANCH  20  23
ENDBRANCH   2  19
TORSDOF 5
ENDMDL
MODEL 2
REMARK VINA RESULT:      -9.2      1.390      1.657
REMARK  5 active torsions:
REMARK  status: ('A' for Active; 'I' for Inactive)
REMARK    1  A    between atoms: C_6  and  C_7 
REMARK    2  A    between atoms: C_7  and  C_8 
REMARK       I    between atoms: C_8  and  N_9 
REMARK    3  A    between atoms: N_9  and  N_10 
REMARK       I    between atoms: N_10  and  C_11 
REMARK    4  A    between atoms: C_11  and  C_12 
REMARK    5  A    between atoms: C_12  and  C_13 
ROOT
HETATM    1  C   UNL     1      -3.150   3.212 -32.169  1.00  0.00     0.243 C 
HETATM    2  N   UNL     1      -2.774   4.064 -33.183  1.00  0.00    -0.267 N 
HETATM    3  O   UNL     1      -2.446   3.008 -31.179  1.00  0.00    -0.271 OA
HETATM    4  H   UNL     1      -3.407   4.329 -33.943  1.00  0.00     0.190 HD
ENDROOT
BRANCH   1   5
HETATM    5  C   UNL     1      -4.522   2.606 -32.314  1.00  0.00     0.183 C 
BRANCH   5   6
HETATM    6  C   UNL     1      -4.519   1.156 -32.709  1.00  0.00     0.116 A 
HETATM    7  N   UNL     1      -5.474   0.683 -33.449  1.00  0.00    -0.227 NA
HETATM    8  C   UNL     1      -5.372  -0.643 -33.729  1.00  0.00     0.116 A 
HETATM    9  C   UNL     1      -4.395  -1.511 -33.290  1.00  0.00     0.075 A 
HETATM   10  S   UNL     1      -6.511  -1.428 -34.717  1.00  0.00    -0.074 SA
HETATM   11  C   UNL     1      -4.587  -2.858 -33.760  1.00  0.00    -0.031 A 
HETATM   12  C   UNL     1      -3.355  -0.958 -32.444  1.00  0.00     0.260 A 
HETATM   13  C   UNL     1      -3.690  -4.006 -33.423  1.00  0.00     0.050 C 
HETATM   14  C   UNL     1      -5.723  -2.940 -34.556  1.00  0.00    -0.012 A 
HETATM   15  C   UNL     1      -6.291  -4.139 -35.242  1.00  0.00     0.057 C 
HETATM   16  N   UNL     1      -3.479   0.396 -32.218  1.00  0.00    -0.310 N 
HETATM   17  O   UNL     1      -2.438  -1.608 -31.951  1.00  0.00    -0.267 OA
HETATM   18  H   UNL     1      -2.759   0.795 -31.633  1.00  0.00     0.170 HD
ENDBRANCH   5   6
ENDBRANCH   1   5
BRANCH   2  19
HETATM   19  N   UNL     1      -1.653   4.880 -32.979  1.00  0.00    -0.267 N 
HETATM   20  C   UNL     1      -1.891   6.206 -32.654  1.00  0.00     0.240 C 
HETATM   21  O   UNL     1      -3.006   6.719 -32.745  1.00  0.00    -0.272 OA
HETATM   22  H   UNL     1      -0.827   4.396 -32.625  1.00  0.00     0.190 HD
BRANCH  20  23
HETATM   23  C   UNL     1      -0.649   6.960 -32.215  1.00  0.00     0.148 C 
BRANCH  23  24
HETATM   24  C   UNL     1      -0.480   6.986 -30.717  1.00  0.00     0.011 A 
HETATM   25  C   UNL     1       0.306   6.051 -30.027  1.00  0.00     0.043 A 
HETATM   26 CL   UNL     1       1.176   4.811 -30.859  1.00  0.00    -0.084 Cl
HETATM   27  C   UNL     1       0.417   6.099 -28.632  1.00  0.00     0.024 A 
HETATM   28  C   UNL     1      -0.258   7.080 -27.905  1.00  0.00     0.005 A 
HETATM   29  C   UNL     1      -1.044   8.012 -28.576  1.00  0.00     0.043 A 
HETATM   30  C   UNL     1      -1.150   7.956 -29.964  1.00  0.00     0.124 A 
HETATM   31  F   UNL     1      -1.910   8.872 -30.581  1.00  0.00    -0.205 F 
ENDBRANCH  23  24
ENDBRANCH  20  23
ENDBRANCH   2  19
TORSDOF 5
ENDMDL
MODEL 3
REMARK VINA RESULT:      -8.9      4.181      9.739
REMARK  5 active torsions:
REMARK  status: ('A' for Active; 'I' for Inactive)
REMARK    1  A    between atoms: C_6  and  C_7 
REMARK    2  A    between atoms: C_7  and  C_8 
REMARK       I    between atoms: C_8  and  N_9 
REMARK    3  A    between atoms: N_9  and  N_10 
REMARK       I    between atoms: N_10  and  C_11 
REMARK    4  A    between atoms: C_11  and  C_12 
REMARK    5  A    between atoms: C_12  and  C_13 
ROOT
HETATM    1  C   UNL     1      -3.272   3.257 -31.424  1.00  0.00     0.243 C 
HETATM    2  N   UNL     1      -4.639   3.319 -31.276  1.00  0.00    -0.267 N 
HETATM    3  O   UNL     1      -2.621   2.247 -31.157  1.00  0.00    -0.271 OA
HETATM    4  H   UNL     1      -5.195   4.111 -31.612  1.00  0.00     0.190 HD
ENDROOT
BRANCH   1   5
HETATM    5  C   UNL     1      -2.634   4.488 -32.016  1.00  0.00     0.183 C 
BRANCH   5   6
HETATM    6  C   UNL     1      -1.939   5.366 -31.012  1.00  0.00     0.116 A 
HETATM    7  N   UNL     1      -2.417   6.540 -30.737  1.00  0.00    -0.227 NA
HETATM    8  C   UNL     1      -1.698   7.248 -29.827  1.00  0.00     0.116 A 
HETATM    9  C   UNL     1      -0.527   6.859 -29.212  1.00  0.00     0.075 A 
HETATM   10  S   UNL     1      -2.194   8.791 -29.314  1.00  0.00    -0.074 SA
HETATM   11  C   UNL     1      -0.011   7.852 -28.306  1.00  0.00    -0.031 A 
HETATM   12  C   UNL     1      -0.003   5.552 -29.559  1.00  0.00     0.260 A 
HETATM   13  C   UNL     1       1.252   7.702 -27.519  1.00  0.00     0.050 C 
HETATM   14  C   UNL     1      -0.843   8.965 -28.277  1.00  0.00    -0.012 A 
HETATM   15  C   UNL     1      -0.686  10.220 -27.482  1.00  0.00     0.057 C 
HETATM   16  N   UNL     1      -0.786   4.857 -30.456  1.00  0.00    -0.310 N 
HETATM   17  O   UNL     1       1.041   5.080 -29.121  1.00  0.00    -0.267 OA
HETATM   18  H   UNL     1      -0.434   3.943 -30.704  1.00  0.00     0.170 HD
ENDBRANCH   5   6
ENDBRANCH   1   5
BRANCH   2  19
HETATM   19  N   UNL     1      -5.330   2.128 -31.011  1.00  0.00    -0.267 N 
HETATM   20  C   UNL     1      -5.888   1.471 -32.096  1.00  0.00     0.240 C 
HETATM   21  O   UNL     1      -5.977   1.988 -33.209  1.00  0.00    -0.272 OA
HETATM   22  H   UNL     1      -4.993   1.606 -30.202  1.00  0.00     0.190 HD
BRANCH  20  23
HETATM   23  C   UNL     1      -6.404   0.082 -31.769  1.00  0.00     0.148 C 
BRANCH  23  24
HETATM   24  C   UNL     1      -6.033  -0.942 -32.812  1.00  0.00     0.011 A 
HETATM   25  C   UNL     1      -4.745  -1.485 -32.916  1.00  0.00     0.043 A 
HETATM   26 CL   UNL     1      -3.485  -1.044 -31.818  1.00  0.00    -0.084 Cl
HETATM   27  C   UNL     1      -4.438  -2.417 -33.916  1.00  0.00     0.024 A 
HETATM   28  C   UNL     1      -5.414  -2.816 -34.829  1.00  0.00     0.005 A 
HETATM   29  C   UNL     1      -6.696  -2.282 -34.741  1.00  0.00     0.043 A 
HETATM   30  C   UNL     1      -6.991  -1.356 -33.744  1.00  0.00     0.124 A 
HETATM   31  F   UNL     1      -8.238  -0.865 -33.681  1.00  0.00    -0.205 F 
ENDBRANCH  23  24
ENDBRANCH  20  23
ENDBRANCH   2  19
TORSDOF 5
ENDMDL
MODEL 4
REMARK VINA RESULT:      -8.8      3.873      9.422
REMARK  5 active torsions:
REMARK  status: ('A' for Active; 'I' for Inactive)
REMARK    1  A    between atoms: C_6  and  C_7 
REMARK    2  A    between atoms: C_7  and  C_8 
REMARK       I    between atoms: C_8  and  N_9 
REMARK    3  A    between atoms: N_9  and  N_10 
REMARK       I    between atoms: N_10  and  C_11 
REMARK    4  A    between atoms: C_11  and  C_12 
REMARK    5  A    between atoms: C_12  and  C_13 
ROOT
HETATM    1  C   UNL     1      -2.956   5.307 -34.473  1.00  0.00     0.243 C 
HETATM    2  N   UNL     1      -3.046   4.413 -33.429  1.00  0.00    -0.267 N 
HETATM    3  O   UNL     1      -3.796   5.364 -35.371  1.00  0.00    -0.271 OA
HETATM    4  H   UNL     1      -2.420   4.445 -32.619  1.00  0.00     0.190 HD
ENDROOT
BRANCH   1   5
HETATM    5  C   UNL     1      -1.797   6.268 -34.397  1.00  0.00     0.183 C 
BRANCH   5   6
HETATM    6  C   UNL     1      -1.498   6.766 -33.010  1.00  0.00     0.116 A 
HETATM    7  N   UNL     1      -0.778   6.047 -32.204  1.00  0.00    -0.227 NA
HETATM    8  C   UNL     1      -0.586   6.592 -30.975  1.00  0.00     0.116 A 
HETATM    9  C   UNL     1      -1.095   7.786 -30.508  1.00  0.00     0.075 A 
HETATM   10  S   UNL     1       0.364   5.813 -29.800  1.00  0.00    -0.074 SA
HETATM   11  C   UNL     1      -0.711   8.067 -29.149  1.00  0.00    -0.031 A 
HETATM   12  C   UNL     1      -1.917   8.554 -31.422  1.00  0.00     0.260 A 
HETATM   13  C   UNL     1      -1.135   9.282 -28.386  1.00  0.00     0.050 C 
HETATM   14  C   UNL     1       0.093   7.051 -28.649  1.00  0.00    -0.012 A 
HETATM   15  C   UNL     1       0.708   6.936 -27.292  1.00  0.00     0.057 C 
HETATM   16  N   UNL     1      -2.052   7.980 -32.668  1.00  0.00    -0.310 N 
HETATM   17  O   UNL     1      -2.464   9.616 -31.144  1.00  0.00    -0.267 OA
HETATM   18  H   UNL     1      -2.620   8.507 -33.317  1.00  0.00     0.170 HD
ENDBRANCH   5   6
ENDBRANCH   1   5
BRANCH   2  19
HETATM   19  N   UNL     1      -4.239   3.693 -33.277  1.00  0.00    -0.267 N 
HETATM   20  C   UNL     1      -4.206   2.593 -32.435  1.00  0.00     0.240 C 
HETATM   21  O   UNL     1      -3.156   2.123 -32.001  1.00  0.00    -0.272 OA
HETATM   22  H   UNL     1      -5.091   4.244 -33.384  1.00  0.00     0.190 HD
BRANCH  20  23
HETATM   23  C   UNL     1      -5.577   2.014 -32.134  1.00  0.00     0.148 C 
BRANCH  23  24
HETATM   24  C   UNL     1      -6.002   0.967 -33.132  1.00  0.00     0.011 A 
HETATM   25  C   UNL     1      -5.630  -0.381 -33.021  1.00  0.00     0.043 A 
HETATM   26 CL   UNL     1      -4.679  -0.951 -31.695  1.00  0.00    -0.084 Cl
HETATM   27  C   UNL     1      -6.029  -1.316 -33.984  1.00  0.00     0.024 A 
HETATM   28  C   UNL     1      -6.802  -0.917 -35.075  1.00  0.00     0.005 A 
HETATM   29  C   UNL     1      -7.175   0.417 -35.200  1.00  0.00     0.043 A 
HETATM   30  C   UNL     1      -6.773   1.340 -34.238  1.00  0.00     0.124 A 
HETATM   31  F   UNL     1      -7.154   2.618 -34.384  1.00  0.00    -0.205 F 
ENDBRANCH  23  24
ENDBRANCH  20  23
ENDBRANCH   2  19
TORSDOF 5
ENDMDL
MODEL 5
REMARK VINA RESULT:      -8.7      4.069      9.822
REMARK  5 active torsions:
REMARK  status: ('A' for Active; 'I' for Inactive)
REMARK    1  A    between atoms: C_6  and  C_7 
REMARK    2  A    between atoms: C_7  and  C_8 
REMARK       I    between atoms: C_8  and  N_9 
REMARK    3  A    between atoms: N_9  and  N_10 
REMARK       I    between atoms: N_10  and  C_11 
REMARK    4  A    between atoms: C_11  and  C_12 
REMARK    5  A    between atoms: C_12  and  C_13 
ROOT
HETATM    1  C   UNL     1      -3.301   3.960 -31.719  1.00  0.00     0.243 C 
HETATM    2  N   UNL     1      -3.165   2.745 -32.353  1.00  0.00    -0.267 N 
HETATM    3  O   UNL     1      -4.112   4.147 -30.811  1.00  0.00    -0.271 OA
HETATM    4  H   UNL     1      -2.412   2.552 -33.020  1.00  0.00     0.190 HD
ENDROOT
BRANCH   1   5
HETATM    5  C   UNL     1      -2.331   5.026 -32.159  1.00  0.00     0.183 C 
BRANCH   5   6
HETATM    6  C   UNL     1      -1.649   5.744 -31.028  1.00  0.00     0.116 A 
HETATM    7  N   UNL     1      -2.021   6.944 -30.703  1.00  0.00    -0.227 NA
HETATM    8  C   UNL     1      -1.324   7.498 -29.677  1.00  0.00     0.116 A 
HETATM    9  C   UNL     1      -0.271   6.932 -28.989  1.00  0.00     0.075 A 
HETATM   10  S   UNL     1      -1.698   9.047 -29.088  1.00  0.00    -0.074 SA
HETATM   11  C   UNL     1       0.256   7.792 -27.962  1.00  0.00    -0.031 A 
HETATM   12  C   UNL     1       0.139   5.601 -29.392  1.00  0.00     0.260 A 
HETATM   13  C   UNL     1       1.410   7.441 -27.077  1.00  0.00     0.050 C 
HETATM   14  C   UNL     1      -0.447   8.990 -27.920  1.00  0.00    -0.012 A 
HETATM   15  C   UNL     1      -0.235  10.159 -27.014  1.00  0.00     0.057 C 
HETATM   16  N   UNL     1      -0.620   5.066 -30.411  1.00  0.00    -0.310 N 
HETATM   17  O   UNL     1       1.076   4.981 -28.899  1.00  0.00    -0.267 OA
HETATM   18  H   UNL     1      -0.348   4.137 -30.699  1.00  0.00     0.170 HD
ENDBRANCH   5   6
ENDBRANCH   1   5
BRANCH   2  19
HETATM   19  N   UNL     1      -3.825   1.636 -31.804  1.00  0.00    -0.267 N 
HETATM   20  C   UNL     1      -4.989   1.224 -32.431  1.00  0.00     0.240 C 
HETATM   21  O   UNL     1      -5.554   1.901 -33.289  1.00  0.00    -0.272 OA
HETATM   22  H   UNL     1      -3.217   0.963 -31.336  1.00  0.00     0.190 HD
BRANCH  20  23
HETATM   23  C   UNL     1      -5.510  -0.112 -31.935  1.00  0.00     0.148 C 
BRANCH  23  24
HETATM   24  C   UNL     1      -5.575  -1.156 -33.022  1.00  0.00     0.011 A 
HETATM   25  C   UNL     1      -6.747  -1.428 -33.741  1.00  0.00     0.043 A 
HETATM   26 CL   UNL     1      -8.209  -0.551 -33.456  1.00  0.00    -0.084 Cl
HETATM   27  C   UNL     1      -6.768  -2.422 -34.727  1.00  0.00     0.024 A 
HETATM   28  C   UNL     1      -5.618  -3.162 -35.006  1.00  0.00     0.005 A 
HETATM   29  C   UNL     1      -4.449  -2.905 -34.298  1.00  0.00     0.043 A 
HETATM   30  C   UNL     1      -4.438  -1.915 -33.318  1.00  0.00     0.124 A 
HETATM   31  F   UNL     1      -3.293  -1.687 -32.657  1.00  0.00    -0.205 F 
ENDBRANCH  23  24
ENDBRANCH  20  23
ENDBRANCH   2  19
TORSDOF 5
ENDMDL
MODEL 6
REMARK VINA RESULT:      -8.7      1.756      2.212
REMARK  5 active torsions:
REMARK  status: ('A' for Active; 'I' for Inactive)
REMARK    1  A    between atoms: C_6  and  C_7 
REMARK    2  A    between atoms: C_7  and  C_8 
REMARK       I    between atoms: C_8  and  N_9 
REMARK    3  A    between atoms: N_9  and  N_10 
REMARK       I    between atoms: N_10  and  C_11 
REMARK    4  A    between atoms: C_11  and  C_12 
REMARK    5  A    between atoms: C_12  and  C_13 
ROOT
HETATM    1  C   UNL     1      -4.335   3.703 -31.940  1.00  0.00     0.243 C 
HETATM    2  N   UNL     1      -3.226   3.601 -32.750  1.00  0.00    -0.267 N 
HETATM    3  O   UNL     1      -4.321   4.312 -30.869  1.00  0.00    -0.271 OA
HETATM    4  H   UNL     1      -3.266   3.204 -33.693  1.00  0.00     0.190 HD
ENDROOT
BRANCH   1   5
HETATM    5  C   UNL     1      -5.594   3.087 -32.495  1.00  0.00     0.183 C 
BRANCH   5   6
HETATM    6  C   UNL     1      -5.451   1.644 -32.894  1.00  0.00     0.116 A 
HETATM    7  N   UNL     1      -4.576   0.891 -32.303  1.00  0.00    -0.227 NA
HETATM    8  C   UNL     1      -4.527  -0.388 -32.757  1.00  0.00     0.116 A 
HETATM    9  C   UNL     1      -5.278  -0.935 -33.777  1.00  0.00     0.075 A 
HETATM   10  S   UNL     1      -3.469  -1.530 -32.075  1.00  0.00    -0.074 SA
HETATM   11  C   UNL     1      -4.972  -2.321 -34.018  1.00  0.00    -0.031 A 
HETATM   12  C   UNL     1      -6.230  -0.062 -34.435  1.00  0.00     0.260 A 
HETATM   13  C   UNL     1      -5.621  -3.157 -35.075  1.00  0.00     0.050 C 
HETATM   14  C   UNL     1      -3.987  -2.763 -33.143  1.00  0.00    -0.012 A 
HETATM   15  C   UNL     1      -3.373  -4.122 -33.047  1.00  0.00     0.057 C 
HETATM   16  N   UNL     1      -6.269   1.214 -33.916  1.00  0.00    -0.310 N 
HETATM   17  O   UNL     1      -6.945  -0.393 -35.376  1.00  0.00    -0.267 OA
HETATM   18  H   UNL     1      -6.931   1.832 -34.364  1.00  0.00     0.170 HD
ENDBRANCH   5   6
ENDBRANCH   1   5
BRANCH   2  19
HETATM   19  N   UNL     1      -2.109   4.390 -32.442  1.00  0.00    -0.267 N 
HETATM   20  C   UNL     1      -1.578   5.155 -33.468  1.00  0.00     0.240 C 
HETATM   21  O   UNL     1      -1.910   5.007 -34.643  1.00  0.00    -0.272 OA
HETATM   22  H   UNL     1      -2.061   4.709 -31.474  1.00  0.00     0.190 HD
BRANCH  20  23
HETATM   23  C   UNL     1      -0.534   6.155 -33.007  1.00  0.00     0.148 C 
BRANCH  23  24
HETATM   24  C   UNL     1      -0.550   6.371 -31.515  1.00  0.00     0.011 A 
HETATM   25  C   UNL     1      -1.405   7.291 -30.891  1.00  0.00     0.043 A 
HETATM   26 CL   UNL     1      -2.544   8.225 -31.797  1.00  0.00    -0.084 Cl
HETATM   27  C   UNL     1      -1.370   7.476 -29.504  1.00  0.00     0.024 A 
HETATM   28  C   UNL     1      -0.476   6.747 -28.719  1.00  0.00     0.005 A 
HETATM   29  C   UNL     1       0.382   5.834 -29.324  1.00  0.00     0.043 A 
HETATM   30  C   UNL     1       0.340   5.657 -30.705  1.00  0.00     0.124 A 
HETATM   31  F   UNL     1       1.175   4.765 -31.257  1.00  0.00    -0.205 F 
ENDBRANCH  23  24
ENDBRANCH  20  23
ENDBRANCH   2  19
TORSDOF 5
ENDMDL
MODEL 7
REMARK VINA RESULT:      -8.5      5.024      7.610
REMARK  5 active torsions:
REMARK  status: ('A' for Active; 'I' for Inactive)
REMARK    1  A    between atoms: C_6  and  C_7 
REMARK    2  A    between atoms: C_7  and  C_8 
REMARK       I    between atoms: C_8  and  N_9 
REMARK    3  A    between atoms: N_9  and  N_10 
REMARK       I    between atoms: N_10  and  C_11 
REMARK    4  A    between atoms: C_11  and  C_12 
REMARK    5  A    between atoms: C_12  and  C_13 
ROOT
HETATM    1  C   UNL     1      -5.269   2.235 -31.404  1.00  0.00     0.243 C 
HETATM    2  N   UNL     1      -5.947   2.606 -32.543  1.00  0.00    -0.267 N 
HETATM    3  O   UNL     1      -5.733   2.394 -30.274  1.00  0.00    -0.271 OA
HETATM    4  H   UNL     1      -5.620   2.365 -33.483  1.00  0.00     0.190 HD
ENDROOT
BRANCH   1   5
HETATM    5  C   UNL     1      -3.949   1.546 -31.638  1.00  0.00     0.183 C 
BRANCH   5   6
HETATM    6  C   UNL     1      -4.068   0.165 -32.220  1.00  0.00     0.116 A 
HETATM    7  N   UNL     1      -4.994  -0.094 -33.091  1.00  0.00    -0.227 NA
HETATM    8  C   UNL     1      -5.014  -1.378 -33.535  1.00  0.00     0.116 A 
HETATM    9  C   UNL     1      -4.187  -2.406 -33.136  1.00  0.00     0.075 A 
HETATM   10  S   UNL     1      -6.132  -1.891 -34.707  1.00  0.00    -0.074 SA
HETATM   11  C   UNL     1      -4.481  -3.652 -33.794  1.00  0.00    -0.031 A 
HETATM   12  C   UNL     1      -3.178  -2.092 -32.142  1.00  0.00     0.260 A 
HETATM   13  C   UNL     1      -3.754  -4.934 -33.539  1.00  0.00     0.050 C 
HETATM   14  C   UNL     1      -5.537  -3.496 -34.684  1.00  0.00    -0.012 A 
HETATM   15  C   UNL     1      -6.165  -4.525 -35.567  1.00  0.00     0.057 C 
HETATM   16  N   UNL     1      -3.173  -0.771 -31.750  1.00  0.00    -0.310 N 
HETATM   17  O   UNL     1      -2.391  -2.905 -31.666  1.00  0.00    -0.267 OA
HETATM   18  H   UNL     1      -2.472  -0.537 -31.060  1.00  0.00     0.170 HD
ENDBRANCH   5   6
ENDBRANCH   1   5
BRANCH   2  19
HETATM   19  N   UNL     1      -7.292   2.982 -32.419  1.00  0.00    -0.267 N 
HETATM   20  C   UNL     1      -8.243   2.052 -32.807  1.00  0.00     0.240 C 
HETATM   21  O   UNL     1      -7.955   1.032 -33.431  1.00  0.00    -0.272 OA
HETATM   22  H   UNL     1      -7.486   3.644 -31.667  1.00  0.00     0.190 HD
BRANCH  20  23
HETATM   23  C   UNL     1      -9.661   2.431 -32.421  1.00  0.00     0.148 C 
BRANCH  23  24
HETATM   24  C   UNL     1     -10.576   2.564 -33.612  1.00  0.00     0.011 A 
HETATM   25  C   UNL     1     -10.658   3.735 -34.378  1.00  0.00     0.043 A 
HETATM   26 CL   UNL     1      -9.675   5.114 -34.030  1.00  0.00    -0.084 Cl
HETATM   27  C   UNL     1     -11.539   3.822 -35.463  1.00  0.00     0.024 A 
HETATM   28  C   UNL     1     -12.355   2.741 -35.795  1.00  0.00     0.005 A 
HETATM   29  C   UNL     1     -12.288   1.573 -35.042  1.00  0.00     0.043 A 
HETATM   30  C   UNL     1     -11.409   1.496 -33.964  1.00  0.00     0.124 A 
HETATM   31  F   UNL     1     -11.363   0.355 -33.262  1.00  0.00    -0.205 F 
ENDBRANCH  23  24
ENDBRANCH  20  23
ENDBRANCH   2  19
TORSDOF 5
ENDMDL
MODEL 8
REMARK VINA RESULT:      -8.4      4.226      9.147
REMARK  5 active torsions:
REMARK  status: ('A' for Active; 'I' for Inactive)
REMARK    1  A    between atoms: C_6  and  C_7 
REMARK    2  A    between atoms: C_7  and  C_8 
REMARK       I    between atoms: C_8  and  N_9 
REMARK    3  A    between atoms: N_9  and  N_10 
REMARK       I    between atoms: N_10  and  C_11 
REMARK    4  A    between atoms: C_11  and  C_12 
REMARK    5  A    between atoms: C_12  and  C_13 
ROOT
HETATM    1  C   UNL     1      -6.501   4.383 -30.973  1.00  0.00     0.243 C 
HETATM    2  N   UNL     1      -6.494   3.619 -32.118  1.00  0.00    -0.267 N 
HETATM    3  O   UNL     1      -6.868   3.942 -29.883  1.00  0.00    -0.271 OA
HETATM    4  H   UNL     1      -6.075   3.943 -32.995  1.00  0.00     0.190 HD
ENDROOT
BRANCH   1   5
HETATM    5  C   UNL     1      -5.949   5.777 -31.127  1.00  0.00     0.183 C 
BRANCH   5   6
HETATM    6  C   UNL     1      -4.471   5.888 -30.877  1.00  0.00     0.116 A 
HETATM    7  N   UNL     1      -4.017   6.788 -30.060  1.00  0.00    -0.227 NA
HETATM    8  C   UNL     1      -2.665   6.803 -29.924  1.00  0.00     0.116 A 
HETATM    9  C   UNL     1      -1.757   5.995 -30.577  1.00  0.00     0.075 A 
HETATM   10  S   UNL     1      -1.894   7.887 -28.867  1.00  0.00    -0.074 SA
HETATM   11  C   UNL     1      -0.393   6.278 -30.215  1.00  0.00    -0.031 A 
HETATM   12  C   UNL     1      -2.293   5.016 -31.503  1.00  0.00     0.260 A 
HETATM   13  C   UNL     1       0.795   5.568 -30.783  1.00  0.00     0.050 C 
HETATM   14  C   UNL     1      -0.338   7.304 -29.280  1.00  0.00    -0.012 A 
HETATM   15  C   UNL     1       0.866   7.912 -28.639  1.00  0.00     0.057 C 
HETATM   16  N   UNL     1      -3.669   5.014 -31.579  1.00  0.00    -0.310 N 
HETATM   17  O   UNL     1      -1.613   4.251 -32.179  1.00  0.00    -0.267 OA
HETATM   18  H   UNL     1      -4.056   4.334 -32.218  1.00  0.00     0.170 HD
ENDBRANCH   5   6
ENDBRANCH   1   5
BRANCH   2  19
HETATM   19  N   UNL     1      -6.714   2.240 -31.994  1.00  0.00    -0.267 N 
HETATM   20  C   UNL     1      -5.593   1.427 -31.945  1.00  0.00     0.240 C 
HETATM   21  O   UNL     1      -4.465   1.838 -32.212  1.00  0.00    -0.272 OA
HETATM   22  H   UNL     1      -7.567   1.984 -31.496  1.00  0.00     0.190 HD
BRANCH  20  23
HETATM   23  C   UNL     1      -5.899  -0.012 -31.570  1.00  0.00     0.148 C 
BRANCH  23  24
HETATM   24  C   UNL     1      -5.757  -0.963 -32.732  1.00  0.00     0.011 A 
HETATM   25  C   UNL     1      -4.550  -1.603 -33.044  1.00  0.00     0.043 A 
HETATM   26 CL   UNL     1      -3.130  -1.374 -32.085  1.00  0.00    -0.084 Cl
HETATM   27  C   UNL     1      -4.458  -2.461 -34.147  1.00  0.00     0.024 A 
HETATM   28  C   UNL     1      -5.570  -2.689 -34.956  1.00  0.00     0.005 A 
HETATM   29  C   UNL     1      -6.775  -2.058 -34.660  1.00  0.00     0.043 A 
HETATM   30  C   UNL     1      -6.857  -1.205 -33.562  1.00  0.00     0.124 A 
HETATM   31  F   UNL     1      -8.033  -0.617 -33.300  1.00  0.00    -0.205 F 
ENDBRANCH  23  24
ENDBRANCH  20  23
ENDBRANCH   2  19
TORSDOF 5
ENDMDL
MODEL 9
REMARK VINA RESULT:      -8.3      4.078      9.974
REMARK  5 active torsions:
REMARK  status: ('A' for Active; 'I' for Inactive)
REMARK    1  A    between atoms: C_6  and  C_7 
REMARK    2  A    between atoms: C_7  and  C_8 
REMARK       I    between atoms: C_8  and  N_9 
REMARK    3  A    between atoms: N_9  and  N_10 
REMARK       I    between atoms: N_10  and  C_11 
REMARK    4  A    between atoms: C_11  and  C_12 
REMARK    5  A    between atoms: C_12  and  C_13 
ROOT
HETATM    1  C   UNL     1      -3.340   3.735 -31.925  1.00  0.00     0.243 C 
HETATM    2  N   UNL     1      -3.331   2.521 -32.575  1.00  0.00    -0.267 N 
HETATM    3  O   UNL     1      -4.086   3.973 -30.974  1.00  0.00    -0.271 OA
HETATM    4  H   UNL     1      -2.630   2.280 -33.282  1.00  0.00     0.190 HD
ENDROOT
BRANCH   1   5
HETATM    5  C   UNL     1      -2.314   4.729 -32.406  1.00  0.00     0.183 C 
BRANCH   5   6
HETATM    6  C   UNL     1      -1.800   5.652 -31.336  1.00  0.00     0.116 A 
HETATM    7  N   UNL     1      -0.849   5.262 -30.545  1.00  0.00    -0.227 NA
HETATM    8  C   UNL     1      -0.477   6.174 -29.610  1.00  0.00     0.116 A 
HETATM    9  C   UNL     1      -1.020   7.425 -29.410  1.00  0.00     0.075 A 
HETATM   10  S   UNL     1       0.781   5.853 -28.512  1.00  0.00    -0.074 SA
HETATM   11  C   UNL     1      -0.404   8.139 -28.322  1.00  0.00    -0.031 A 
HETATM   12  C   UNL     1      -2.100   7.824 -30.293  1.00  0.00     0.260 A 
HETATM   13  C   UNL     1      -0.807   9.508 -27.874  1.00  0.00     0.050 C 
HETATM   14  C   UNL     1       0.603   7.374 -27.746  1.00  0.00    -0.012 A 
HETATM   15  C   UNL     1       1.492   7.724 -26.597  1.00  0.00     0.057 C 
HETATM   16  N   UNL     1      -2.416   6.881 -31.248  1.00  0.00    -0.310 N 
HETATM   17  O   UNL     1      -2.703   8.890 -30.221  1.00  0.00    -0.267 OA
HETATM   18  H   UNL     1      -3.164   7.147 -31.873  1.00  0.00     0.170 HD
ENDBRANCH   5   6
ENDBRANCH   1   5
BRANCH   2  19
HETATM   19  N   UNL     1      -4.044   1.459 -32.002  1.00  0.00    -0.267 N 
HETATM   20  C   UNL     1      -5.241   1.108 -32.606  1.00  0.00     0.240 C 
HETATM   21  O   UNL     1      -5.779   1.806 -33.463  1.00  0.00    -0.272 OA
HETATM   22  H   UNL     1      -3.470   0.758 -31.534  1.00  0.00     0.190 HD
BRANCH  20  23
HETATM   23  C   UNL     1      -5.830  -0.190 -32.084  1.00  0.00     0.148 C 
BRANCH  23  24
HETATM   24  C   UNL     1      -5.691  -1.330 -33.060  1.00  0.00     0.011 A 
HETATM   25  C   UNL     1      -4.518  -2.090 -33.176  1.00  0.00     0.043 A 
HETATM   26 CL   UNL     1      -3.145  -1.794 -32.167  1.00  0.00    -0.084 Cl
HETATM   27  C   UNL     1      -4.425  -3.127 -34.113  1.00  0.00     0.024 A 
HETATM   28  C   UNL     1      -5.501  -3.416 -34.951  1.00  0.00     0.005 A 
HETATM   29  C   UNL     1      -6.670  -2.669 -34.851  1.00  0.00     0.043 A 
HETATM   30  C   UNL     1      -6.753  -1.639 -33.917  1.00  0.00     0.124 A 
HETATM   31  F   UNL     1      -7.896  -0.941 -33.840  1.00  0.00    -0.205 F 
ENDBRANCH  23  24
ENDBRANCH  20  23
ENDBRANCH   2  19
TORSDOF 5
ENDMDL
MODEL 10
REMARK VINA RESULT:      -8.2      2.322      3.013
REMARK  5 active torsions:
REMARK  status: ('A' for Active; 'I' for Inactive)
REMARK    1  A    between atoms: C_6  and  C_7 
REMARK    2  A    between atoms: C_7  and  C_8 
REMARK       I    between atoms: C_8  and  N_9 
REMARK    3  A    between atoms: N_9  and  N_10 
REMARK       I    between atoms: N_10  and  C_11 
REMARK    4  A    between atoms: C_11  and  C_12 
REMARK    5  A    between atoms: C_12  and  C_13 
ROOT
HETATM    1  C   UNL     1      -5.503   3.356 -31.456  1.00  0.00     0.243 C 
HETATM    2  N   UNL     1      -4.566   3.237 -32.457  1.00  0.00    -0.267 N 
HETATM    3  O   UNL     1      -5.463   4.251 -30.611  1.00  0.00    -0.271 OA
HETATM    4  H   UNL     1      -4.665   2.571 -33.229  1.00  0.00     0.190 HD
ENDROOT
BRANCH   1   5
HETATM    5  C   UNL     1      -6.633   2.359 -31.512  1.00  0.00     0.183 C 
BRANCH   5   6
HETATM    6  C   UNL     1      -6.286   1.071 -32.206  1.00  0.00     0.116 A 
HETATM    7  N   UNL     1      -5.280   0.363 -31.794  1.00  0.00    -0.227 NA
HETATM    8  C   UNL     1      -5.054  -0.771 -32.507  1.00  0.00     0.116 A 
HETATM    9  C   UNL     1      -5.754  -1.211 -33.611  1.00  0.00     0.075 A 
HETATM   10  S   UNL     1      -3.803  -1.844 -32.089  1.00  0.00    -0.074 SA
HETATM   11  C   UNL     1      -5.248  -2.451 -34.140  1.00  0.00    -0.031 A 
HETATM   12  C   UNL     1      -6.857  -0.385 -34.063  1.00  0.00     0.260 A 
HETATM   13  C   UNL     1      -5.805  -3.145 -35.342  1.00  0.00     0.050 C 
HETATM   14  C   UNL     1      -4.170  -2.899 -33.387  1.00  0.00    -0.012 A 
HETATM   15  C   UNL     1      -3.350  -4.132 -33.583  1.00  0.00     0.057 C 
HETATM   16  N   UNL     1      -7.071   0.734 -33.288  1.00  0.00    -0.310 N 
HETATM   17  O   UNL     1      -7.552  -0.626 -35.045  1.00  0.00    -0.267 OA
HETATM   18  H   UNL     1      -7.839   1.317 -33.589  1.00  0.00     0.170 HD
ENDBRANCH   5   6
ENDBRANCH   1   5
BRANCH   2  19
HETATM   19  N   UNL     1      -3.659   4.290 -32.641  1.00  0.00    -0.267 N 
HETATM   20  C   UNL     1      -2.402   4.143 -32.078  1.00  0.00     0.240 C 
HETATM   21  O   UNL     1      -2.137   3.249 -31.275  1.00  0.00    -0.272 OA
HETATM   22  H   UNL     1      -3.787   4.822 -33.503  1.00  0.00     0.190 HD
BRANCH  20  23
HETATM   23  C   UNL     1      -1.407   5.201 -32.520  1.00  0.00     0.148 C 
BRANCH  23  24
HETATM   24  C   UNL     1      -1.078   6.187 -31.427  1.00  0.00     0.011 A 
HETATM   25  C   UNL     1       0.052   6.059 -30.607  1.00  0.00     0.043 A 
HETATM   26 CL   UNL     1       1.182   4.768 -30.818  1.00  0.00    -0.084 Cl
HETATM   27  C   UNL     1       0.307   6.987 -29.589  1.00  0.00     0.024 A 
HETATM   28  C   UNL     1      -0.566   8.053 -29.373  1.00  0.00     0.005 A 
HETATM   29  C   UNL     1      -1.694   8.190 -30.177  1.00  0.00     0.043 A 
HETATM   30  C   UNL     1      -1.940   7.262 -31.186  1.00  0.00     0.124 A 
HETATM   31  F   UNL     1      -3.031   7.426 -31.948  1.00  0.00    -0.205 F 
ENDBRANCH  23  24
ENDBRANCH  20  23
ENDBRANCH   2  19
TORSDOF 5
ENDMDL
