MODEL 1
REMARK VINA RESULT:      -8.9      0.000      0.000
REMARK  5 active torsions:
REMARK  status: ('A' for Active; 'I' for Inactive)
REMARK    1  A    between atoms: C_6  and  C_7 
REMARK    2  A    between atoms: C_7  and  C_8 
REMARK       I    between atoms: C_8  and  N_9 
REMARK    3  A    between atoms: N_9  and  C_10 
REMARK    4  A    between atoms: C_11  and  O_12 
REMARK    5  A    between atoms: O_12  and  C_13 
ROOT
HETATM    1  C   UNL     1      -4.729   1.416 -32.020  1.00  0.00     0.069 A 
HETATM    2  C   UNL     1      -5.450   0.327 -32.531  1.00  0.00     0.102 A 
HETATM    3  C   UNL     1      -6.319  -0.402 -31.697  1.00  0.00     0.039 A 
HETATM    4  C   UNL     1      -6.507  -0.035 -30.366  1.00  0.00     0.003 A 
HETATM    5  C   UNL     1      -5.809   1.049 -29.851  1.00  0.00     0.002 A 
HETATM    6  C   UNL     1      -4.927   1.761 -30.669  1.00  0.00     0.032 A 
ENDROOT
BRANCH   1   7
HETATM    7  N   UNL     1      -3.845   2.273 -32.715  1.00  0.00    -0.324 N 
HETATM    8  C   UNL     1      -3.902   3.633 -32.968  1.00  0.00     0.228 C 
HETATM    9  O   UNL     1      -4.871   4.375 -32.856  1.00  0.00    -0.273 OA
HETATM   10  H   UNL     1      -2.974   1.837 -33.015  1.00  0.00     0.169 HD
BRANCH   8  11
HETATM   11  C   UNL     1      -2.587   4.198 -33.501  1.00  0.00     0.164 C 
BRANCH  11  12
HETATM   12  C   UNL     1      -1.722   4.712 -32.397  1.00  0.00     0.065 A 
HETATM   13  N   UNL     1      -1.737   4.108 -31.199  1.00  0.00    -0.179 NA
HETATM   14  N   UNL     1      -0.903   4.851 -30.451  1.00  0.00    -0.282 N 
HETATM   15  C   UNL     1      -0.440   5.965 -31.095  1.00  0.00     0.026 A 
HETATM   16  H   UNL     1      -0.721   4.558 -29.496  1.00  0.00     0.189 HD
HETATM   17  C   UNL     1       0.400   6.982 -30.427  1.00  0.00     0.070 C 
HETATM   18  C   UNL     1      -0.930   5.882 -32.379  1.00  0.00     0.055 A 
ENDBRANCH  11  12
ENDBRANCH   8  11
ENDBRANCH   1   7
BRANCH   2  19
HETATM   19  O   UNL     1      -5.279  -0.128 -33.814  1.00  0.00    -0.308 OA
BRANCH  19  20
HETATM   20  C   UNL     1      -5.285  -1.492 -34.013  1.00  0.00     0.082 A 
HETATM   21  C   UNL     1      -6.281  -2.168 -34.721  1.00  0.00     0.079 A 
HETATM   22  C   UNL     1      -6.169  -3.542 -34.911  1.00  0.00     0.122 A 
HETATM   23  F   UNL     1      -7.123  -4.193 -35.588  1.00  0.00    -0.206 F 
HETATM   24  C   UNL     1      -5.080  -4.251 -34.417  1.00  0.00     0.084 A 
HETATM   25  C   UNL     1      -4.089  -3.562 -33.732  1.00  0.00     0.122 A 
HETATM   26  F   UNL     1      -3.029  -4.231 -33.260  1.00  0.00    -0.206 F 
HETATM   27  C   UNL     1      -4.176  -2.188 -33.532  1.00  0.00     0.079 A 
ENDBRANCH  19  20
ENDBRANCH   2  19
TORSDOF 5
ENDMDL
MODEL 2
REMARK VINA RESULT:      -8.9      0.098      1.645
REMARK  5 active torsions:
REMARK  status: ('A' for Active; 'I' for Inactive)
REMARK    1  A    between atoms: C_6  and  C_7 
REMARK    2  A    between atoms: C_7  and  C_8 
REMARK       I    between atoms: C_8  and  N_9 
REMARK    3  A    between atoms: N_9  and  C_10 
REMARK    4  A    between atoms: C_11  and  O_12 
REMARK    5  A    between atoms: O_12  and  C_13 
ROOT
HETATM    1  C   UNL     1      -4.796   1.373 -31.964  1.00  0.00     0.069 A 
HETATM    2  C   UNL     1      -5.584   0.333 -32.478  1.00  0.00     0.102 A 
HETATM    3  C   UNL     1      -6.463  -0.374 -31.635  1.00  0.00     0.039 A 
HETATM    4  C   UNL     1      -6.593  -0.031 -30.291  1.00  0.00     0.003 A 
HETATM    5  C   UNL     1      -5.828   1.005 -29.772  1.00  0.00     0.002 A 
HETATM    6  C   UNL     1      -4.937   1.693 -30.600  1.00  0.00     0.032 A 
ENDROOT
BRANCH   1   7
HETATM    7  N   UNL     1      -3.892   2.204 -32.666  1.00  0.00    -0.324 N 
HETATM    8  C   UNL     1      -3.899   3.569 -32.899  1.00  0.00     0.228 C 
HETATM    9  O   UNL     1      -4.836   4.347 -32.756  1.00  0.00    -0.273 OA
HETATM   10  H   UNL     1      -3.046   1.738 -32.990  1.00  0.00     0.169 HD
BRANCH   8  11
HETATM   11  C   UNL     1      -2.574   4.089 -33.451  1.00  0.00     0.164 C 
BRANCH  11  12
HETATM   12  C   UNL     1      -1.712   4.654 -32.371  1.00  0.00     0.065 A 
HETATM   13  N   UNL     1      -1.695   4.080 -31.159  1.00  0.00    -0.179 NA
HETATM   14  N   UNL     1      -0.875   4.865 -30.439  1.00  0.00    -0.282 N 
HETATM   15  C   UNL     1      -0.453   5.975 -31.115  1.00  0.00     0.026 A 
HETATM   16  H   UNL     1      -0.673   4.600 -29.480  1.00  0.00     0.189 HD
HETATM   17  C   UNL     1       0.364   7.033 -30.482  1.00  0.00     0.070 C 
HETATM   18  C   UNL     1      -0.955   5.847 -32.391  1.00  0.00     0.055 A 
ENDBRANCH  11  12
ENDBRANCH   8  11
ENDBRANCH   1   7
BRANCH   2  19
HETATM   19  O   UNL     1      -5.474  -0.096 -33.776  1.00  0.00    -0.308 OA
BRANCH  19  20
HETATM   20  C   UNL     1      -5.257  -1.441 -33.986  1.00  0.00     0.082 A 
HETATM   21  C   UNL     1      -4.172  -2.143 -33.457  1.00  0.00     0.079 A 
HETATM   22  C   UNL     1      -4.070  -3.513 -33.685  1.00  0.00     0.122 A 
HETATM   23  F   UNL     1      -3.030  -4.189 -33.180  1.00  0.00    -0.206 F 
HETATM   24  C   UNL     1      -5.033  -4.194 -34.420  1.00  0.00     0.084 A 
HETATM   25  C   UNL     1      -6.115  -3.486 -34.922  1.00  0.00     0.122 A 
HETATM   26  F   UNL     1      -7.056  -4.132 -35.624  1.00  0.00    -0.206 F 
HETATM   27  C   UNL     1      -6.241  -2.118 -34.706  1.00  0.00     0.079 A 
ENDBRANCH  19  20
ENDBRANCH   2  19
TORSDOF 5
ENDMDL
MODEL 3
REMARK VINA RESULT:      -8.6      4.240      6.867
REMARK  5 active torsions:
REMARK  status: ('A' for Active; 'I' for Inactive)
REMARK    1  A    between atoms: C_6  and  C_7 
REMARK    2  A    between atoms: C_7  and  C_8 
REMARK       I    between atoms: C_8  and  N_9 
REMARK    3  A    between atoms: N_9  and  C_10 
REMARK    4  A    between atoms: C_11  and  O_12 
REMARK    5  A    between atoms: O_12  and  C_13 
ROOT
HETATM    1  C   UNL     1      -6.884   0.572 -32.456  1.00  0.00     0.069 A 
HETATM    2  C   UNL     1      -5.679  -0.108 -32.682  1.00  0.00     0.102 A 
HETATM    3  C   UNL     1      -4.750  -0.271 -31.637  1.00  0.00     0.039 A 
HETATM    4  C   UNL     1      -5.025   0.204 -30.356  1.00  0.00     0.003 A 
HETATM    5  C   UNL     1      -6.220   0.868 -30.115  1.00  0.00     0.002 A 
HETATM    6  C   UNL     1      -7.135   1.053 -31.155  1.00  0.00     0.032 A 
ENDROOT
BRANCH   1   7
HETATM    7  N   UNL     1      -7.938   0.798 -33.371  1.00  0.00    -0.324 N 
HETATM    8  C   UNL     1      -9.277   0.447 -33.328  1.00  0.00     0.228 C 
HETATM    9  O   UNL     1      -9.812  -0.368 -32.586  1.00  0.00    -0.273 OA
HETATM   10  H   UNL     1      -7.695   1.391 -34.164  1.00  0.00     0.169 HD
BRANCH   8  11
HETATM   11  C   UNL     1     -10.114   1.151 -34.394  1.00  0.00     0.164 C 
BRANCH  11  12
HETATM   12  C   UNL     1     -11.428   1.606 -33.849  1.00  0.00     0.065 A 
HETATM   13  N   UNL     1     -11.470   2.588 -32.936  1.00  0.00    -0.179 NA
HETATM   14  N   UNL     1     -12.775   2.696 -32.635  1.00  0.00    -0.282 N 
HETATM   15  C   UNL     1     -13.554   1.750 -33.241  1.00  0.00     0.026 A 
HETATM   16  H   UNL     1     -13.061   3.418 -31.981  1.00  0.00     0.189 HD
HETATM   17  C   UNL     1     -15.000   1.610 -32.966  1.00  0.00     0.070 C 
HETATM   18  C   UNL     1     -12.706   1.045 -34.067  1.00  0.00     0.055 A 
ENDBRANCH  11  12
ENDBRANCH   8  11
ENDBRANCH   1   7
BRANCH   2  19
HETATM   19  O   UNL     1      -5.314  -0.557 -33.925  1.00  0.00    -0.308 OA
BRANCH  19  20
HETATM   20  C   UNL     1      -5.340  -1.917 -34.144  1.00  0.00     0.082 A 
HETATM   21  C   UNL     1      -6.402  -2.584 -34.759  1.00  0.00     0.079 A 
HETATM   22  C   UNL     1      -6.310  -3.954 -34.981  1.00  0.00     0.122 A 
HETATM   23  F   UNL     1      -7.327  -4.596 -35.569  1.00  0.00    -0.206 F 
HETATM   24  C   UNL     1      -5.177  -4.669 -34.611  1.00  0.00     0.084 A 
HETATM   25  C   UNL     1      -4.122  -3.989 -34.019  1.00  0.00     0.122 A 
HETATM   26  F   UNL     1      -3.019  -4.664 -33.668  1.00  0.00    -0.206 F 
HETATM   27  C   UNL     1      -4.188  -2.619 -33.789  1.00  0.00     0.079 A 
ENDBRANCH  19  20
ENDBRANCH   2  19
TORSDOF 5
ENDMDL
MODEL 4
REMARK VINA RESULT:      -8.6      4.278      7.065
REMARK  5 active torsions:
REMARK  status: ('A' for Active; 'I' for Inactive)
REMARK    1  A    between atoms: C_6  and  C_7 
REMARK    2  A    between atoms: C_7  and  C_8 
REMARK       I    between atoms: C_8  and  N_9 
REMARK    3  A    between atoms: N_9  and  C_10 
REMARK    4  A    between atoms: C_11  and  O_12 
REMARK    5  A    between atoms: O_12  and  C_13 
ROOT
HETATM    1  C   UNL     1      -6.864   0.460 -32.490  1.00  0.00     0.069 A 
HETATM    2  C   UNL     1      -5.663  -0.219 -32.740  1.00  0.00     0.102 A 
HETATM    3  C   UNL     1      -4.720  -0.395 -31.710  1.00  0.00     0.039 A 
HETATM    4  C   UNL     1      -4.976   0.068 -30.421  1.00  0.00     0.003 A 
HETATM    5  C   UNL     1      -6.167   0.731 -30.157  1.00  0.00     0.002 A 
HETATM    6  C   UNL     1      -7.095   0.928 -31.182  1.00  0.00     0.032 A 
ENDROOT
BRANCH   1   7
HETATM    7  N   UNL     1      -7.930   0.697 -33.389  1.00  0.00    -0.324 N 
HETATM    8  C   UNL     1      -9.284   0.422 -33.293  1.00  0.00     0.228 C 
HETATM    9  O   UNL     1      -9.840  -0.325 -32.496  1.00  0.00    -0.273 OA
HETATM   10  H   UNL     1      -7.679   1.235 -34.217  1.00  0.00     0.169 HD
BRANCH   8  11
HETATM   11  C   UNL     1     -10.113   1.116 -34.371  1.00  0.00     0.164 C 
BRANCH  11  12
HETATM   12  C   UNL     1     -11.426   1.585 -33.838  1.00  0.00     0.065 A 
HETATM   13  N   UNL     1     -11.469   2.594 -32.956  1.00  0.00    -0.179 NA
HETATM   14  N   UNL     1     -12.774   2.709 -32.656  1.00  0.00    -0.282 N 
HETATM   15  C   UNL     1     -13.551   1.743 -33.231  1.00  0.00     0.026 A 
HETATM   16  H   UNL     1     -13.060   3.450 -32.023  1.00  0.00     0.189 HD
HETATM   17  C   UNL     1     -14.997   1.609 -32.950  1.00  0.00     0.070 C 
HETATM   18  C   UNL     1     -12.704   1.015 -34.037  1.00  0.00     0.055 A 
ENDBRANCH  11  12
ENDBRANCH   8  11
ENDBRANCH   1   7
BRANCH   2  19
HETATM   19  O   UNL     1      -5.317  -0.656 -33.993  1.00  0.00    -0.308 OA
BRANCH  19  20
HETATM   20  C   UNL     1      -5.180  -2.015 -34.179  1.00  0.00     0.082 A 
HETATM   21  C   UNL     1      -4.066  -2.747 -33.761  1.00  0.00     0.079 A 
HETATM   22  C   UNL     1      -4.046  -4.126 -33.950  1.00  0.00     0.122 A 
HETATM   23  F   UNL     1      -2.979  -4.830 -33.552  1.00  0.00    -0.206 F 
HETATM   24  C   UNL     1      -5.118  -4.787 -34.538  1.00  0.00     0.084 A 
HETATM   25  C   UNL     1      -6.225  -4.049 -34.930  1.00  0.00     0.122 A 
HETATM   26  F   UNL     1      -7.270  -4.676 -35.487  1.00  0.00    -0.206 F 
HETATM   27  C   UNL     1      -6.271  -2.671 -34.750  1.00  0.00     0.079 A 
ENDBRANCH  19  20
ENDBRANCH   2  19
TORSDOF 5
ENDMDL
MODEL 5
REMARK VINA RESULT:      -8.5      1.563      2.163
REMARK  5 active torsions:
REMARK  status: ('A' for Active; 'I' for Inactive)
REMARK    1  A    between atoms: C_6  and  C_7 
REMARK    2  A    between atoms: C_7  and  C_8 
REMARK       I    between atoms: C_8  and  N_9 
REMARK    3  A    between atoms: N_9  and  C_10 
REMARK    4  A    between atoms: C_11  and  O_12 
REMARK    5  A    between atoms: O_12  and  C_13 
ROOT
HETATM    1  C   UNL     1      -6.641   0.825 -32.369  1.00  0.00     0.069 A 
HETATM    2  C   UNL     1      -7.015   0.084 -33.499  1.00  0.00     0.102 A 
HETATM    3  C   UNL     1      -8.356  -0.305 -33.679  1.00  0.00     0.039 A 
HETATM    4  C   UNL     1      -9.337   0.067 -32.762  1.00  0.00     0.003 A 
HETATM    5  C   UNL     1      -8.982   0.812 -31.646  1.00  0.00     0.002 A 
HETATM    6  C   UNL     1      -7.649   1.180 -31.451  1.00  0.00     0.032 A 
ENDROOT
BRANCH   1   7
HETATM    7  N   UNL     1      -5.358   1.326 -32.046  1.00  0.00    -0.324 N 
HETATM    8  C   UNL     1      -4.922   2.611 -31.771  1.00  0.00     0.228 C 
HETATM    9  O   UNL     1      -5.512   3.663 -31.989  1.00  0.00    -0.273 OA
HETATM   10  H   UNL     1      -4.643   0.613 -31.912  1.00  0.00     0.169 HD
BRANCH   8  11
HETATM   11  C   UNL     1      -3.513   2.652 -31.184  1.00  0.00     0.164 C 
BRANCH  11  12
HETATM   12  C   UNL     1      -2.628   3.584 -31.943  1.00  0.00     0.065 A 
HETATM   13  N   UNL     1      -1.714   4.319 -31.291  1.00  0.00    -0.179 NA
HETATM   14  N   UNL     1      -1.150   5.066 -32.255  1.00  0.00    -0.282 N 
HETATM   15  C   UNL     1      -1.742   4.914 -33.478  1.00  0.00     0.026 A 
HETATM   16  H   UNL     1      -0.387   5.686 -32.001  1.00  0.00     0.189 HD
HETATM   17  C   UNL     1      -1.359   5.720 -34.657  1.00  0.00     0.070 C 
HETATM   18  C   UNL     1      -2.687   3.926 -33.313  1.00  0.00     0.055 A 
ENDBRANCH  11  12
ENDBRANCH   8  11
ENDBRANCH   1   7
BRANCH   2  19
HETATM   19  O   UNL     1      -6.100  -0.364 -34.416  1.00  0.00    -0.308 OA
BRANCH  19  20
HETATM   20  C   UNL     1      -5.770  -1.702 -34.385  1.00  0.00     0.082 A 
HETATM   21  C   UNL     1      -6.460  -2.688 -35.094  1.00  0.00     0.079 A 
HETATM   22  C   UNL     1      -6.015  -4.006 -35.036  1.00  0.00     0.122 A 
HETATM   23  F   UNL     1      -6.676  -4.954 -35.713  1.00  0.00    -0.206 F 
HETATM   24  C   UNL     1      -4.893  -4.356 -34.295  1.00  0.00     0.084 A 
HETATM   25  C   UNL     1      -4.207  -3.361 -33.612  1.00  0.00     0.122 A 
HETATM   26  F   UNL     1      -3.117  -3.683 -32.903  1.00  0.00    -0.206 F 
HETATM   27  C   UNL     1      -4.629  -2.037 -33.656  1.00  0.00     0.079 A 
ENDBRANCH  19  20
ENDBRANCH   2  19
TORSDOF 5
ENDMDL
MODEL 6
REMARK VINA RESULT:      -8.4      4.440      6.681
REMARK  5 active torsions:
REMARK  status: ('A' for Active; 'I' for Inactive)
REMARK    1  A    between atoms: C_6  and  C_7 
REMARK    2  A    between atoms: C_7  and  C_8 
REMARK       I    between atoms: C_8  and  N_9 
REMARK    3  A    between atoms: N_9  and  C_10 
REMARK    4  A    between atoms: C_11  and  O_12 
REMARK    5  A    between atoms: O_12  and  C_13 
ROOT
HETATM    1  C   UNL     1      -6.520  -1.818 -34.160  1.00  0.00     0.069 A 
HETATM    2  C   UNL     1      -5.132  -1.662 -34.036  1.00  0.00     0.102 A 
HETATM    3  C   UNL     1      -4.279  -2.774 -34.169  1.00  0.00     0.039 A 
HETATM    4  C   UNL     1      -4.790  -4.036 -34.462  1.00  0.00     0.003 A 
HETATM    5  C   UNL     1      -6.162  -4.203 -34.600  1.00  0.00     0.002 A 
HETATM    6  C   UNL     1      -7.014  -3.107 -34.445  1.00  0.00     0.032 A 
ENDROOT
BRANCH   1   7
HETATM    7  N   UNL     1      -7.516  -0.817 -34.090  1.00  0.00    -0.324 N 
HETATM    8  C   UNL     1      -7.805   0.245 -34.930  1.00  0.00     0.228 C 
HETATM    9  O   UNL     1      -7.097   0.711 -35.815  1.00  0.00    -0.273 OA
HETATM   10  H   UNL     1      -8.191  -0.938 -33.336  1.00  0.00     0.169 HD
BRANCH   8  11
HETATM   11  C   UNL     1      -9.150   0.899 -34.627  1.00  0.00     0.164 C 
BRANCH  11  12
HETATM   12  C   UNL     1      -9.218   1.390 -33.218  1.00  0.00     0.065 A 
HETATM   13  N   UNL     1      -9.356   0.515 -32.211  1.00  0.00    -0.179 NA
HETATM   14  N   UNL     1      -9.436   1.292 -31.116  1.00  0.00    -0.282 N 
HETATM   15  C   UNL     1      -9.462   2.629 -31.398  1.00  0.00     0.026 A 
HETATM   16  H   UNL     1      -9.506   0.841 -30.209  1.00  0.00     0.189 HD
HETATM   17  C   UNL     1      -9.660   3.661 -30.357  1.00  0.00     0.070 C 
HETATM   18  C   UNL     1      -9.286   2.725 -32.760  1.00  0.00     0.055 A 
ENDBRANCH  11  12
ENDBRANCH   8  11
ENDBRANCH   1   7
BRANCH   2  19
HETATM   19  O   UNL     1      -4.558  -0.464 -33.696  1.00  0.00    -0.308 OA
BRANCH  19  20
HETATM   20  C   UNL     1      -5.079   0.208 -32.611  1.00  0.00     0.082 A 
HETATM   21  C   UNL     1      -5.336  -0.393 -31.377  1.00  0.00     0.079 A 
HETATM   22  C   UNL     1      -5.815   0.385 -30.327  1.00  0.00     0.122 A 
HETATM   23  F   UNL     1      -6.063  -0.188 -29.143  1.00  0.00    -0.206 F 
HETATM   24  C   UNL     1      -6.034   1.749 -30.483  1.00  0.00     0.084 A 
HETATM   25  C   UNL     1      -5.756   2.335 -31.709  1.00  0.00     0.122 A 
HETATM   26  F   UNL     1      -5.952   3.650 -31.869  1.00  0.00    -0.206 F 
HETATM   27  C   UNL     1      -5.274   1.580 -32.773  1.00  0.00     0.079 A 
ENDBRANCH  19  20
ENDBRANCH   2  19
TORSDOF 5
ENDMDL
MODEL 7
REMARK VINA RESULT:      -8.4      1.503      2.636
REMARK  5 active torsions:
REMARK  status: ('A' for Active; 'I' for Inactive)
REMARK    1  A    between atoms: C_6  and  C_7 
REMARK    2  A    between atoms: C_7  and  C_8 
REMARK       I    between atoms: C_8  and  N_9 
REMARK    3  A    between atoms: N_9  and  C_10 
REMARK    4  A    between atoms: C_11  and  O_12 
REMARK    5  A    between atoms: O_12  and  C_13 
ROOT
HETATM    1  C   UNL     1      -6.560   0.718 -32.381  1.00  0.00     0.069 A 
HETATM    2  C   UNL     1      -6.982   0.024 -33.524  1.00  0.00     0.102 A 
HETATM    3  C   UNL     1      -8.331  -0.353 -33.668  1.00  0.00     0.039 A 
HETATM    4  C   UNL     1      -9.274  -0.013 -32.700  1.00  0.00     0.003 A 
HETATM    5  C   UNL     1      -8.872   0.686 -31.570  1.00  0.00     0.002 A 
HETATM    6  C   UNL     1      -7.530   1.041 -31.412  1.00  0.00     0.032 A 
ENDROOT
BRANCH   1   7
HETATM    7  N   UNL     1      -5.263   1.200 -32.089  1.00  0.00    -0.324 N 
HETATM    8  C   UNL     1      -4.786   2.488 -31.910  1.00  0.00     0.228 C 
HETATM    9  O   UNL     1      -5.339   3.539 -32.212  1.00  0.00    -0.273 OA
HETATM   10  H   UNL     1      -4.572   0.477 -31.895  1.00  0.00     0.169 HD
BRANCH   8  11
HETATM   11  C   UNL     1      -3.379   2.528 -31.318  1.00  0.00     0.164 C 
BRANCH  11  12
HETATM   12  C   UNL     1      -2.538   3.575 -31.969  1.00  0.00     0.065 A 
HETATM   13  N   UNL     1      -1.743   4.356 -31.221  1.00  0.00    -0.179 NA
HETATM   14  N   UNL     1      -1.190   5.201 -32.108  1.00  0.00    -0.282 N 
HETATM   15  C   UNL     1      -1.682   5.058 -33.375  1.00  0.00     0.026 A 
HETATM   16  H   UNL     1      -0.508   5.874 -31.773  1.00  0.00     0.189 HD
HETATM   17  C   UNL     1      -1.299   5.956 -34.487  1.00  0.00     0.070 C 
HETATM   18  C   UNL     1      -2.538   3.981 -33.323  1.00  0.00     0.055 A 
ENDBRANCH  11  12
ENDBRANCH   8  11
ENDBRANCH   1   7
BRANCH   2  19
HETATM   19  O   UNL     1      -6.105  -0.392 -34.493  1.00  0.00    -0.308 OA
BRANCH  19  20
HETATM   20  C   UNL     1      -5.658  -1.695 -34.432  1.00  0.00     0.082 A 
HETATM   21  C   UNL     1      -4.527  -2.094 -33.716  1.00  0.00     0.079 A 
HETATM   22  C   UNL     1      -4.188  -3.443 -33.675  1.00  0.00     0.122 A 
HETATM   23  F   UNL     1      -3.104  -3.829 -32.990  1.00  0.00    -0.206 F 
HETATM   24  C   UNL     1      -4.959  -4.400 -34.325  1.00  0.00     0.084 A 
HETATM   25  C   UNL     1      -6.091  -3.989 -35.015  1.00  0.00     0.122 A 
HETATM   26  F   UNL     1      -6.849  -4.902 -35.636  1.00  0.00    -0.206 F 
HETATM   27  C   UNL     1      -6.453  -2.648 -35.069  1.00  0.00     0.079 A 
ENDBRANCH  19  20
ENDBRANCH   2  19
TORSDOF 5
ENDMDL
MODEL 8
REMARK VINA RESULT:      -8.3      3.745      8.047
REMARK  5 active torsions:
REMARK  status: ('A' for Active; 'I' for Inactive)
REMARK    1  A    between atoms: C_6  and  C_7 
REMARK    2  A    between atoms: C_7  and  C_8 
REMARK       I    between atoms: C_8  and  N_9 
REMARK    3  A    between atoms: N_9  and  C_10 
REMARK    4  A    between atoms: C_11  and  O_12 
REMARK    5  A    between atoms: O_12  and  C_13 
ROOT
HETATM    1  C   UNL     1      -4.855   2.257 -32.101  1.00  0.00     0.069 A 
HETATM    2  C   UNL     1      -4.283   3.316 -31.381  1.00  0.00     0.102 A 
HETATM    3  C   UNL     1      -5.097   4.339 -30.857  1.00  0.00     0.039 A 
HETATM    4  C   UNL     1      -6.481   4.299 -31.010  1.00  0.00     0.003 A 
HETATM    5  C   UNL     1      -7.061   3.249 -31.709  1.00  0.00     0.002 A 
HETATM    6  C   UNL     1      -6.256   2.245 -32.252  1.00  0.00     0.032 A 
ENDROOT
BRANCH   1   7
HETATM    7  N   UNL     1      -4.200   1.138 -32.665  1.00  0.00    -0.324 N 
HETATM    8  C   UNL     1      -3.829  -0.077 -32.114  1.00  0.00     0.228 C 
HETATM    9  O   UNL     1      -3.764  -0.370 -30.925  1.00  0.00    -0.273 OA
HETATM   10  H   UNL     1      -4.043   1.197 -33.670  1.00  0.00     0.169 HD
BRANCH   8  11
HETATM   11  C   UNL     1      -3.410  -1.106 -33.161  1.00  0.00     0.164 C 
BRANCH  11  12
HETATM   12  C   UNL     1      -4.593  -1.788 -33.766  1.00  0.00     0.065 A 
HETATM   13  N   UNL     1      -5.823  -1.288 -33.577  1.00  0.00    -0.179 NA
HETATM   14  N   UNL     1      -6.629  -2.165 -34.199  1.00  0.00    -0.282 N 
HETATM   15  C   UNL     1      -5.970  -3.260 -34.685  1.00  0.00     0.026 A 
HETATM   16  H   UNL     1      -7.625  -1.971 -34.224  1.00  0.00     0.189 HD
HETATM   17  C   UNL     1      -6.672  -4.404 -35.306  1.00  0.00     0.070 C 
HETATM   18  C   UNL     1      -4.634  -3.025 -34.448  1.00  0.00     0.055 A 
ENDBRANCH  11  12
ENDBRANCH   8  11
ENDBRANCH   1   7
BRANCH   2  19
HETATM   19  O   UNL     1      -2.926   3.453 -31.234  1.00  0.00    -0.308 OA
BRANCH  19  20
HETATM   20  C   UNL     1      -2.303   4.443 -31.963  1.00  0.00     0.082 A 
HETATM   21  C   UNL     1      -1.653   5.537 -31.387  1.00  0.00     0.079 A 
HETATM   22  C   UNL     1      -1.008   6.457 -32.209  1.00  0.00     0.122 A 
HETATM   23  F   UNL     1      -0.385   7.507 -31.659  1.00  0.00    -0.206 F 
HETATM   24  C   UNL     1      -0.993   6.302 -33.590  1.00  0.00     0.084 A 
HETATM   25  C   UNL     1      -1.626   5.200 -34.145  1.00  0.00     0.122 A 
HETATM   26  F   UNL     1      -1.609   5.032 -35.474  1.00  0.00    -0.206 F 
HETATM   27  C   UNL     1      -2.275   4.264 -33.346  1.00  0.00     0.079 A 
ENDBRANCH  19  20
ENDBRANCH   2  19
TORSDOF 5
ENDMDL
MODEL 9
REMARK VINA RESULT:      -8.2      1.898      2.711
REMARK  5 active torsions:
REMARK  status: ('A' for Active; 'I' for Inactive)
REMARK    1  A    between atoms: C_6  and  C_7 
REMARK    2  A    between atoms: C_7  and  C_8 
REMARK       I    between atoms: C_8  and  N_9 
REMARK    3  A    between atoms: N_9  and  C_10 
REMARK    4  A    between atoms: C_11  and  O_12 
REMARK    5  A    between atoms: O_12  and  C_13 
ROOT
HETATM    1  C   UNL     1      -5.052   3.280 -32.260  1.00  0.00     0.069 A 
HETATM    2  C   UNL     1      -6.066   2.334 -32.467  1.00  0.00     0.102 A 
HETATM    3  C   UNL     1      -6.916   1.962 -31.409  1.00  0.00     0.039 A 
HETATM    4  C   UNL     1      -6.791   2.550 -30.152  1.00  0.00     0.003 A 
HETATM    5  C   UNL     1      -5.799   3.498 -29.936  1.00  0.00     0.002 A 
HETATM    6  C   UNL     1      -4.938   3.853 -30.977  1.00  0.00     0.032 A 
ENDROOT
BRANCH   1   7
HETATM    7  N   UNL     1      -4.136   3.793 -33.208  1.00  0.00    -0.324 N 
HETATM    8  C   UNL     1      -4.249   4.827 -34.121  1.00  0.00     0.228 C 
HETATM    9  O   UNL     1      -5.274   5.388 -34.492  1.00  0.00    -0.273 OA
HETATM   10  H   UNL     1      -3.202   3.388 -33.161  1.00  0.00     0.169 HD
BRANCH   8  11
HETATM   11  C   UNL     1      -2.912   5.227 -34.741  1.00  0.00     0.164 C 
BRANCH  11  12
HETATM   12  C   UNL     1      -2.068   5.996 -33.779  1.00  0.00     0.065 A 
HETATM   13  N   UNL     1      -1.933   7.323 -33.920  1.00  0.00    -0.179 NA
HETATM   14  N   UNL     1      -1.080   7.669 -32.940  1.00  0.00    -0.282 N 
HETATM   15  C   UNL     1      -0.585   6.599 -32.248  1.00  0.00     0.026 A 
HETATM   16  H   UNL     1      -0.854   8.651 -32.822  1.00  0.00     0.189 HD
HETATM   17  C   UNL     1       0.453   6.736 -31.203  1.00  0.00     0.070 C 
HETATM   18  C   UNL     1      -1.238   5.496 -32.751  1.00  0.00     0.055 A 
ENDBRANCH  11  12
ENDBRANCH   8  11
ENDBRANCH   1   7
BRANCH   2  19
HETATM   19  O   UNL     1      -6.218   1.674 -33.660  1.00  0.00    -0.308 OA
BRANCH  19  20
HETATM   20  C   UNL     1      -5.781   0.368 -33.725  1.00  0.00     0.082 A 
HETATM   21  C   UNL     1      -4.607  -0.088 -33.122  1.00  0.00     0.079 A 
HETATM   22  C   UNL     1      -4.279  -1.439 -33.202  1.00  0.00     0.122 A 
HETATM   23  F   UNL     1      -3.154  -1.879 -32.627  1.00  0.00    -0.206 F 
HETATM   24  C   UNL     1      -5.104  -2.341 -33.863  1.00  0.00     0.084 A 
HETATM   25  C   UNL     1      -6.277  -1.876 -34.440  1.00  0.00     0.122 A 
HETATM   26  F   UNL     1      -7.087  -2.738 -35.070  1.00  0.00    -0.206 F 
HETATM   27  C   UNL     1      -6.628  -0.532 -34.371  1.00  0.00     0.079 A 
ENDBRANCH  19  20
ENDBRANCH   2  19
TORSDOF 5
ENDMDL
MODEL 10
REMARK VINA RESULT:      -8.1      3.752      7.765
REMARK  5 active torsions:
REMARK  status: ('A' for Active; 'I' for Inactive)
REMARK    1  A    between atoms: C_6  and  C_7 
REMARK    2  A    between atoms: C_7  and  C_8 
REMARK       I    between atoms: C_8  and  N_9 
REMARK    3  A    between atoms: N_9  and  C_10 
REMARK    4  A    between atoms: C_11  and  O_12 
REMARK    5  A    between atoms: O_12  and  C_13 
ROOT
HETATM    1  C   UNL     1      -5.075   2.261 -31.710  1.00  0.00     0.069 A 
HETATM    2  C   UNL     1      -4.525   3.396 -31.097  1.00  0.00     0.102 A 
HETATM    3  C   UNL     1      -5.347   4.274 -30.365  1.00  0.00     0.039 A 
HETATM    4  C   UNL     1      -6.706   4.015 -30.205  1.00  0.00     0.003 A 
HETATM    5  C   UNL     1      -7.261   2.887 -30.796  1.00  0.00     0.002 A 
HETATM    6  C   UNL     1      -6.454   2.026 -31.543  1.00  0.00     0.032 A 
ENDROOT
BRANCH   1   7
HETATM    7  N   UNL     1      -4.400   1.261 -32.448  1.00  0.00    -0.324 N 
HETATM    8  C   UNL     1      -3.944   0.006 -32.083  1.00  0.00     0.228 C 
HETATM    9  O   UNL     1      -3.802  -0.436 -30.948  1.00  0.00    -0.273 OA
HETATM   10  H   UNL     1      -4.300   1.460 -33.443  1.00  0.00     0.169 HD
BRANCH   8  11
HETATM   11  C   UNL     1      -3.535  -0.853 -33.277  1.00  0.00     0.164 C 
BRANCH  11  12
HETATM   12  C   UNL     1      -4.696  -1.606 -33.837  1.00  0.00     0.065 A 
HETATM   13  N   UNL     1      -5.939  -1.118 -33.700  1.00  0.00    -0.179 NA
HETATM   14  N   UNL     1      -6.720  -2.058 -34.258  1.00  0.00    -0.282 N 
HETATM   15  C   UNL     1      -6.034  -3.174 -34.650  1.00  0.00     0.026 A 
HETATM   16  H   UNL     1      -7.720  -1.888 -34.309  1.00  0.00     0.189 HD
HETATM   17  C   UNL     1      -6.706  -4.378 -35.185  1.00  0.00     0.070 C 
HETATM   18  C   UNL     1      -4.706  -2.893 -34.419  1.00  0.00     0.055 A 
ENDBRANCH  11  12
ENDBRANCH   8  11
ENDBRANCH   1   7
BRANCH   2  19
HETATM   19  O   UNL     1      -3.209   3.747 -31.253  1.00  0.00    -0.308 OA
BRANCH  19  20
HETATM   20  C   UNL     1      -2.888   4.564 -32.316  1.00  0.00     0.082 A 
HETATM   21  C   UNL     1      -3.565   4.548 -33.538  1.00  0.00     0.079 A 
HETATM   22  C   UNL     1      -3.197   5.449 -34.532  1.00  0.00     0.122 A 
HETATM   23  F   UNL     1      -3.843   5.435 -35.705  1.00  0.00    -0.206 F 
HETATM   24  C   UNL     1      -2.176   6.369 -34.328  1.00  0.00     0.084 A 
HETATM   25  C   UNL     1      -1.526   6.386 -33.102  1.00  0.00     0.122 A 
HETATM   26  F   UNL     1      -0.548   7.275 -32.888  1.00  0.00    -0.206 F 
HETATM   27  C   UNL     1      -1.877   5.497 -32.091  1.00  0.00     0.079 A 
ENDBRANCH  19  20
ENDBRANCH   2  19
TORSDOF 5
ENDMDL
