MODEL 1
REMARK VINA RESULT:      -8.9      0.000      0.000
REMARK  7 active torsions:
REMARK  status: ('A' for Active; 'I' for Inactive)
REMARK    1  A    between atoms: C_3  and  N_4 
REMARK       I    between atoms: N_4  and  C_5 
REMARK    2  A    between atoms: C_5  and  C_6 
REMARK    3  A    between atoms: C_7  and  C_8 
REMARK    4  A    between atoms: C_19  and  C_20 
REMARK    5  A    between atoms: C_20  and  C_21 
REMARK    6  A    between atoms: C_21  and  C_22 
REMARK    7  A    between atoms: C_22  and  O_23 
ROOT
HETATM    1  C   UNL     1      -8.348   3.594 -32.687  1.00  0.00     0.062 A 
HETATM    2  C   UNL     1      -7.439   3.294 -33.873  1.00  0.00     0.202 A 
HETATM    3  N   UNL     1      -6.248   4.152 -33.864  1.00  0.00    -0.083 N 
HETATM    4  C   UNL     1      -6.029   5.148 -32.951  1.00  0.00     0.726 A 
HETATM    5  N   UNL     1      -6.933   5.364 -31.979  1.00  0.00    -0.192 N 
HETATM    6  N   UNL     1      -5.293   4.148 -34.821  1.00  0.00    -0.140 NA
HETATM    7  C   UNL     1      -4.472   5.102 -34.358  1.00  0.00     0.166 A 
HETATM    8  N   UNL     1      -4.900   5.750 -33.223  1.00  0.00    -0.046 NA
HETATM    9  C   UNL     1      -8.073   4.586 -31.807  1.00  0.00     0.037 A 
HETATM   10  C   UNL     1      -8.930   4.935 -30.616  1.00  0.00     0.070 C 
HETATM   11  H   UNL     1      -6.739   6.077 -31.282  1.00  0.00     0.184 HD
ENDROOT
BRANCH   1  12
HETATM   12  C   UNL     1      -9.481   2.664 -32.437  1.00  0.00     0.256 C 
HETATM   13  N   UNL     1     -10.565   2.895 -33.257  1.00  0.00    -0.323 N 
HETATM   14  H   UNL     1     -10.520   3.697 -33.867  1.00  0.00     0.169 HD
HETATM   15  O   UNL     1      -9.369   1.820 -31.557  1.00  0.00    -0.267 OA
BRANCH  13  16
HETATM   16  C   UNL     1     -11.769   2.148 -33.312  1.00  0.00     0.041 A 
HETATM   17  C   UNL     1     -12.983   2.778 -32.957  1.00  0.00    -0.035 A 
HETATM   18  C   UNL     1     -13.057   4.220 -32.532  1.00  0.00     0.050 C 
HETATM   19  C   UNL     1     -14.186   2.049 -33.027  1.00  0.00     0.009 A 
HETATM   20  C   UNL     1     -14.195   0.716 -33.430  1.00  0.00     0.001 A 
HETATM   21  C   UNL     1     -13.003   0.097 -33.776  1.00  0.00     0.002 A 
HETATM   22  C   UNL     1     -11.802   0.807 -33.721  1.00  0.00     0.030 A 
ENDBRANCH  13  16
ENDBRANCH   1  12
BRANCH   2  23
HETATM   23  C   UNL     1      -7.045   1.826 -33.995  1.00  0.00    -0.027 A 
HETATM   24  C   UNL     1      -6.103   1.282 -33.104  1.00  0.00     0.028 A 
HETATM   25  C   UNL     1      -5.716  -0.054 -33.219  1.00  0.00     0.011 A 
HETATM   26 BR   UNL     1      -4.440  -0.762 -32.016  1.00  0.00    -0.051 Br
HETATM   27  C   UNL     1      -6.256  -0.865 -34.211  1.00  0.00     0.019 A 
HETATM   28  C   UNL     1      -7.197  -0.340 -35.095  1.00  0.00     0.002 A 
HETATM   29  C   UNL     1      -7.593   0.996 -34.988  1.00  0.00     0.010 A 
ENDBRANCH   2  23
BRANCH   7  30
HETATM   30  C   UNL     1      -3.195   5.459 -35.025  1.00  0.00     0.085 C 
BRANCH  30  31
HETATM   31  C   UNL     1      -1.962   5.166 -34.175  1.00  0.00     0.034 C 
BRANCH  31  32
HETATM   32  C   UNL     1      -1.160   6.416 -33.834  1.00  0.00     0.164 C 
BRANCH  32  33
HETATM   33  O   UNL     1      -1.798   7.559 -34.393  1.00  0.00    -0.401 OA
HETATM   34  H   UNL     1      -1.161   7.988 -34.990  1.00  0.00     0.209 HD
ENDBRANCH  32  33
ENDBRANCH  31  32
ENDBRANCH  30  31
ENDBRANCH   7  30
TORSDOF 7
ENDMDL
MODEL 2
REMARK VINA RESULT:      -8.6      3.224      6.248
REMARK  7 active torsions:
REMARK  status: ('A' for Active; 'I' for Inactive)
REMARK    1  A    between atoms: C_3  and  N_4 
REMARK       I    between atoms: N_4  and  C_5 
REMARK    2  A    between atoms: C_5  and  C_6 
REMARK    3  A    between atoms: C_7  and  C_8 
REMARK    4  A    between atoms: C_19  and  C_20 
REMARK    5  A    between atoms: C_20  and  C_21 
REMARK    6  A    between atoms: C_21  and  C_22 
REMARK    7  A    between atoms: C_22  and  O_23 
ROOT
HETATM    1  C   UNL     1      -8.110   1.716 -33.009  1.00  0.00     0.062 A 
HETATM    2  C   UNL     1      -7.471   3.056 -32.668  1.00  0.00     0.202 A 
HETATM    3  N   UNL     1      -8.252   3.780 -31.657  1.00  0.00    -0.083 N 
HETATM    4  C   UNL     1      -9.446   3.338 -31.153  1.00  0.00     0.726 A 
HETATM    5  N   UNL     1      -9.948   2.163 -31.575  1.00  0.00    -0.192 N 
HETATM    6  N   UNL     1      -7.957   5.017 -31.201  1.00  0.00    -0.140 NA
HETATM    7  C   UNL     1      -8.967   5.214 -30.340  1.00  0.00     0.166 A 
HETATM    8  N   UNL     1      -9.909   4.213 -30.298  1.00  0.00    -0.046 NA
HETATM    9  C   UNL     1      -9.289   1.326 -32.468  1.00  0.00     0.037 A 
HETATM   10  C   UNL     1      -9.975   0.015 -32.765  1.00  0.00     0.070 C 
HETATM   11  H   UNL     1     -10.812   1.825 -31.162  1.00  0.00     0.184 HD
ENDROOT
BRANCH   1  12
HETATM   12  C   UNL     1      -7.325   0.775 -33.851  1.00  0.00     0.256 C 
HETATM   13  N   UNL     1      -7.049  -0.419 -33.221  1.00  0.00    -0.323 N 
HETATM   14  H   UNL     1      -7.323  -0.504 -32.253  1.00  0.00     0.169 HD
HETATM   15  O   UNL     1      -6.992   1.126 -34.976  1.00  0.00    -0.267 OA
BRANCH  13  16
HETATM   16  C   UNL     1      -6.379  -1.542 -33.771  1.00  0.00     0.041 A 
HETATM   17  C   UNL     1      -4.968  -1.594 -33.712  1.00  0.00    -0.035 A 
HETATM   18  C   UNL     1      -4.140  -0.509 -33.078  1.00  0.00     0.050 C 
HETATM   19  C   UNL     1      -4.296  -2.714 -34.239  1.00  0.00     0.009 A 
HETATM   20  C   UNL     1      -5.000  -3.763 -34.825  1.00  0.00     0.001 A 
HETATM   21  C   UNL     1      -6.385  -3.711 -34.884  1.00  0.00     0.002 A 
HETATM   22  C   UNL     1      -7.068  -2.612 -34.359  1.00  0.00     0.030 A 
ENDBRANCH  13  16
ENDBRANCH   1  12
BRANCH   2  23
HETATM   23  C   UNL     1      -6.009   2.955 -32.246  1.00  0.00    -0.027 A 
HETATM   24  C   UNL     1      -5.021   3.619 -32.994  1.00  0.00     0.028 A 
HETATM   25  C   UNL     1      -3.677   3.515 -32.632  1.00  0.00     0.011 A 
HETATM   26 BR   UNL     1      -2.363   4.409 -33.658  1.00  0.00    -0.051 Br
HETATM   27  C   UNL     1      -3.296   2.759 -31.529  1.00  0.00     0.019 A 
HETATM   28  C   UNL     1      -4.267   2.103 -30.774  1.00  0.00     0.002 A 
HETATM   29  C   UNL     1      -5.616   2.200 -31.126  1.00  0.00     0.010 A 
ENDBRANCH   2  23
BRANCH   7  30
HETATM   30  C   UNL     1      -9.084   6.431 -29.499  1.00  0.00     0.085 C 
BRANCH  30  31
HETATM   31  C   UNL     1      -8.337   6.327 -28.172  1.00  0.00     0.034 C 
BRANCH  31  32
HETATM   32  C   UNL     1      -6.830   6.172 -28.345  1.00  0.00     0.164 C 
BRANCH  32  33
HETATM   33  O   UNL     1      -6.477   4.798 -28.227  1.00  0.00    -0.401 OA
HETATM   34  H   UNL     1      -7.196   4.350 -27.750  1.00  0.00     0.209 HD
ENDBRANCH  32  33
ENDBRANCH  31  32
ENDBRANCH  30  31
ENDBRANCH   7  30
TORSDOF 7
ENDMDL
MODEL 3
REMARK VINA RESULT:      -8.0      3.245      6.542
REMARK  7 active torsions:
REMARK  status: ('A' for Active; 'I' for Inactive)
REMARK    1  A    between atoms: C_3  and  N_4 
REMARK       I    between atoms: N_4  and  C_5 
REMARK    2  A    between atoms: C_5  and  C_6 
REMARK    3  A    between atoms: C_7  and  C_8 
REMARK    4  A    between atoms: C_19  and  C_20 
REMARK    5  A    between atoms: C_20  and  C_21 
REMARK    6  A    between atoms: C_21  and  C_22 
REMARK    7  A    between atoms: C_22  and  O_23 
ROOT
HETATM    1  C   UNL     1      -8.147   1.667 -33.001  1.00  0.00     0.062 A 
HETATM    2  C   UNL     1      -7.504   2.998 -32.630  1.00  0.00     0.202 A 
HETATM    3  N   UNL     1      -8.290   3.706 -31.612  1.00  0.00    -0.083 N 
HETATM    4  C   UNL     1      -9.489   3.260 -31.124  1.00  0.00     0.726 A 
HETATM    5  N   UNL     1      -9.993   2.096 -31.571  1.00  0.00    -0.192 N 
HETATM    6  N   UNL     1      -7.993   4.933 -31.131  1.00  0.00    -0.140 NA
HETATM    7  C   UNL     1      -9.008   5.118 -30.273  1.00  0.00     0.166 A 
HETATM    8  N   UNL     1      -9.955   4.121 -30.256  1.00  0.00    -0.046 NA
HETATM    9  C   UNL     1      -9.331   1.272 -32.475  1.00  0.00     0.037 A 
HETATM   10  C   UNL     1     -10.021  -0.030 -32.801  1.00  0.00     0.070 C 
HETATM   11  H   UNL     1     -10.862   1.754 -31.170  1.00  0.00     0.184 HD
ENDROOT
BRANCH   1  12
HETATM   12  C   UNL     1      -7.360   0.738 -33.855  1.00  0.00     0.256 C 
HETATM   13  N   UNL     1      -7.077  -0.461 -33.237  1.00  0.00    -0.323 N 
HETATM   14  H   UNL     1      -7.348  -0.558 -32.270  1.00  0.00     0.169 HD
HETATM   15  O   UNL     1      -7.032   1.103 -34.976  1.00  0.00    -0.267 OA
BRANCH  13  16
HETATM   16  C   UNL     1      -6.404  -1.575 -33.801  1.00  0.00     0.041 A 
HETATM   17  C   UNL     1      -4.991  -1.605 -33.778  1.00  0.00    -0.035 A 
HETATM   18  C   UNL     1      -4.164  -0.505 -33.169  1.00  0.00     0.050 C 
HETATM   19  C   UNL     1      -4.315  -2.716 -34.319  1.00  0.00     0.009 A 
HETATM   20  C   UNL     1      -5.017  -3.778 -34.883  1.00  0.00     0.001 A 
HETATM   21  C   UNL     1      -6.404  -3.748 -34.907  1.00  0.00     0.002 A 
HETATM   22  C   UNL     1      -7.090  -2.658 -34.368  1.00  0.00     0.030 A 
ENDBRANCH  13  16
ENDBRANCH   1  12
BRANCH   2  23
HETATM   23  C   UNL     1      -6.046   2.882 -32.200  1.00  0.00    -0.027 A 
HETATM   24  C   UNL     1      -5.050   3.555 -32.929  1.00  0.00     0.028 A 
HETATM   25  C   UNL     1      -3.709   3.440 -32.560  1.00  0.00     0.011 A 
HETATM   26 BR   UNL     1      -2.385   4.346 -33.561  1.00  0.00    -0.051 Br
HETATM   27  C   UNL     1      -3.340   2.662 -31.469  1.00  0.00     0.019 A 
HETATM   28  C   UNL     1      -4.318   1.996 -30.733  1.00  0.00     0.002 A 
HETATM   29  C   UNL     1      -5.664   2.106 -31.092  1.00  0.00     0.010 A 
ENDBRANCH   2  23
BRANCH   7  30
HETATM   30  C   UNL     1      -9.126   6.320 -29.411  1.00  0.00     0.085 C 
BRANCH  30  31
HETATM   31  C   UNL     1      -9.665   7.545 -30.144  1.00  0.00     0.034 C 
BRANCH  31  32
HETATM   32  C   UNL     1     -11.177   7.515 -30.327  1.00  0.00     0.164 C 
BRANCH  32  33
HETATM   33  O   UNL     1     -11.793   8.324 -29.330  1.00  0.00    -0.401 OA
HETATM   34  H   UNL     1     -12.657   8.608 -29.675  1.00  0.00     0.209 HD
ENDBRANCH  32  33
ENDBRANCH  31  32
ENDBRANCH  30  31
ENDBRANCH   7  30
TORSDOF 7
ENDMDL
MODEL 4
REMARK VINA RESULT:      -8.0      1.572      1.995
REMARK  7 active torsions:
REMARK  status: ('A' for Active; 'I' for Inactive)
REMARK    1  A    between atoms: C_3  and  N_4 
REMARK       I    between atoms: N_4  and  C_5 
REMARK    2  A    between atoms: C_5  and  C_6 
REMARK    3  A    between atoms: C_7  and  C_8 
REMARK    4  A    between atoms: C_19  and  C_20 
REMARK    5  A    between atoms: C_20  and  C_21 
REMARK    6  A    between atoms: C_21  and  C_22 
REMARK    7  A    between atoms: C_22  and  O_23 
ROOT
HETATM    1  C   UNL     1      -7.598   3.990 -31.543  1.00  0.00     0.062 A 
HETATM    2  C   UNL     1      -6.455   3.425 -32.377  1.00  0.00     0.202 A 
HETATM    3  N   UNL     1      -5.196   4.131 -32.108  1.00  0.00    -0.083 N 
HETATM    4  C   UNL     1      -5.088   5.212 -31.275  1.00  0.00     0.726 A 
HETATM    5  N   UNL     1      -6.181   5.665 -30.635  1.00  0.00    -0.192 N 
HETATM    6  N   UNL     1      -4.027   3.883 -32.740  1.00  0.00    -0.140 NA
HETATM    7  C   UNL     1      -3.230   4.790 -32.156  1.00  0.00     0.166 A 
HETATM    8  N   UNL     1      -3.851   5.635 -31.266  1.00  0.00    -0.046 NA
HETATM    9  C   UNL     1      -7.428   5.057 -30.725  1.00  0.00     0.037 A 
HETATM   10  C   UNL     1      -8.517   5.665 -29.876  1.00  0.00     0.070 C 
HETATM   11  H   UNL     1      -6.081   6.441 -29.986  1.00  0.00     0.184 HD
ENDROOT
BRANCH   1  12
HETATM   12  C   UNL     1      -8.883   3.243 -31.542  1.00  0.00     0.256 C 
HETATM   13  N   UNL     1      -9.601   3.394 -32.708  1.00  0.00    -0.323 N 
HETATM   14  H   UNL     1      -9.239   4.041 -33.393  1.00  0.00     0.169 HD
HETATM   15  O   UNL     1      -9.189   2.597 -30.548  1.00  0.00    -0.267 OA
BRANCH  13  16
HETATM   16  C   UNL     1     -10.828   2.766 -33.045  1.00  0.00     0.041 A 
HETATM   17  C   UNL     1     -12.024   3.514 -32.969  1.00  0.00    -0.035 A 
HETATM   18  C   UNL     1     -12.053   4.962 -32.555  1.00  0.00     0.050 C 
HETATM   19  C   UNL     1     -13.244   2.905 -33.319  1.00  0.00     0.009 A 
HETATM   20  C   UNL     1     -13.290   1.574 -33.727  1.00  0.00     0.001 A 
HETATM   21  C   UNL     1     -12.115   0.838 -33.800  1.00  0.00     0.002 A 
HETATM   22  C   UNL     1     -10.896   1.430 -33.465  1.00  0.00     0.030 A 
ENDBRANCH  13  16
ENDBRANCH   1  12
BRANCH   2  23
HETATM   23  C   UNL     1      -6.269   1.919 -32.231  1.00  0.00    -0.027 A 
HETATM   24  C   UNL     1      -6.538   1.075 -33.323  1.00  0.00     0.028 A 
HETATM   25  C   UNL     1      -6.394  -0.307 -33.197  1.00  0.00     0.011 A 
HETATM   26 BR   UNL     1      -6.771  -1.424 -34.676  1.00  0.00    -0.051 Br
HETATM   27  C   UNL     1      -5.981  -0.869 -31.993  1.00  0.00     0.019 A 
HETATM   28  C   UNL     1      -5.703  -0.042 -30.906  1.00  0.00     0.002 A 
HETATM   29  C   UNL     1      -5.842   1.343 -31.022  1.00  0.00     0.010 A 
ENDBRANCH   2  23
BRANCH   7  30
HETATM   30  C   UNL     1      -1.780   4.900 -32.455  1.00  0.00     0.085 C 
BRANCH  30  31
HETATM   31  C   UNL     1      -1.486   5.372 -33.876  1.00  0.00     0.034 C 
BRANCH  31  32
HETATM   32  C   UNL     1      -2.254   6.632 -34.258  1.00  0.00     0.164 C 
BRANCH  32  33
HETATM   33  O   UNL     1      -1.504   7.781 -33.877  1.00  0.00    -0.401 OA
HETATM   34  H   UNL     1      -2.118   8.534 -33.846  1.00  0.00     0.209 HD
ENDBRANCH  32  33
ENDBRANCH  31  32
ENDBRANCH  30  31
ENDBRANCH   7  30
TORSDOF 7
ENDMDL
MODEL 5
REMARK VINA RESULT:      -8.0      3.551      6.589
REMARK  7 active torsions:
REMARK  status: ('A' for Active; 'I' for Inactive)
REMARK    1  A    between atoms: C_3  and  N_4 
REMARK       I    between atoms: N_4  and  C_5 
REMARK    2  A    between atoms: C_5  and  C_6 
REMARK    3  A    between atoms: C_7  and  C_8 
REMARK    4  A    between atoms: C_19  and  C_20 
REMARK    5  A    between atoms: C_20  and  C_21 
REMARK    6  A    between atoms: C_21  and  C_22 
REMARK    7  A    between atoms: C_22  and  O_23 
ROOT
HETATM    1  C   UNL     1      -5.911   1.977 -32.984  1.00  0.00     0.062 A 
HETATM    2  C   UNL     1      -6.645   1.122 -34.010  1.00  0.00     0.202 A 
HETATM    3  N   UNL     1      -6.031  -0.205 -34.139  1.00  0.00    -0.083 N 
HETATM    4  C   UNL     1      -4.894  -0.589 -33.481  1.00  0.00     0.726 A 
HETATM    5  N   UNL     1      -4.293   0.273 -32.641  1.00  0.00    -0.192 N 
HETATM    6  N   UNL     1      -6.435  -1.155 -35.011  1.00  0.00    -0.140 NA
HETATM    7  C   UNL     1      -5.553  -2.130 -34.745  1.00  0.00     0.166 A 
HETATM    8  N   UNL     1      -4.582  -1.811 -33.824  1.00  0.00    -0.046 NA
HETATM    9  C   UNL     1      -4.796   1.537 -32.354  1.00  0.00     0.037 A 
HETATM   10  C   UNL     1      -4.022   2.333 -31.331  1.00  0.00     0.070 C 
HETATM   11  H   UNL     1      -3.475  -0.038 -32.125  1.00  0.00     0.184 HD
ENDROOT
BRANCH   1  12
HETATM   12  C   UNL     1      -6.541   3.263 -32.584  1.00  0.00     0.256 C 
HETATM   13  N   UNL     1      -7.292   3.165 -31.433  1.00  0.00    -0.323 N 
HETATM   14  H   UNL     1      -7.408   2.246 -31.034  1.00  0.00     0.169 HD
HETATM   15  O   UNL     1      -6.361   4.251 -33.283  1.00  0.00    -0.267 OA
BRANCH  13  16
HETATM   16  C   UNL     1      -7.964   4.217 -30.759  1.00  0.00     0.041 A 
HETATM   17  C   UNL     1      -7.295   4.905 -29.722  1.00  0.00    -0.035 A 
HETATM   18  C   UNL     1      -5.886   4.575 -29.305  1.00  0.00     0.050 C 
HETATM   19  C   UNL     1      -7.948   5.962 -29.059  1.00  0.00     0.009 A 
HETATM   20  C   UNL     1      -9.245   6.332 -29.405  1.00  0.00     0.001 A 
HETATM   21  C   UNL     1      -9.903   5.656 -30.422  1.00  0.00     0.002 A 
HETATM   22  C   UNL     1      -9.267   4.611 -31.095  1.00  0.00     0.030 A 
ENDBRANCH  13  16
ENDBRANCH   1  12
BRANCH   2  23
HETATM   23  C   UNL     1      -8.143   0.999 -33.754  1.00  0.00    -0.027 A 
HETATM   24  C   UNL     1      -9.035   1.873 -34.403  1.00  0.00     0.028 A 
HETATM   25  C   UNL     1     -10.406   1.786 -34.160  1.00  0.00     0.011 A 
HETATM   26 BR   UNL     1     -11.585   2.977 -35.035  1.00  0.00    -0.051 Br
HETATM   27  C   UNL     1     -10.910   0.836 -33.278  1.00  0.00     0.019 A 
HETATM   28  C   UNL     1     -10.038  -0.041 -32.636  1.00  0.00     0.002 A 
HETATM   29  C   UNL     1      -8.664   0.036 -32.872  1.00  0.00     0.010 A 
ENDBRANCH   2  23
BRANCH   7  30
HETATM   30  C   UNL     1      -5.597  -3.459 -35.404  1.00  0.00     0.085 C 
BRANCH  30  31
HETATM   31  C   UNL     1      -5.697  -4.622 -34.422  1.00  0.00     0.034 C 
BRANCH  31  32
HETATM   32  C   UNL     1      -4.364  -5.323 -34.187  1.00  0.00     0.164 C 
BRANCH  32  33
HETATM   33  O   UNL     1      -3.605  -4.595 -33.227  1.00  0.00    -0.401 OA
HETATM   34  H   UNL     1      -4.054  -3.744 -33.084  1.00  0.00     0.209 HD
ENDBRANCH  32  33
ENDBRANCH  31  32
ENDBRANCH  30  31
ENDBRANCH   7  30
TORSDOF 7
ENDMDL
MODEL 6
REMARK VINA RESULT:      -7.9      3.529      6.743
REMARK  7 active torsions:
REMARK  status: ('A' for Active; 'I' for Inactive)
REMARK    1  A    between atoms: C_3  and  N_4 
REMARK       I    between atoms: N_4  and  C_5 
REMARK    2  A    between atoms: C_5  and  C_6 
REMARK    3  A    between atoms: C_7  and  C_8 
REMARK    4  A    between atoms: C_19  and  C_20 
REMARK    5  A    between atoms: C_20  and  C_21 
REMARK    6  A    between atoms: C_21  and  C_22 
REMARK    7  A    between atoms: C_22  and  O_23 
ROOT
HETATM    1  C   UNL     1      -5.817   2.317 -31.670  1.00  0.00     0.062 A 
HETATM    2  C   UNL     1      -7.183   2.754 -31.157  1.00  0.00     0.202 A 
HETATM    3  N   UNL     1      -7.069   3.878 -30.219  1.00  0.00    -0.083 N 
HETATM    4  C   UNL     1      -5.877   4.406 -29.800  1.00  0.00     0.726 A 
HETATM    5  N   UNL     1      -4.726   3.898 -30.275  1.00  0.00    -0.192 N 
HETATM    6  N   UNL     1      -8.109   4.440 -29.565  1.00  0.00    -0.140 NA
HETATM    7  C   UNL     1      -7.474   5.376 -28.843  1.00  0.00     0.166 A 
HETATM    8  N   UNL     1      -6.103   5.372 -28.948  1.00  0.00    -0.046 NA
HETATM    9  C   UNL     1      -4.670   2.886 -31.226  1.00  0.00     0.037 A 
HETATM   10  C   UNL     1      -3.288   2.499 -31.691  1.00  0.00     0.070 C 
HETATM   11  H   UNL     1      -3.849   4.326 -29.990  1.00  0.00     0.184 HD
ENDROOT
BRANCH   1  12
HETATM   12  C   UNL     1      -5.784   1.337 -32.788  1.00  0.00     0.256 C 
HETATM   13  N   UNL     1      -5.688   0.030 -32.363  1.00  0.00    -0.323 N 
HETATM   14  H   UNL     1      -5.569  -0.126 -31.373  1.00  0.00     0.169 HD
HETATM   15  O   UNL     1      -5.827   1.753 -33.938  1.00  0.00    -0.267 OA
BRANCH  13  16
HETATM   16  C   UNL     1      -5.697  -1.135 -33.172  1.00  0.00     0.041 A 
HETATM   17  C   UNL     1      -4.520  -1.911 -33.269  1.00  0.00    -0.035 A 
HETATM   18  C   UNL     1      -3.252  -1.560 -32.538  1.00  0.00     0.050 C 
HETATM   19  C   UNL     1      -4.526  -3.080 -34.055  1.00  0.00     0.009 A 
HETATM   20  C   UNL     1      -5.669  -3.474 -34.745  1.00  0.00     0.001 A 
HETATM   21  C   UNL     1      -6.824  -2.711 -34.651  1.00  0.00     0.002 A 
HETATM   22  C   UNL     1      -6.839  -1.554 -33.869  1.00  0.00     0.030 A 
ENDBRANCH  13  16
ENDBRANCH   1  12
BRANCH   2  23
HETATM   23  C   UNL     1      -8.185   3.074 -32.261  1.00  0.00    -0.027 A 
HETATM   24  C   UNL     1      -9.267   2.207 -32.492  1.00  0.00     0.028 A 
HETATM   25  C   UNL     1     -10.178   2.476 -33.514  1.00  0.00     0.011 A 
HETATM   26 BR   UNL     1     -11.621   1.291 -33.813  1.00  0.00    -0.051 Br
HETATM   27  C   UNL     1     -10.031   3.603 -34.315  1.00  0.00     0.019 A 
HETATM   28  C   UNL     1      -8.967   4.475 -34.091  1.00  0.00     0.002 A 
HETATM   29  C   UNL     1      -8.050   4.216 -33.070  1.00  0.00     0.010 A 
ENDBRANCH   2  23
BRANCH   7  30
HETATM   30  C   UNL     1      -8.187   6.342 -27.971  1.00  0.00     0.085 C 
BRANCH  30  31
HETATM   31  C   UNL     1      -8.951   7.412 -28.746  1.00  0.00     0.034 C 
BRANCH  31  32
HETATM   32  C   UNL     1     -10.076   8.048 -27.938  1.00  0.00     0.164 C 
BRANCH  32  33
HETATM   33  O   UNL     1      -9.989   7.620 -26.583  1.00  0.00    -0.401 OA
HETATM   34  H   UNL     1     -10.869   7.301 -26.319  1.00  0.00     0.209 HD
ENDBRANCH  32  33
ENDBRANCH  31  32
ENDBRANCH  30  31
ENDBRANCH   7  30
TORSDOF 7
ENDMDL
MODEL 7
REMARK VINA RESULT:      -7.6      3.687      6.401
REMARK  7 active torsions:
REMARK  status: ('A' for Active; 'I' for Inactive)
REMARK    1  A    between atoms: C_3  and  N_4 
REMARK       I    between atoms: N_4  and  C_5 
REMARK    2  A    between atoms: C_5  and  C_6 
REMARK    3  A    between atoms: C_7  and  C_8 
REMARK    4  A    between atoms: C_19  and  C_20 
REMARK    5  A    between atoms: C_20  and  C_21 
REMARK    6  A    between atoms: C_21  and  C_22 
REMARK    7  A    between atoms: C_22  and  O_23 
ROOT
HETATM    1  C   UNL     1      -6.379   1.881 -30.954  1.00  0.00     0.062 A 
HETATM    2  C   UNL     1      -7.811   2.332 -30.698  1.00  0.00     0.202 A 
HETATM    3  N   UNL     1      -7.887   3.785 -30.499  1.00  0.00    -0.083 N 
HETATM    4  C   UNL     1      -6.796   4.610 -30.467  1.00  0.00     0.726 A 
HETATM    5  N   UNL     1      -5.568   4.090 -30.645  1.00  0.00    -0.192 N 
HETATM    6  N   UNL     1      -9.019   4.460 -30.200  1.00  0.00    -0.140 NA
HETATM    7  C   UNL     1      -8.546   5.712 -30.105  1.00  0.00     0.166 A 
HETATM    8  N   UNL     1      -7.184   5.839 -30.244  1.00  0.00    -0.046 NA
HETATM    9  C   UNL     1      -5.338   2.748 -30.921  1.00  0.00     0.037 A 
HETATM   10  C   UNL     1      -3.899   2.365 -31.164  1.00  0.00     0.070 C 
HETATM   11  H   UNL     1      -4.769   4.719 -30.662  1.00  0.00     0.184 HD
ENDROOT
BRANCH   1  12
HETATM   12  C   UNL     1      -6.169   0.474 -31.389  1.00  0.00     0.256 C 
HETATM   13  N   UNL     1      -5.846   0.359 -32.723  1.00  0.00    -0.323 N 
HETATM   14  H   UNL     1      -5.865   1.203 -33.277  1.00  0.00     0.169 HD
HETATM   15  O   UNL     1      -6.307  -0.424 -30.568  1.00  0.00    -0.267 OA
BRANCH  13  16
HETATM   16  C   UNL     1      -5.525  -0.830 -33.426  1.00  0.00     0.041 A 
HETATM   17  C   UNL     1      -6.317  -1.208 -34.533  1.00  0.00    -0.035 A 
HETATM   18  C   UNL     1      -7.489  -0.391 -35.009  1.00  0.00     0.050 C 
HETATM   19  C   UNL     1      -5.995  -2.377 -35.248  1.00  0.00     0.009 A 
HETATM   20  C   UNL     1      -4.914  -3.171 -34.873  1.00  0.00     0.001 A 
HETATM   21  C   UNL     1      -4.136  -2.802 -33.785  1.00  0.00     0.002 A 
HETATM   22  C   UNL     1      -4.437  -1.640 -33.070  1.00  0.00     0.030 A 
ENDBRANCH  13  16
ENDBRANCH   1  12
BRANCH   2  23
HETATM   23  C   UNL     1      -8.802   1.883 -31.767  1.00  0.00    -0.027 A 
HETATM   24  C   UNL     1      -9.219   2.791 -32.756  1.00  0.00     0.028 A 
HETATM   25  C   UNL     1     -10.142   2.400 -33.726  1.00  0.00     0.011 A 
HETATM   26 BR   UNL     1     -10.696   3.641 -35.041  1.00  0.00    -0.051 Br
HETATM   27  C   UNL     1     -10.661   1.110 -33.731  1.00  0.00     0.019 A 
HETATM   28  C   UNL     1     -10.249   0.197 -32.760  1.00  0.00     0.002 A 
HETATM   29  C   UNL     1      -9.324   0.577 -31.785  1.00  0.00     0.010 A 
ENDBRANCH   2  23
BRANCH   7  30
HETATM   30  C   UNL     1      -9.417   6.885 -29.847  1.00  0.00     0.085 C 
BRANCH  30  31
HETATM   31  C   UNL     1      -8.661   8.098 -29.314  1.00  0.00     0.034 C 
BRANCH  31  32
HETATM   32  C   UNL     1      -8.715   8.217 -27.795  1.00  0.00     0.164 C 
BRANCH  32  33
HETATM   33  O   UNL     1      -9.799   7.440 -27.295  1.00  0.00    -0.401 OA
HETATM   34  H   UNL     1      -9.939   6.701 -27.912  1.00  0.00     0.209 HD
ENDBRANCH  32  33
ENDBRANCH  31  32
ENDBRANCH  30  31
ENDBRANCH   7  30
TORSDOF 7
ENDMDL
MODEL 8
REMARK VINA RESULT:      -7.6      3.146      6.284
REMARK  7 active torsions:
REMARK  status: ('A' for Active; 'I' for Inactive)
REMARK    1  A    between atoms: C_3  and  N_4 
REMARK       I    between atoms: N_4  and  C_5 
REMARK    2  A    between atoms: C_5  and  C_6 
REMARK    3  A    between atoms: C_7  and  C_8 
REMARK    4  A    between atoms: C_19  and  C_20 
REMARK    5  A    between atoms: C_20  and  C_21 
REMARK    6  A    between atoms: C_21  and  C_22 
REMARK    7  A    between atoms: C_22  and  O_23 
ROOT
HETATM    1  C   UNL     1      -8.714   1.424 -33.525  1.00  0.00     0.062 A 
HETATM    2  C   UNL     1      -8.018   2.747 -33.817  1.00  0.00     0.202 A 
HETATM    3  N   UNL     1      -8.984   3.847 -33.929  1.00  0.00    -0.083 N 
HETATM    4  C   UNL     1     -10.341   3.683 -33.862  1.00  0.00     0.726 A 
HETATM    5  N   UNL     1     -10.849   2.454 -33.661  1.00  0.00    -0.192 N 
HETATM    6  N   UNL     1      -8.661   5.123 -34.236  1.00  0.00    -0.140 NA
HETATM    7  C   UNL     1      -9.874   5.696 -34.233  1.00  0.00     0.166 A 
HETATM    8  N   UNL     1     -10.930   4.839 -34.025  1.00  0.00    -0.046 NA
HETATM    9  C   UNL     1     -10.064   1.325 -33.459  1.00  0.00     0.037 A 
HETATM   10  C   UNL     1     -10.815   0.047 -33.176  1.00  0.00     0.070 C 
HETATM   11  H   UNL     1     -11.856   2.351 -33.570  1.00  0.00     0.184 HD
ENDROOT
BRANCH   1  12
HETATM   12  C   UNL     1      -7.859   0.260 -33.170  1.00  0.00     0.256 C 
HETATM   13  N   UNL     1      -7.304  -0.361 -34.267  1.00  0.00    -0.323 N 
HETATM   14  H   UNL     1      -7.588  -0.032 -35.178  1.00  0.00     0.169 HD
HETATM   15  O   UNL     1      -7.736  -0.043 -31.991  1.00  0.00    -0.267 OA
BRANCH  13  16
HETATM   16  C   UNL     1      -6.398  -1.453 -34.264  1.00  0.00     0.041 A 
HETATM   17  C   UNL     1      -5.092  -1.258 -33.762  1.00  0.00    -0.035 A 
HETATM   18  C   UNL     1      -4.619   0.063 -33.216  1.00  0.00     0.050 C 
HETATM   19  C   UNL     1      -4.192  -2.341 -33.738  1.00  0.00     0.009 A 
HETATM   20  C   UNL     1      -4.567  -3.596 -34.210  1.00  0.00     0.001 A 
HETATM   21  C   UNL     1      -5.849  -3.787 -34.705  1.00  0.00     0.002 A 
HETATM   22  C   UNL     1      -6.757  -2.726 -34.728  1.00  0.00     0.030 A 
ENDBRANCH  13  16
ENDBRANCH   1  12
BRANCH   2  23
HETATM   23  C   UNL     1      -6.916   3.098 -32.824  1.00  0.00    -0.027 A 
HETATM   24  C   UNL     1      -5.614   3.354 -33.290  1.00  0.00     0.028 A 
HETATM   25  C   UNL     1      -4.591   3.654 -32.389  1.00  0.00     0.011 A 
HETATM   26 BR   UNL     1      -2.846   3.986 -33.037  1.00  0.00    -0.051 Br
HETATM   27  C   UNL     1      -4.843   3.706 -31.023  1.00  0.00     0.019 A 
HETATM   28  C   UNL     1      -6.131   3.461 -30.549  1.00  0.00     0.002 A 
HETATM   29  C   UNL     1      -7.163   3.162 -31.441  1.00  0.00     0.010 A 
ENDBRANCH   2  23
BRANCH   7  30
HETATM   30  C   UNL     1     -10.079   7.148 -34.456  1.00  0.00     0.085 C 
BRANCH  30  31
HETATM   31  C   UNL     1     -10.822   7.466 -35.751  1.00  0.00     0.034 C 
BRANCH  31  32
HETATM   32  C   UNL     1     -10.758   8.940 -36.131  1.00  0.00     0.164 C 
BRANCH  32  33
HETATM   33  O   UNL     1      -9.722   9.578 -35.393  1.00  0.00    -0.401 OA
HETATM   34  H   UNL     1      -9.114   9.987 -36.033  1.00  0.00     0.209 HD
ENDBRANCH  32  33
ENDBRANCH  31  32
ENDBRANCH  30  31
ENDBRANCH   7  30
TORSDOF 7
ENDMDL
MODEL 9
REMARK VINA RESULT:      -7.5      3.829      6.455
REMARK  7 active torsions:
REMARK  status: ('A' for Active; 'I' for Inactive)
REMARK    1  A    between atoms: C_3  and  N_4 
REMARK       I    between atoms: N_4  and  C_5 
REMARK    2  A    between atoms: C_5  and  C_6 
REMARK    3  A    between atoms: C_7  and  C_8 
REMARK    4  A    between atoms: C_19  and  C_20 
REMARK    5  A    between atoms: C_20  and  C_21 
REMARK    6  A    between atoms: C_21  and  C_22 
REMARK    7  A    between atoms: C_22  and  O_23 
ROOT
HETATM    1  C   UNL     1      -7.505   2.293 -31.923  1.00  0.00     0.062 A 
HETATM    2  C   UNL     1      -7.792   1.626 -33.263  1.00  0.00     0.202 A 
HETATM    3  N   UNL     1      -7.005   0.398 -33.429  1.00  0.00    -0.083 N 
HETATM    4  C   UNL     1      -6.073  -0.041 -32.528  1.00  0.00     0.726 A 
HETATM    5  N   UNL     1      -5.857   0.664 -31.403  1.00  0.00    -0.192 N 
HETATM    6  N   UNL     1      -7.012  -0.373 -34.539  1.00  0.00    -0.140 NA
HETATM    7  C   UNL     1      -6.131  -1.323 -34.189  1.00  0.00     0.166 A 
HETATM    8  N   UNL     1      -5.521  -1.141 -32.970  1.00  0.00    -0.046 NA
HETATM    9  C   UNL     1      -6.577   1.805 -31.065  1.00  0.00     0.037 A 
HETATM   10  C   UNL     1      -6.244   2.417 -29.727  1.00  0.00     0.070 C 
HETATM   11  H   UNL     1      -5.194   0.306 -30.721  1.00  0.00     0.184 HD
ENDROOT
BRANCH   1  12
HETATM   12  C   UNL     1      -8.382   3.423 -31.516  1.00  0.00     0.256 C 
HETATM   13  N   UNL     1      -8.008   4.628 -32.070  1.00  0.00    -0.323 N 
HETATM   14  H   UNL     1      -7.156   4.643 -32.611  1.00  0.00     0.169 HD
HETATM   15  O   UNL     1      -9.309   3.203 -30.748  1.00  0.00    -0.267 OA
BRANCH  13  16
HETATM   16  C   UNL     1      -8.669   5.875 -31.930  1.00  0.00     0.041 A 
HETATM   17  C   UNL     1      -9.378   6.402 -33.033  1.00  0.00    -0.035 A 
HETATM   18  C   UNL     1      -9.472   5.687 -34.355  1.00  0.00     0.050 C 
HETATM   19  C   UNL     1     -10.053   7.630 -32.898  1.00  0.00     0.009 A 
HETATM   20  C   UNL     1     -10.023   8.337 -31.699  1.00  0.00     0.001 A 
HETATM   21  C   UNL     1      -9.325   7.821 -30.616  1.00  0.00     0.002 A 
HETATM   22  C   UNL     1      -8.657   6.600 -30.730  1.00  0.00     0.030 A 
ENDBRANCH  13  16
ENDBRANCH   1  12
BRANCH   2  23
HETATM   23  C   UNL     1      -9.272   1.355 -33.514  1.00  0.00    -0.027 A 
HETATM   24  C   UNL     1     -10.001   2.206 -34.362  1.00  0.00     0.028 A 
HETATM   25  C   UNL     1     -11.361   1.983 -34.583  1.00  0.00     0.011 A 
HETATM   26 BR   UNL     1     -12.325   3.147 -35.720  1.00  0.00    -0.051 Br
HETATM   27  C   UNL     1     -12.012   0.917 -33.971  1.00  0.00     0.019 A 
HETATM   28  C   UNL     1     -11.298   0.061 -33.135  1.00  0.00     0.002 A 
HETATM   29  C   UNL     1      -9.936   0.274 -32.908  1.00  0.00     0.010 A 
ENDBRANCH   2  23
BRANCH   7  30
HETATM   30  C   UNL     1      -5.812  -2.484 -35.056  1.00  0.00     0.085 C 
BRANCH  30  31
HETATM   31  C   UNL     1      -6.627  -3.732 -34.726  1.00  0.00     0.034 C 
BRANCH  31  32
HETATM   32  C   UNL     1      -6.128  -4.980 -35.444  1.00  0.00     0.164 C 
BRANCH  32  33
HETATM   33  O   UNL     1      -5.072  -5.571 -34.693  1.00  0.00    -0.401 OA
HETATM   34  H   UNL     1      -4.507  -4.851 -34.366  1.00  0.00     0.209 HD
ENDBRANCH  32  33
ENDBRANCH  31  32
ENDBRANCH  30  31
ENDBRANCH   7  30
TORSDOF 7
ENDMDL
MODEL 10
REMARK VINA RESULT:      -7.5      3.997      6.238
REMARK  7 active torsions:
REMARK  status: ('A' for Active; 'I' for Inactive)
REMARK    1  A    between atoms: C_3  and  N_4 
REMARK       I    between atoms: N_4  and  C_5 
REMARK    2  A    between atoms: C_5  and  C_6 
REMARK    3  A    between atoms: C_7  and  C_8 
REMARK    4  A    between atoms: C_19  and  C_20 
REMARK    5  A    between atoms: C_20  and  C_21 
REMARK    6  A    between atoms: C_21  and  C_22 
REMARK    7  A    between atoms: C_22  and  O_23 
ROOT
HETATM    1  C   UNL     1      -4.280   4.853 -32.829  1.00  0.00     0.062 A 
HETATM    2  C   UNL     1      -4.036   5.095 -31.345  1.00  0.00     0.202 A 
HETATM    3  N   UNL     1      -2.985   6.097 -31.132  1.00  0.00    -0.083 N 
HETATM    4  C   UNL     1      -2.262   6.674 -32.142  1.00  0.00     0.726 A 
HETATM    5  N   UNL     1      -2.524   6.338 -33.417  1.00  0.00    -0.192 N 
HETATM    6  N   UNL     1      -2.518   6.474 -29.921  1.00  0.00    -0.140 NA
HETATM    7  C   UNL     1      -1.582   7.365 -30.280  1.00  0.00     0.166 A 
HETATM    8  N   UNL     1      -1.384   7.500 -31.634  1.00  0.00    -0.046 NA
HETATM    9  C   UNL     1      -3.540   5.463 -33.785  1.00  0.00     0.037 A 
HETATM   10  C   UNL     1      -3.729   5.266 -35.269  1.00  0.00     0.070 C 
HETATM   11  H   UNL     1      -2.011   6.804 -34.160  1.00  0.00     0.184 HD
ENDROOT
BRANCH   1  12
HETATM   12  C   UNL     1      -5.460   4.029 -33.206  1.00  0.00     0.256 C 
HETATM   13  N   UNL     1      -5.227   2.674 -33.122  1.00  0.00    -0.323 N 
HETATM   14  H   UNL     1      -4.286   2.380 -32.902  1.00  0.00     0.169 HD
HETATM   15  O   UNL     1      -6.487   4.596 -33.558  1.00  0.00    -0.267 OA
BRANCH  13  16
HETATM   16  C   UNL     1      -6.159   1.630 -33.352  1.00  0.00     0.041 A 
HETATM   17  C   UNL     1      -6.618   0.867 -32.255  1.00  0.00    -0.035 A 
HETATM   18  C   UNL     1      -6.167   1.122 -30.841  1.00  0.00     0.050 C 
HETATM   19  C   UNL     1      -7.557  -0.160 -32.471  1.00  0.00     0.009 A 
HETATM   20  C   UNL     1      -8.032  -0.439 -33.751  1.00  0.00     0.001 A 
HETATM   21  C   UNL     1      -7.580   0.309 -34.828  1.00  0.00     0.002 A 
HETATM   22  C   UNL     1      -6.654   1.336 -34.630  1.00  0.00     0.030 A 
ENDBRANCH  13  16
ENDBRANCH   1  12
BRANCH   2  23
HETATM   23  C   UNL     1      -5.293   5.459 -30.563  1.00  0.00    -0.027 A 
HETATM   24  C   UNL     1      -5.938   6.683 -30.813  1.00  0.00     0.028 A 
HETATM   25  C   UNL     1      -7.076   7.040 -30.088  1.00  0.00     0.011 A 
HETATM   26 BR   UNL     1      -7.923   8.695 -30.435  1.00  0.00    -0.051 Br
HETATM   27  C   UNL     1      -7.589   6.191 -29.113  1.00  0.00     0.019 A 
HETATM   28  C   UNL     1      -6.963   4.972 -28.861  1.00  0.00     0.002 A 
HETATM   29  C   UNL     1      -5.824   4.604 -29.581  1.00  0.00     0.010 A 
ENDBRANCH   2  23
BRANCH   7  30
HETATM   30  C   UNL     1      -0.791   8.144 -29.294  1.00  0.00     0.085 C 
BRANCH  30  31
HETATM   31  C   UNL     1       0.574   7.533 -28.990  1.00  0.00     0.034 C 
BRANCH  31  32
HETATM   32  C   UNL     1       0.621   6.811 -27.649  1.00  0.00     0.164 C 
BRANCH  32  33
HETATM   33  O   UNL     1      -0.213   5.658 -27.700  1.00  0.00    -0.401 OA
HETATM   34  H   UNL     1      -0.084   5.241 -28.568  1.00  0.00     0.209 HD
ENDBRANCH  32  33
ENDBRANCH  31  32
ENDBRANCH  30  31
ENDBRANCH   7  30
TORSDOF 7
ENDMDL
