MODEL 1
REMARK VINA RESULT:      -8.2      0.000      0.000
REMARK  14 active torsions:
REMARK  status: ('A' for Active; 'I' for Inactive)
REMARK    1  A    between atoms: C_2  and  N_3 
REMARK    2  A    between atoms: N_3  and  C_5 
REMARK    3  A    between atoms: N_3  and  C_37 
REMARK    4  A    between atoms: C_5  and  C_6 
REMARK    5  A    between atoms: C_6  and  N_7 
REMARK    6  A    between atoms: C_10  and  O_11 
REMARK    7  A    between atoms: C_12  and  C_13 
REMARK    8  A    between atoms: C_13  and  C_14 
REMARK    9  A    between atoms: C_18  and  O_19 
REMARK   10  A    between atoms: O_19  and  C_20 
REMARK   11  A    between atoms: C_20  and  C_21 
REMARK   12  A    between atoms: C_27  and  C_28 
REMARK   13  A    between atoms: C_30  and  O_31 
REMARK   14  A    between atoms: C_33  and  O_34 
ROOT
HETATM    1  N   UNL     1      -8.603   2.093 -32.366  1.00  0.00    -0.332 N 
HETATM    2  C   UNL     1      -8.402   2.992 -31.340  1.00  0.00     0.278 A 
HETATM    3  O   UNL     1      -9.019   3.081 -30.295  1.00  0.00    -0.265 OA
HETATM    4  C   UNL     1      -7.260   3.851 -31.710  1.00  0.00     0.146 A 
HETATM    5  C   UNL     1      -6.761   3.366 -32.850  1.00  0.00     0.059 A 
HETATM    6  C   UNL     1      -7.555   2.210 -33.379  1.00  0.00     0.161 A 
ENDROOT
BRANCH   5   7
HETATM    7  C   UNL     1      -5.644   3.886 -33.660  1.00  0.00     0.193 C 
HETATM    8  O   UNL     1      -5.845   4.097 -34.855  1.00  0.00    -0.287 OA
BRANCH   7   9
HETATM    9  C   UNL     1      -4.295   4.104 -33.068  1.00  0.00     0.015 A 
HETATM   10  C   UNL     1      -3.440   5.019 -33.693  1.00  0.00     0.025 A 
HETATM   11  C   UNL     1      -2.148   5.258 -33.192  1.00  0.00    -0.028 A 
HETATM   12  C   UNL     1      -1.251   6.249 -33.886  1.00  0.00     0.051 C 
HETATM   13  C   UNL     1      -1.714   4.583 -32.037  1.00  0.00     0.074 A 
HETATM   14  C   UNL     1      -2.555   3.645 -31.437  1.00  0.00     0.038 A 
HETATM   15  C   UNL     1      -3.831   3.395 -31.956  1.00  0.00     0.018 A 
BRANCH  13  16
HETATM   16  O   UNL     1      -0.461   4.907 -31.592  1.00  0.00    -0.350 OA
BRANCH  16  17
HETATM   17  C   UNL     1      -0.340   5.433 -30.269  1.00  0.00     0.179 C 
BRANCH  17  18
HETATM   18  C   UNL     1      -0.091   6.946 -30.355  1.00  0.00     0.002 C 
HETATM   19  C   UNL     1      -1.406   7.721 -30.461  1.00  0.00     0.011 C 
HETATM   20  C   UNL     1       0.708   7.423 -29.143  1.00  0.00     0.011 C 
ENDBRANCH  17  18
ENDBRANCH  16  17
ENDBRANCH  13  16
ENDBRANCH   7   9
ENDBRANCH   5   7
BRANCH   4  21
HETATM   21  O   UNL     1      -6.857   4.925 -30.978  1.00  0.00    -0.355 OA
HETATM   22  H   UNL     1      -7.643   5.496 -30.853  1.00  0.00     0.218 HD
ENDBRANCH   4  21
BRANCH   6  23
HETATM   23  C   UNL     1      -6.768   0.923 -33.555  1.00  0.00    -0.028 A 
HETATM   24  C   UNL     1      -5.870   0.452 -32.575  1.00  0.00     0.049 A 
HETATM   25  C   UNL     1      -5.188  -0.752 -32.767  1.00  0.00     0.101 A 
HETATM   26  C   UNL     1      -5.439  -1.509 -33.912  1.00  0.00     0.099 A 
HETATM   27  C   UNL     1      -6.308  -1.059 -34.893  1.00  0.00     0.040 A 
HETATM   28  C   UNL     1      -6.963   0.159 -34.721  1.00  0.00     0.012 A 
BRANCH  25  29
HETATM   29  O   UNL     1      -4.306  -1.291 -31.867  1.00  0.00    -0.353 OA
HETATM   30  C   UNL     1      -3.303  -0.382 -31.417  1.00  0.00     0.210 C 
ENDBRANCH  25  29
BRANCH  26  31
HETATM   31  O   UNL     1      -4.818  -2.711 -34.099  1.00  0.00    -0.358 OA
HETATM   32  H   UNL     1      -4.054  -2.529 -34.680  1.00  0.00     0.218 HD
ENDBRANCH  26  31
ENDBRANCH   6  23
BRANCH   1  33
HETATM   33  C   UNL     1      -9.481   0.934 -32.259  1.00  0.00     0.155 C 
BRANCH  33  34
HETATM   34  C   UNL     1     -10.538   0.837 -33.375  1.00  0.00     0.254 C 
BRANCH  34  35
HETATM   35  N   UNL     1     -11.847   1.554 -33.046  1.00  0.00    -0.070 N 
HETATM   36  H   UNL     1     -12.011   1.361 -32.049  1.00  0.00     0.279 HD
BRANCH  35  37
HETATM   37  C   UNL     1     -13.070   0.999 -33.765  1.00  0.00     0.230 C 
HETATM   38  C   UNL     1     -13.202  -0.501 -33.576  1.00  0.00     0.034 C 
ENDBRANCH  35  37
BRANCH  35  39
HETATM   39  C   UNL     1     -11.802   3.068 -33.168  1.00  0.00     0.230 C 
HETATM   40  C   UNL     1     -12.861   3.581 -34.127  1.00  0.00     0.034 C 
ENDBRANCH  35  39
ENDBRANCH  34  35
ENDBRANCH  33  34
ENDBRANCH   1  33
TORSDOF 14
ENDMDL
MODEL 2
REMARK VINA RESULT:      -7.8      2.259      8.686
REMARK  14 active torsions:
REMARK  status: ('A' for Active; 'I' for Inactive)
REMARK    1  A    between atoms: C_2  and  N_3 
REMARK    2  A    between atoms: N_3  and  C_5 
REMARK    3  A    between atoms: N_3  and  C_37 
REMARK    4  A    between atoms: C_5  and  C_6 
REMARK    5  A    between atoms: C_6  and  N_7 
REMARK    6  A    between atoms: C_10  and  O_11 
REMARK    7  A    between atoms: C_12  and  C_13 
REMARK    8  A    between atoms: C_13  and  C_14 
REMARK    9  A    between atoms: C_18  and  O_19 
REMARK   10  A    between atoms: O_19  and  C_20 
REMARK   11  A    between atoms: C_20  and  C_21 
REMARK   12  A    between atoms: C_27  and  C_28 
REMARK   13  A    between atoms: C_30  and  O_31 
REMARK   14  A    between atoms: C_33  and  O_34 
ROOT
HETATM    1  N   UNL     1      -4.182   4.192 -32.921  1.00  0.00    -0.332 N 
HETATM    2  C   UNL     1      -4.891   4.898 -33.871  1.00  0.00     0.278 A 
HETATM    3  O   UNL     1      -4.451   5.511 -34.825  1.00  0.00    -0.265 OA
HETATM    4  C   UNL     1      -6.325   4.770 -33.550  1.00  0.00     0.146 A 
HETATM    5  C   UNL     1      -6.422   3.916 -32.527  1.00  0.00     0.059 A 
HETATM    6  C   UNL     1      -5.083   3.465 -32.027  1.00  0.00     0.161 A 
ENDROOT
BRANCH   5   7
HETATM    7  C   UNL     1      -7.630   3.483 -31.801  1.00  0.00     0.193 C 
HETATM    8  O   UNL     1      -7.698   3.720 -30.597  1.00  0.00    -0.287 OA
BRANCH   7   9
HETATM    9  C   UNL     1      -8.718   2.734 -32.490  1.00  0.00     0.015 A 
HETATM   10  C   UNL     1      -9.541   3.435 -33.379  1.00  0.00     0.025 A 
HETATM   11  C   UNL     1     -10.596   2.789 -34.048  1.00  0.00    -0.028 A 
HETATM   12  C   UNL     1     -11.463   3.570 -34.999  1.00  0.00     0.051 C 
HETATM   13  C   UNL     1     -10.816   1.416 -33.837  1.00  0.00     0.074 A 
HETATM   14  C   UNL     1     -10.017   0.728 -32.922  1.00  0.00     0.038 A 
HETATM   15  C   UNL     1      -8.985   1.384 -32.242  1.00  0.00     0.018 A 
BRANCH  13  16
HETATM   16  O   UNL     1     -11.835   0.858 -34.561  1.00  0.00    -0.350 OA
BRANCH  16  17
HETATM   17  C   UNL     1     -12.967   0.363 -33.843  1.00  0.00     0.179 C 
BRANCH  17  18
HETATM   18  C   UNL     1     -14.130   1.353 -34.001  1.00  0.00     0.002 C 
HETATM   19  C   UNL     1     -15.416   0.639 -34.422  1.00  0.00     0.011 C 
HETATM   20  C   UNL     1     -14.353   2.123 -32.700  1.00  0.00     0.011 C 
ENDBRANCH  17  18
ENDBRANCH  16  17
ENDBRANCH  13  16
ENDBRANCH   7   9
ENDBRANCH   5   7
BRANCH   4  21
HETATM   21  O   UNL     1      -7.308   5.437 -34.214  1.00  0.00    -0.355 OA
HETATM   22  H   UNL     1      -7.400   5.010 -35.091  1.00  0.00     0.218 HD
ENDBRANCH   4  21
BRANCH   6  23
HETATM   23  C   UNL     1      -4.859   1.964 -32.068  1.00  0.00    -0.028 A 
HETATM   24  C   UNL     1      -5.314   1.166 -33.138  1.00  0.00     0.049 A 
HETATM   25  C   UNL     1      -5.062  -0.208 -33.148  1.00  0.00     0.101 A 
HETATM   26  C   UNL     1      -4.315  -0.777 -32.116  1.00  0.00     0.099 A 
HETATM   27  C   UNL     1      -3.869  -0.014 -31.049  1.00  0.00     0.040 A 
HETATM   28  C   UNL     1      -4.149   1.352 -31.018  1.00  0.00     0.012 A 
BRANCH  25  29
HETATM   29  O   UNL     1      -5.456  -1.057 -34.149  1.00  0.00    -0.353 OA
HETATM   30  C   UNL     1      -6.815  -1.480 -34.054  1.00  0.00     0.210 C 
ENDBRANCH  25  29
BRANCH  26  31
HETATM   31  O   UNL     1      -4.017  -2.110 -32.127  1.00  0.00    -0.358 OA
HETATM   32  H   UNL     1      -4.874  -2.575 -32.078  1.00  0.00     0.218 HD
ENDBRANCH  26  31
ENDBRANCH   6  23
BRANCH   1  33
HETATM   33  C   UNL     1      -2.762   3.885 -33.041  1.00  0.00     0.155 C 
BRANCH  33  34
HETATM   34  C   UNL     1      -1.904   4.393 -31.866  1.00  0.00     0.254 C 
BRANCH  34  35
HETATM   35  N   UNL     1      -0.931   5.507 -32.251  1.00  0.00    -0.070 N 
HETATM   36  H   UNL     1      -0.011   5.048 -32.303  1.00  0.00     0.279 HD
BRANCH  35  37
HETATM   37  C   UNL     1      -0.773   6.598 -31.200  1.00  0.00     0.230 C 
HETATM   38  C   UNL     1       0.683   6.827 -30.840  1.00  0.00     0.034 C 
ENDBRANCH  35  37
BRANCH  35  39
HETATM   39  C   UNL     1      -1.162   6.119 -33.622  1.00  0.00     0.230 C 
HETATM   40  C   UNL     1      -1.832   7.477 -33.519  1.00  0.00     0.034 C 
ENDBRANCH  35  39
ENDBRANCH  34  35
ENDBRANCH  33  34
ENDBRANCH   1  33
TORSDOF 14
ENDMDL
MODEL 3
REMARK VINA RESULT:      -7.8      2.472      4.647
REMARK  14 active torsions:
REMARK  status: ('A' for Active; 'I' for Inactive)
REMARK    1  A    between atoms: C_2  and  N_3 
REMARK    2  A    between atoms: N_3  and  C_5 
REMARK    3  A    between atoms: N_3  and  C_37 
REMARK    4  A    between atoms: C_5  and  C_6 
REMARK    5  A    between atoms: C_6  and  N_7 
REMARK    6  A    between atoms: C_10  and  O_11 
REMARK    7  A    between atoms: C_12  and  C_13 
REMARK    8  A    between atoms: C_13  and  C_14 
REMARK    9  A    between atoms: C_18  and  O_19 
REMARK   10  A    between atoms: O_19  and  C_20 
REMARK   11  A    between atoms: C_20  and  C_21 
REMARK   12  A    between atoms: C_27  and  C_28 
REMARK   13  A    between atoms: C_30  and  O_31 
REMARK   14  A    between atoms: C_33  and  O_34 
ROOT
HETATM    1  N   UNL     1      -6.210   2.558 -32.404  1.00  0.00    -0.332 N 
HETATM    2  C   UNL     1      -6.355   2.229 -31.072  1.00  0.00     0.278 A 
HETATM    3  O   UNL     1      -6.378   1.118 -30.578  1.00  0.00    -0.265 OA
HETATM    4  C   UNL     1      -6.460   3.485 -30.306  1.00  0.00     0.146 A 
HETATM    5  C   UNL     1      -6.255   4.486 -31.168  1.00  0.00     0.059 A 
HETATM    6  C   UNL     1      -6.076   4.003 -32.575  1.00  0.00     0.161 A 
ENDROOT
BRANCH   5   7
HETATM    7  C   UNL     1      -6.296   5.938 -30.918  1.00  0.00     0.193 C 
HETATM    8  O   UNL     1      -7.298   6.558 -31.270  1.00  0.00    -0.287 OA
BRANCH   7   9
HETATM    9  C   UNL     1      -5.142   6.650 -30.302  1.00  0.00     0.015 A 
HETATM   10  C   UNL     1      -4.272   7.351 -31.147  1.00  0.00     0.025 A 
HETATM   11  C   UNL     1      -3.155   8.031 -30.630  1.00  0.00    -0.028 A 
HETATM   12  C   UNL     1      -2.239   8.777 -31.563  1.00  0.00     0.051 C 
HETATM   13  C   UNL     1      -2.916   8.021 -29.244  1.00  0.00     0.074 A 
HETATM   14  C   UNL     1      -3.763   7.291 -28.408  1.00  0.00     0.038 A 
HETATM   15  C   UNL     1      -4.859   6.598 -28.934  1.00  0.00     0.018 A 
BRANCH  13  16
HETATM   16  O   UNL     1      -1.833   8.743 -28.821  1.00  0.00    -0.350 OA
BRANCH  16  17
HETATM   17  C   UNL     1      -0.995   8.161 -27.820  1.00  0.00     0.179 C 
BRANCH  17  18
HETATM   18  C   UNL     1       0.342   7.760 -28.458  1.00  0.00     0.002 C 
HETATM   19  C   UNL     1       1.509   8.525 -27.831  1.00  0.00     0.011 C 
HETATM   20  C   UNL     1       0.564   6.254 -28.327  1.00  0.00     0.011 C 
ENDBRANCH  17  18
ENDBRANCH  16  17
ENDBRANCH  13  16
ENDBRANCH   7   9
ENDBRANCH   5   7
BRANCH   4  21
HETATM   21  O   UNL     1      -6.727   3.535 -28.973  1.00  0.00    -0.355 OA
HETATM   22  H   UNL     1      -7.535   3.001 -28.825  1.00  0.00     0.218 HD
ENDBRANCH   4  21
BRANCH   6  23
HETATM   23  C   UNL     1      -4.758   4.395 -33.221  1.00  0.00    -0.028 A 
HETATM   24  C   UNL     1      -3.520   4.215 -32.570  1.00  0.00     0.049 A 
HETATM   25  C   UNL     1      -2.330   4.563 -33.212  1.00  0.00     0.101 A 
HETATM   26  C   UNL     1      -2.371   5.044 -34.521  1.00  0.00     0.099 A 
HETATM   27  C   UNL     1      -3.577   5.241 -35.176  1.00  0.00     0.040 A 
HETATM   28  C   UNL     1      -4.769   4.928 -34.524  1.00  0.00     0.012 A 
BRANCH  25  29
HETATM   29  O   UNL     1      -1.084   4.413 -32.662  1.00  0.00    -0.353 OA
HETATM   30  C   UNL     1      -0.823   5.283 -31.563  1.00  0.00     0.210 C 
ENDBRANCH  25  29
BRANCH  26  31
HETATM   31  O   UNL     1      -1.218   5.348 -35.187  1.00  0.00    -0.358 OA
HETATM   32  H   UNL     1      -0.556   5.544 -34.496  1.00  0.00     0.218 HD
ENDBRANCH  26  31
ENDBRANCH   6  23
BRANCH   1  33
HETATM   33  C   UNL     1      -5.835   1.596 -33.434  1.00  0.00     0.155 C 
BRANCH  33  34
HETATM   34  C   UNL     1      -6.850   1.477 -34.587  1.00  0.00     0.254 C 
BRANCH  34  35
HETATM   35  N   UNL     1      -7.901   0.388 -34.370  1.00  0.00    -0.070 N 
HETATM   36  H   UNL     1      -8.154   0.073 -35.317  1.00  0.00     0.279 HD
BRANCH  35  37
HETATM   37  C   UNL     1      -9.203   0.881 -33.754  1.00  0.00     0.230 C 
HETATM   38  C   UNL     1      -9.409   0.331 -32.355  1.00  0.00     0.034 C 
ENDBRANCH  35  37
BRANCH  35  39
HETATM   39  C   UNL     1      -7.406  -0.852 -33.645  1.00  0.00     0.230 C 
HETATM   40  C   UNL     1      -6.765  -1.839 -34.603  1.00  0.00     0.034 C 
ENDBRANCH  35  39
ENDBRANCH  34  35
ENDBRANCH  33  34
ENDBRANCH   1  33
TORSDOF 14
ENDMDL
MODEL 4
REMARK VINA RESULT:      -7.8      2.862      9.047
REMARK  14 active torsions:
REMARK  status: ('A' for Active; 'I' for Inactive)
REMARK    1  A    between atoms: C_2  and  N_3 
REMARK    2  A    between atoms: N_3  and  C_5 
REMARK    3  A    between atoms: N_3  and  C_37 
REMARK    4  A    between atoms: C_5  and  C_6 
REMARK    5  A    between atoms: C_6  and  N_7 
REMARK    6  A    between atoms: C_10  and  O_11 
REMARK    7  A    between atoms: C_12  and  C_13 
REMARK    8  A    between atoms: C_13  and  C_14 
REMARK    9  A    between atoms: C_18  and  O_19 
REMARK   10  A    between atoms: O_19  and  C_20 
REMARK   11  A    between atoms: C_20  and  C_21 
REMARK   12  A    between atoms: C_27  and  C_28 
REMARK   13  A    between atoms: C_30  and  O_31 
REMARK   14  A    between atoms: C_33  and  O_34 
ROOT
HETATM    1  N   UNL     1      -4.044   4.551 -31.836  1.00  0.00    -0.332 N 
HETATM    2  C   UNL     1      -2.999   3.684 -31.592  1.00  0.00     0.278 A 
HETATM    3  O   UNL     1      -1.807   3.916 -31.662  1.00  0.00    -0.265 OA
HETATM    4  C   UNL     1      -3.574   2.384 -31.196  1.00  0.00     0.146 A 
HETATM    5  C   UNL     1      -4.896   2.555 -31.099  1.00  0.00     0.059 A 
HETATM    6  C   UNL     1      -5.326   3.937 -31.491  1.00  0.00     0.161 A 
ENDROOT
BRANCH   5   7
HETATM    7  C   UNL     1      -5.932   1.557 -30.777  1.00  0.00     0.193 C 
HETATM    8  O   UNL     1      -5.735   0.805 -29.825  1.00  0.00    -0.287 OA
BRANCH   7   9
HETATM    9  C   UNL     1      -7.161   1.424 -31.608  1.00  0.00     0.015 A 
HETATM   10  C   UNL     1      -7.032   0.893 -32.897  1.00  0.00     0.025 A 
HETATM   11  C   UNL     1      -8.152   0.756 -33.736  1.00  0.00    -0.028 A 
HETATM   12  C   UNL     1      -7.982   0.180 -35.117  1.00  0.00     0.051 C 
HETATM   13  C   UNL     1      -9.422   1.140 -33.270  1.00  0.00     0.074 A 
HETATM   14  C   UNL     1      -9.542   1.703 -31.998  1.00  0.00     0.038 A 
HETATM   15  C   UNL     1      -8.418   1.859 -31.178  1.00  0.00     0.018 A 
BRANCH  13  16
HETATM   16  O   UNL     1     -10.463   0.933 -34.134  1.00  0.00    -0.350 OA
BRANCH  16  17
HETATM   17  C   UNL     1     -11.693   0.449 -33.590  1.00  0.00     0.179 C 
BRANCH  17  18
HETATM   18  C   UNL     1     -12.861   1.130 -34.316  1.00  0.00     0.002 C 
HETATM   19  C   UNL     1     -13.749   1.903 -33.338  1.00  0.00     0.011 C 
HETATM   20  C   UNL     1     -12.339   2.062 -35.408  1.00  0.00     0.011 C 
ENDBRANCH  17  18
ENDBRANCH  16  17
ENDBRANCH  13  16
ENDBRANCH   7   9
ENDBRANCH   5   7
BRANCH   4  21
HETATM   21  O   UNL     1      -2.832   1.262 -30.993  1.00  0.00    -0.355 OA
HETATM   22  H   UNL     1      -1.924   1.462 -31.302  1.00  0.00     0.218 HD
ENDBRANCH   4  21
BRANCH   6  23
HETATM   23  C   UNL     1      -6.069   4.704 -30.413  1.00  0.00    -0.028 A 
HETATM   24  C   UNL     1      -5.530   4.903 -29.125  1.00  0.00     0.049 A 
HETATM   25  C   UNL     1      -6.236   5.639 -28.172  1.00  0.00     0.101 A 
HETATM   26  C   UNL     1      -7.458   6.217 -28.518  1.00  0.00     0.099 A 
HETATM   27  C   UNL     1      -8.013   6.024 -29.773  1.00  0.00     0.040 A 
HETATM   28  C   UNL     1      -7.326   5.260 -30.715  1.00  0.00     0.012 A 
BRANCH  25  29
HETATM   29  O   UNL     1      -5.786   5.891 -26.902  1.00  0.00    -0.353 OA
HETATM   30  C   UNL     1      -4.615   6.703 -26.849  1.00  0.00     0.210 C 
ENDBRANCH  25  29
BRANCH  26  31
HETATM   31  O   UNL     1      -8.146   6.979 -27.617  1.00  0.00    -0.358 OA
HETATM   32  H   UNL     1      -7.791   6.739 -26.739  1.00  0.00     0.218 HD
ENDBRANCH  26  31
ENDBRANCH   6  23
BRANCH   1  33
HETATM   33  C   UNL     1      -3.873   5.988 -32.013  1.00  0.00     0.155 C 
BRANCH  33  34
HETATM   34  C   UNL     1      -3.510   6.408 -33.450  1.00  0.00     0.254 C 
BRANCH  34  35
HETATM   35  N   UNL     1      -2.146   7.088 -33.566  1.00  0.00    -0.070 N 
HETATM   36  H   UNL     1      -2.307   7.900 -34.177  1.00  0.00     0.279 HD
BRANCH  35  37
HETATM   37  C   UNL     1      -1.085   6.258 -34.279  1.00  0.00     0.230 C 
HETATM   38  C   UNL     1      -1.682   5.033 -34.946  1.00  0.00     0.034 C 
ENDBRANCH  35  37
BRANCH  35  39
HETATM   39  C   UNL     1      -1.594   7.654 -32.269  1.00  0.00     0.230 C 
HETATM   40  C   UNL     1      -0.284   6.990 -31.885  1.00  0.00     0.034 C 
ENDBRANCH  35  39
ENDBRANCH  34  35
ENDBRANCH  33  34
ENDBRANCH   1  33
TORSDOF 14
ENDMDL
MODEL 5
REMARK VINA RESULT:      -7.7      1.806      4.434
REMARK  14 active torsions:
REMARK  status: ('A' for Active; 'I' for Inactive)
REMARK    1  A    between atoms: C_2  and  N_3 
REMARK    2  A    between atoms: N_3  and  C_5 
REMARK    3  A    between atoms: N_3  and  C_37 
REMARK    4  A    between atoms: C_5  and  C_6 
REMARK    5  A    between atoms: C_6  and  N_7 
REMARK    6  A    between atoms: C_10  and  O_11 
REMARK    7  A    between atoms: C_12  and  C_13 
REMARK    8  A    between atoms: C_13  and  C_14 
REMARK    9  A    between atoms: C_18  and  O_19 
REMARK   10  A    between atoms: O_19  and  C_20 
REMARK   11  A    between atoms: C_20  and  C_21 
REMARK   12  A    between atoms: C_27  and  C_28 
REMARK   13  A    between atoms: C_30  and  O_31 
REMARK   14  A    between atoms: C_33  and  O_34 
ROOT
HETATM    1  N   UNL     1      -8.235   0.130 -32.956  1.00  0.00    -0.332 N 
HETATM    2  C   UNL     1      -7.204  -0.713 -33.313  1.00  0.00     0.278 A 
HETATM    3  O   UNL     1      -7.182  -1.518 -34.226  1.00  0.00    -0.265 OA
HETATM    4  C   UNL     1      -6.077  -0.463 -32.395  1.00  0.00     0.146 A 
HETATM    5  C   UNL     1      -6.422   0.575 -31.628  1.00  0.00     0.059 A 
HETATM    6  C   UNL     1      -7.815   1.054 -31.903  1.00  0.00     0.161 A 
ENDROOT
BRANCH   5   7
HETATM    7  C   UNL     1      -5.668   1.194 -30.522  1.00  0.00     0.193 C 
HETATM    8  O   UNL     1      -5.851   0.764 -29.385  1.00  0.00    -0.287 OA
BRANCH   7   9
HETATM    9  C   UNL     1      -4.746   2.339 -30.761  1.00  0.00     0.015 A 
HETATM   10  C   UNL     1      -5.165   3.616 -30.368  1.00  0.00     0.025 A 
HETATM   11  C   UNL     1      -4.348   4.741 -30.580  1.00  0.00    -0.028 A 
HETATM   12  C   UNL     1      -4.825   6.101 -30.145  1.00  0.00     0.051 C 
HETATM   13  C   UNL     1      -3.086   4.580 -31.179  1.00  0.00     0.074 A 
HETATM   14  C   UNL     1      -2.686   3.312 -31.603  1.00  0.00     0.038 A 
HETATM   15  C   UNL     1      -3.516   2.201 -31.410  1.00  0.00     0.018 A 
BRANCH  13  16
HETATM   16  O   UNL     1      -2.338   5.719 -31.308  1.00  0.00    -0.350 OA
BRANCH  16  17
HETATM   17  C   UNL     1      -1.055   5.606 -31.927  1.00  0.00     0.179 C 
BRANCH  17  18
HETATM   18  C   UNL     1      -1.022   6.500 -33.175  1.00  0.00     0.002 C 
HETATM   19  C   UNL     1      -1.335   5.701 -34.441  1.00  0.00     0.011 C 
HETATM   20  C   UNL     1      -2.005   7.660 -33.024  1.00  0.00     0.011 C 
ENDBRANCH  17  18
ENDBRANCH  16  17
ENDBRANCH  13  16
ENDBRANCH   7   9
ENDBRANCH   5   7
BRANCH   4  21
HETATM   21  O   UNL     1      -4.934  -1.201 -32.386  1.00  0.00    -0.355 OA
HETATM   22  H   UNL     1      -4.434  -0.962 -33.193  1.00  0.00     0.218 HD
ENDBRANCH   4  21
BRANCH   6  23
HETATM   23  C   UNL     1      -7.917   2.508 -32.329  1.00  0.00    -0.028 A 
HETATM   24  C   UNL     1      -7.030   3.082 -33.262  1.00  0.00     0.049 A 
HETATM   25  C   UNL     1      -7.178   4.416 -33.646  1.00  0.00     0.101 A 
HETATM   26  C   UNL     1      -8.240   5.164 -33.136  1.00  0.00     0.099 A 
HETATM   27  C   UNL     1      -9.117   4.625 -32.208  1.00  0.00     0.040 A 
HETATM   28  C   UNL     1      -8.950   3.303 -31.796  1.00  0.00     0.012 A 
BRANCH  25  29
HETATM   29  O   UNL     1      -6.370   5.053 -34.552  1.00  0.00    -0.353 OA
HETATM   30  C   UNL     1      -4.976   4.939 -34.273  1.00  0.00     0.210 C 
ENDBRANCH  25  29
BRANCH  26  31
HETATM   31  O   UNL     1      -8.432   6.457 -33.532  1.00  0.00    -0.358 OA
HETATM   32  H   UNL     1      -9.399   6.571 -33.611  1.00  0.00     0.218 HD
ENDBRANCH  26  31
ENDBRANCH   6  23
BRANCH   1  33
HETATM   33  C   UNL     1      -9.420   0.345 -33.777  1.00  0.00     0.155 C 
BRANCH  33  34
HETATM   34  C   UNL     1     -10.751   0.220 -33.011  1.00  0.00     0.254 C 
BRANCH  34  35
HETATM   35  N   UNL     1     -11.948   0.809 -33.758  1.00  0.00    -0.070 N 
HETATM   36  H   UNL     1     -11.688   0.762 -34.752  1.00  0.00     0.279 HD
BRANCH  35  37
HETATM   37  C   UNL     1     -12.199   2.286 -33.482  1.00  0.00     0.230 C 
HETATM   38  C   UNL     1     -11.623   3.170 -34.572  1.00  0.00     0.034 C 
ENDBRANCH  35  37
BRANCH  35  39
HETATM   39  C   UNL     1     -13.239   0.019 -33.633  1.00  0.00     0.230 C 
HETATM   40  C   UNL     1     -14.401   0.746 -34.285  1.00  0.00     0.034 C 
ENDBRANCH  35  39
ENDBRANCH  34  35
ENDBRANCH  33  34
ENDBRANCH   1  33
TORSDOF 14
ENDMDL
MODEL 6
REMARK VINA RESULT:      -7.7      2.634      7.353
REMARK  14 active torsions:
REMARK  status: ('A' for Active; 'I' for Inactive)
REMARK    1  A    between atoms: C_2  and  N_3 
REMARK    2  A    between atoms: N_3  and  C_5 
REMARK    3  A    between atoms: N_3  and  C_37 
REMARK    4  A    between atoms: C_5  and  C_6 
REMARK    5  A    between atoms: C_6  and  N_7 
REMARK    6  A    between atoms: C_10  and  O_11 
REMARK    7  A    between atoms: C_12  and  C_13 
REMARK    8  A    between atoms: C_13  and  C_14 
REMARK    9  A    between atoms: C_18  and  O_19 
REMARK   10  A    between atoms: O_19  and  C_20 
REMARK   11  A    between atoms: C_20  and  C_21 
REMARK   12  A    between atoms: C_27  and  C_28 
REMARK   13  A    between atoms: C_30  and  O_31 
REMARK   14  A    between atoms: C_33  and  O_34 
ROOT
HETATM    1  N   UNL     1      -8.646   4.293 -31.179  1.00  0.00    -0.332 N 
HETATM    2  C   UNL     1      -9.515   3.236 -31.352  1.00  0.00     0.278 A 
HETATM    3  O   UNL     1     -10.701   3.283 -31.620  1.00  0.00    -0.265 OA
HETATM    4  C   UNL     1      -8.749   1.988 -31.176  1.00  0.00     0.146 A 
HETATM    5  C   UNL     1      -7.466   2.334 -31.033  1.00  0.00     0.059 A 
HETATM    6  C   UNL     1      -7.271   3.820 -31.021  1.00  0.00     0.161 A 
ENDROOT
BRANCH   5   7
HETATM    7  C   UNL     1      -6.301   1.466 -30.785  1.00  0.00     0.193 C 
HETATM    8  O   UNL     1      -5.681   1.615 -29.733  1.00  0.00    -0.287 OA
BRANCH   7   9
HETATM    9  C   UNL     1      -5.850   0.469 -31.795  1.00  0.00     0.015 A 
HETATM   10  C   UNL     1      -4.795  -0.385 -31.454  1.00  0.00     0.025 A 
HETATM   11  C   UNL     1      -4.313  -1.338 -32.370  1.00  0.00    -0.028 A 
HETATM   12  C   UNL     1      -3.177  -2.244 -31.974  1.00  0.00     0.051 C 
HETATM   13  C   UNL     1      -4.909  -1.446 -33.639  1.00  0.00     0.074 A 
HETATM   14  C   UNL     1      -5.937  -0.568 -33.989  1.00  0.00     0.038 A 
HETATM   15  C   UNL     1      -6.394   0.393 -33.081  1.00  0.00     0.018 A 
BRANCH  13  16
HETATM   16  O   UNL     1      -4.408  -2.427 -34.452  1.00  0.00    -0.350 OA
BRANCH  16  17
HETATM   17  C   UNL     1      -5.256  -2.933 -35.485  1.00  0.00     0.179 C 
BRANCH  17  18
HETATM   18  C   UNL     1      -5.691  -4.359 -35.120  1.00  0.00     0.002 C 
HETATM   19  C   UNL     1      -4.674  -5.032 -34.195  1.00  0.00     0.011 C 
HETATM   20  C   UNL     1      -7.072  -4.344 -34.465  1.00  0.00     0.011 C 
ENDBRANCH  17  18
ENDBRANCH  16  17
ENDBRANCH  13  16
ENDBRANCH   7   9
ENDBRANCH   5   7
BRANCH   4  21
HETATM   21  O   UNL     1      -9.316   0.751 -31.164  1.00  0.00    -0.355 OA
HETATM   22  H   UNL     1      -9.730   0.636 -30.283  1.00  0.00     0.218 HD
ENDBRANCH   4  21
BRANCH   6  23
HETATM   23  C   UNL     1      -6.344   4.350 -32.101  1.00  0.00    -0.028 A 
HETATM   24  C   UNL     1      -5.274   5.221 -31.811  1.00  0.00     0.049 A 
HETATM   25  C   UNL     1      -4.429   5.662 -32.832  1.00  0.00     0.101 A 
HETATM   26  C   UNL     1      -4.622   5.196 -34.133  1.00  0.00     0.099 A 
HETATM   27  C   UNL     1      -5.675   4.349 -34.443  1.00  0.00     0.040 A 
HETATM   28  C   UNL     1      -6.541   3.936 -33.432  1.00  0.00     0.012 A 
BRANCH  25  29
HETATM   29  O   UNL     1      -3.360   6.498 -32.642  1.00  0.00    -0.353 OA
HETATM   30  C   UNL     1      -2.632   6.251 -31.440  1.00  0.00     0.210 C 
ENDBRANCH  25  29
BRANCH  26  31
HETATM   31  O   UNL     1      -3.781   5.577 -35.140  1.00  0.00    -0.358 OA
HETATM   32  H   UNL     1      -4.335   6.065 -35.779  1.00  0.00     0.218 HD
ENDBRANCH  26  31
ENDBRANCH   6  23
BRANCH   1  33
HETATM   33  C   UNL     1      -8.979   5.672 -31.514  1.00  0.00     0.155 C 
BRANCH  33  34
HETATM   34  C   UNL     1      -9.046   6.619 -30.300  1.00  0.00     0.254 C 
BRANCH  34  35
HETATM   35  N   UNL     1      -7.683   6.910 -29.672  1.00  0.00    -0.070 N 
HETATM   36  H   UNL     1      -7.016   6.342 -30.211  1.00  0.00     0.279 HD
BRANCH  35  37
HETATM   37  C   UNL     1      -7.537   6.436 -28.232  1.00  0.00     0.230 C 
HETATM   38  C   UNL     1      -6.149   5.888 -27.957  1.00  0.00     0.034 C 
ENDBRANCH  35  37
BRANCH  35  39
HETATM   39  C   UNL     1      -7.203   8.345 -29.809  1.00  0.00     0.230 C 
HETATM   40  C   UNL     1      -6.648   8.615 -31.196  1.00  0.00     0.034 C 
ENDBRANCH  35  39
ENDBRANCH  34  35
ENDBRANCH  33  34
ENDBRANCH   1  33
TORSDOF 14
ENDMDL
MODEL 7
REMARK VINA RESULT:      -7.6      2.300      7.953
REMARK  14 active torsions:
REMARK  status: ('A' for Active; 'I' for Inactive)
REMARK    1  A    between atoms: C_2  and  N_3 
REMARK    2  A    between atoms: N_3  and  C_5 
REMARK    3  A    between atoms: N_3  and  C_37 
REMARK    4  A    between atoms: C_5  and  C_6 
REMARK    5  A    between atoms: C_6  and  N_7 
REMARK    6  A    between atoms: C_10  and  O_11 
REMARK    7  A    between atoms: C_12  and  C_13 
REMARK    8  A    between atoms: C_13  and  C_14 
REMARK    9  A    between atoms: C_18  and  O_19 
REMARK   10  A    between atoms: O_19  and  C_20 
REMARK   11  A    between atoms: C_20  and  C_21 
REMARK   12  A    between atoms: C_27  and  C_28 
REMARK   13  A    between atoms: C_30  and  O_31 
REMARK   14  A    between atoms: C_33  and  O_34 
ROOT
HETATM    1  N   UNL     1      -5.517   1.390 -31.930  1.00  0.00    -0.332 N 
HETATM    2  C   UNL     1      -5.818   1.356 -30.585  1.00  0.00     0.278 A 
HETATM    3  O   UNL     1      -5.397   0.581 -29.747  1.00  0.00    -0.265 OA
HETATM    4  C   UNL     1      -6.752   2.463 -30.303  1.00  0.00     0.146 A 
HETATM    5  C   UNL     1      -6.871   3.170 -31.431  1.00  0.00     0.059 A 
HETATM    6  C   UNL     1      -6.105   2.567 -32.569  1.00  0.00     0.161 A 
ENDROOT
BRANCH   5   7
HETATM    7  C   UNL     1      -7.717   4.348 -31.693  1.00  0.00     0.193 C 
HETATM    8  O   UNL     1      -7.227   5.463 -31.520  1.00  0.00    -0.287 OA
BRANCH   7   9
HETATM    9  C   UNL     1      -9.140   4.201 -32.108  1.00  0.00     0.015 A 
HETATM   10  C   UNL     1      -9.426   4.149 -33.477  1.00  0.00     0.025 A 
HETATM   11  C   UNL     1     -10.751   4.026 -33.933  1.00  0.00    -0.028 A 
HETATM   12  C   UNL     1     -11.027   3.971 -35.412  1.00  0.00     0.051 C 
HETATM   13  C   UNL     1     -11.801   3.938 -33.002  1.00  0.00     0.074 A 
HETATM   14  C   UNL     1     -11.516   4.027 -31.639  1.00  0.00     0.038 A 
HETATM   15  C   UNL     1     -10.198   4.173 -31.194  1.00  0.00     0.018 A 
BRANCH  13  16
HETATM   16  O   UNL     1     -13.054   3.777 -33.531  1.00  0.00    -0.350 OA
BRANCH  16  17
HETATM   17  C   UNL     1     -13.816   2.646 -33.102  1.00  0.00     0.179 C 
BRANCH  17  18
HETATM   18  C   UNL     1     -13.647   1.514 -34.124  1.00  0.00     0.002 C 
HETATM   19  C   UNL     1     -12.548   0.538 -33.697  1.00  0.00     0.011 C 
HETATM   20  C   UNL     1     -14.968   0.770 -34.318  1.00  0.00     0.011 C 
ENDBRANCH  17  18
ENDBRANCH  16  17
ENDBRANCH  13  16
ENDBRANCH   7   9
ENDBRANCH   5   7
BRANCH   4  21
HETATM   21  O   UNL     1      -7.347   2.657 -29.095  1.00  0.00    -0.355 OA
HETATM   22  H   UNL     1      -6.886   2.078 -28.454  1.00  0.00     0.218 HD
ENDBRANCH   4  21
BRANCH   6  23
HETATM   23  C   UNL     1      -5.060   3.478 -33.189  1.00  0.00    -0.028 A 
HETATM   24  C   UNL     1      -3.781   3.648 -32.621  1.00  0.00     0.049 A 
HETATM   25  C   UNL     1      -2.840   4.475 -33.240  1.00  0.00     0.101 A 
HETATM   26  C   UNL     1      -3.159   5.092 -34.450  1.00  0.00     0.099 A 
HETATM   27  C   UNL     1      -4.414   4.949 -35.020  1.00  0.00     0.040 A 
HETATM   28  C   UNL     1      -5.367   4.153 -34.385  1.00  0.00     0.012 A 
BRANCH  25  29
HETATM   29  O   UNL     1      -1.572   4.691 -32.766  1.00  0.00    -0.353 OA
HETATM   30  C   UNL     1      -1.521   5.459 -31.566  1.00  0.00     0.210 C 
ENDBRANCH  25  29
BRANCH  26  31
HETATM   31  O   UNL     1      -2.240   5.869 -35.097  1.00  0.00    -0.358 OA
HETATM   32  H   UNL     1      -1.419   5.802 -34.573  1.00  0.00     0.218 HD
ENDBRANCH  26  31
ENDBRANCH   6  23
BRANCH   1  33
HETATM   33  C   UNL     1      -4.445   0.609 -32.535  1.00  0.00     0.155 C 
BRANCH  33  34
HETATM   34  C   UNL     1      -4.761  -0.892 -32.680  1.00  0.00     0.254 C 
BRANCH  34  35
HETATM   35  N   UNL     1      -5.305  -1.276 -34.056  1.00  0.00    -0.070 N 
HETATM   36  H   UNL     1      -4.830  -0.643 -34.714  1.00  0.00     0.279 HD
BRANCH  35  37
HETATM   37  C   UNL     1      -6.791  -1.004 -34.246  1.00  0.00     0.230 C 
HETATM   38  C   UNL     1      -7.037   0.122 -35.233  1.00  0.00     0.034 C 
ENDBRANCH  35  37
BRANCH  35  39
HETATM   39  C   UNL     1      -4.960  -2.681 -34.517  1.00  0.00     0.230 C 
HETATM   40  C   UNL     1      -6.198  -3.445 -34.949  1.00  0.00     0.034 C 
ENDBRANCH  35  39
ENDBRANCH  34  35
ENDBRANCH  33  34
ENDBRANCH   1  33
TORSDOF 14
ENDMDL
MODEL 8
REMARK VINA RESULT:      -7.6      2.996      5.385
REMARK  14 active torsions:
REMARK  status: ('A' for Active; 'I' for Inactive)
REMARK    1  A    between atoms: C_2  and  N_3 
REMARK    2  A    between atoms: N_3  and  C_5 
REMARK    3  A    between atoms: N_3  and  C_37 
REMARK    4  A    between atoms: C_5  and  C_6 
REMARK    5  A    between atoms: C_6  and  N_7 
REMARK    6  A    between atoms: C_10  and  O_11 
REMARK    7  A    between atoms: C_12  and  C_13 
REMARK    8  A    between atoms: C_13  and  C_14 
REMARK    9  A    between atoms: C_18  and  O_19 
REMARK   10  A    between atoms: O_19  and  C_20 
REMARK   11  A    between atoms: C_20  and  C_21 
REMARK   12  A    between atoms: C_27  and  C_28 
REMARK   13  A    between atoms: C_30  and  O_31 
REMARK   14  A    between atoms: C_33  and  O_34 
ROOT
HETATM    1  N   UNL     1      -6.164   2.055 -32.638  1.00  0.00    -0.332 N 
HETATM    2  C   UNL     1      -6.385   1.607 -31.353  1.00  0.00     0.278 A 
HETATM    3  O   UNL     1      -6.317   0.465 -30.940  1.00  0.00    -0.265 OA
HETATM    4  C   UNL     1      -6.710   2.778 -30.516  1.00  0.00     0.146 A 
HETATM    5  C   UNL     1      -6.552   3.861 -31.283  1.00  0.00     0.059 A 
HETATM    6  C   UNL     1      -6.191   3.516 -32.696  1.00  0.00     0.161 A 
ENDROOT
BRANCH   5   7
HETATM    7  C   UNL     1      -6.791   5.275 -30.939  1.00  0.00     0.193 C 
HETATM    8  O   UNL     1      -7.894   5.754 -31.196  1.00  0.00    -0.287 OA
BRANCH   7   9
HETATM    9  C   UNL     1      -5.718   6.118 -30.343  1.00  0.00     0.015 A 
HETATM   10  C   UNL     1      -5.489   6.018 -28.966  1.00  0.00     0.025 A 
HETATM   11  C   UNL     1      -4.500   6.799 -28.340  1.00  0.00    -0.028 A 
HETATM   12  C   UNL     1      -4.276   6.669 -26.857  1.00  0.00     0.051 C 
HETATM   13  C   UNL     1      -3.719   7.679 -29.110  1.00  0.00     0.074 A 
HETATM   14  C   UNL     1      -3.975   7.804 -30.477  1.00  0.00     0.038 A 
HETATM   15  C   UNL     1      -4.977   7.041 -31.087  1.00  0.00     0.018 A 
BRANCH  13  16
HETATM   16  O   UNL     1      -2.752   8.368 -28.430  1.00  0.00    -0.350 OA
BRANCH  16  17
HETATM   17  C   UNL     1      -1.445   8.423 -29.005  1.00  0.00     0.179 C 
BRANCH  17  18
HETATM   18  C   UNL     1      -0.468   7.660 -28.099  1.00  0.00     0.002 C 
HETATM   19  C   UNL     1       0.983   8.039 -28.402  1.00  0.00     0.011 C 
HETATM   20  C   UNL     1      -0.789   7.925 -26.629  1.00  0.00     0.011 C 
ENDBRANCH  17  18
ENDBRANCH  16  17
ENDBRANCH  13  16
ENDBRANCH   7   9
ENDBRANCH   5   7
BRANCH   4  21
HETATM   21  O   UNL     1      -7.098   2.690 -29.215  1.00  0.00    -0.355 OA
HETATM   22  H   UNL     1      -7.935   2.181 -29.202  1.00  0.00     0.218 HD
ENDBRANCH   4  21
BRANCH   6  23
HETATM   23  C   UNL     1      -4.879   4.106 -33.181  1.00  0.00    -0.028 A 
HETATM   24  C   UNL     1      -3.683   3.984 -32.445  1.00  0.00     0.049 A 
HETATM   25  C   UNL     1      -2.492   4.518 -32.943  1.00  0.00     0.101 A 
HETATM   26  C   UNL     1      -2.485   5.130 -34.197  1.00  0.00     0.099 A 
HETATM   27  C   UNL     1      -3.651   5.271 -34.933  1.00  0.00     0.040 A 
HETATM   28  C   UNL     1      -4.848   4.771 -34.422  1.00  0.00     0.012 A 
BRANCH  25  29
HETATM   29  O   UNL     1      -1.283   4.438 -32.302  1.00  0.00    -0.353 OA
HETATM   30  C   UNL     1      -1.207   5.206 -31.103  1.00  0.00     0.210 C 
ENDBRANCH  25  29
BRANCH  26  31
HETATM   31  O   UNL     1      -1.324   5.619 -34.725  1.00  0.00    -0.358 OA
HETATM   32  H   UNL     1      -1.549   5.922 -35.626  1.00  0.00     0.218 HD
ENDBRANCH  26  31
ENDBRANCH   6  23
BRANCH   1  33
HETATM   33  C   UNL     1      -5.585   1.229 -33.690  1.00  0.00     0.155 C 
BRANCH  33  34
HETATM   34  C   UNL     1      -6.508   0.099 -34.186  1.00  0.00     0.254 C 
BRANCH  34  35
HETATM   35  N   UNL     1      -6.116  -1.286 -33.671  1.00  0.00    -0.070 N 
HETATM   36  H   UNL     1      -6.307  -1.256 -32.660  1.00  0.00     0.279 HD
BRANCH  35  37
HETATM   37  C   UNL     1      -4.631  -1.605 -33.784  1.00  0.00     0.230 C 
HETATM   38  C   UNL     1      -3.977  -1.740 -32.422  1.00  0.00     0.034 C 
ENDBRANCH  35  37
BRANCH  35  39
HETATM   39  C   UNL     1      -6.948  -2.435 -34.212  1.00  0.00     0.230 C 
HETATM   40  C   UNL     1      -6.087  -3.451 -34.941  1.00  0.00     0.034 C 
ENDBRANCH  35  39
ENDBRANCH  34  35
ENDBRANCH  33  34
ENDBRANCH   1  33
TORSDOF 14
ENDMDL
MODEL 9
REMARK VINA RESULT:      -7.6      1.866      4.554
REMARK  14 active torsions:
REMARK  status: ('A' for Active; 'I' for Inactive)
REMARK    1  A    between atoms: C_2  and  N_3 
REMARK    2  A    between atoms: N_3  and  C_5 
REMARK    3  A    between atoms: N_3  and  C_37 
REMARK    4  A    between atoms: C_5  and  C_6 
REMARK    5  A    between atoms: C_6  and  N_7 
REMARK    6  A    between atoms: C_10  and  O_11 
REMARK    7  A    between atoms: C_12  and  C_13 
REMARK    8  A    between atoms: C_13  and  C_14 
REMARK    9  A    between atoms: C_18  and  O_19 
REMARK   10  A    between atoms: O_19  and  C_20 
REMARK   11  A    between atoms: C_20  and  C_21 
REMARK   12  A    between atoms: C_27  and  C_28 
REMARK   13  A    between atoms: C_30  and  O_31 
REMARK   14  A    between atoms: C_33  and  O_34 
ROOT
HETATM    1  N   UNL     1      -8.100   0.062 -32.937  1.00  0.00    -0.332 N 
HETATM    2  C   UNL     1      -7.050  -0.744 -33.325  1.00  0.00     0.278 A 
HETATM    3  O   UNL     1      -7.028  -1.551 -34.236  1.00  0.00    -0.265 OA
HETATM    4  C   UNL     1      -5.905  -0.449 -32.444  1.00  0.00     0.146 A 
HETATM    5  C   UNL     1      -6.264   0.578 -31.669  1.00  0.00     0.059 A 
HETATM    6  C   UNL     1      -7.681   1.005 -31.901  1.00  0.00     0.161 A 
ENDROOT
BRANCH   5   7
HETATM    7  C   UNL     1      -5.498   1.228 -30.589  1.00  0.00     0.193 C 
HETATM    8  O   UNL     1      -5.529   0.720 -29.470  1.00  0.00    -0.287 OA
BRANCH   7   9
HETATM    9  C   UNL     1      -4.746   2.491 -30.828  1.00  0.00     0.015 A 
HETATM   10  C   UNL     1      -5.295   3.687 -30.349  1.00  0.00     0.025 A 
HETATM   11  C   UNL     1      -4.642   4.915 -30.555  1.00  0.00    -0.028 A 
HETATM   12  C   UNL     1      -5.257   6.184 -30.027  1.00  0.00     0.051 C 
HETATM   13  C   UNL     1      -3.412   4.942 -31.237  1.00  0.00     0.074 A 
HETATM   14  C   UNL     1      -2.885   3.754 -31.745  1.00  0.00     0.038 A 
HETATM   15  C   UNL     1      -3.553   2.539 -31.556  1.00  0.00     0.018 A 
BRANCH  13  16
HETATM   16  O   UNL     1      -2.824   6.173 -31.355  1.00  0.00    -0.350 OA
BRANCH  16  17
HETATM   17  C   UNL     1      -2.920   6.837 -32.617  1.00  0.00     0.179 C 
BRANCH  17  18
HETATM   18  C   UNL     1      -1.512   6.988 -33.210  1.00  0.00     0.002 C 
HETATM   19  C   UNL     1      -0.437   6.869 -32.128  1.00  0.00     0.011 C 
HETATM   20  C   UNL     1      -1.280   5.946 -34.303  1.00  0.00     0.011 C 
ENDBRANCH  17  18
ENDBRANCH  16  17
ENDBRANCH  13  16
ENDBRANCH   7   9
ENDBRANCH   5   7
BRANCH   4  21
HETATM   21  O   UNL     1      -4.736  -1.145 -32.469  1.00  0.00    -0.355 OA
HETATM   22  H   UNL     1      -4.970  -2.093 -32.537  1.00  0.00     0.218 HD
ENDBRANCH   4  21
BRANCH   6  23
HETATM   23  C   UNL     1      -7.850   2.452 -32.327  1.00  0.00    -0.028 A 
HETATM   24  C   UNL     1      -8.666   3.355 -31.614  1.00  0.00     0.049 A 
HETATM   25  C   UNL     1      -8.771   4.685 -32.025  1.00  0.00     0.101 A 
HETATM   26  C   UNL     1      -8.023   5.127 -33.118  1.00  0.00     0.099 A 
HETATM   27  C   UNL     1      -7.225   4.255 -33.841  1.00  0.00     0.040 A 
HETATM   28  C   UNL     1      -7.146   2.918 -33.454  1.00  0.00     0.012 A 
BRANCH  25  29
HETATM   29  O   UNL     1      -9.530   5.632 -31.389  1.00  0.00    -0.353 OA
HETATM   30  C   UNL     1     -10.760   5.138 -30.865  1.00  0.00     0.210 C 
ENDBRANCH  25  29
BRANCH  26  31
HETATM   31  O   UNL     1      -8.074   6.434 -33.511  1.00  0.00    -0.358 OA
HETATM   32  H   UNL     1      -7.162   6.669 -33.773  1.00  0.00     0.218 HD
ENDBRANCH  26  31
ENDBRANCH   6  23
BRANCH   1  33
HETATM   33  C   UNL     1      -9.318   0.230 -33.722  1.00  0.00     0.155 C 
BRANCH  33  34
HETATM   34  C   UNL     1     -10.618   0.097 -32.906  1.00  0.00     0.254 C 
BRANCH  34  35
HETATM   35  N   UNL     1     -11.751   0.995 -33.403  1.00  0.00    -0.070 N 
HETATM   36  H   UNL     1     -11.987   1.593 -32.600  1.00  0.00     0.279 HD
BRANCH  35  37
HETATM   37  C   UNL     1     -13.039   0.256 -33.741  1.00  0.00     0.230 C 
HETATM   38  C   UNL     1     -14.265   1.020 -33.276  1.00  0.00     0.034 C 
ENDBRANCH  35  37
BRANCH  35  39
HETATM   39  C   UNL     1     -11.375   1.947 -34.526  1.00  0.00     0.230 C 
HETATM   40  C   UNL     1     -11.537   3.396 -34.104  1.00  0.00     0.034 C 
ENDBRANCH  35  39
ENDBRANCH  34  35
ENDBRANCH  33  34
ENDBRANCH   1  33
TORSDOF 14
ENDMDL
MODEL 10
REMARK VINA RESULT:      -7.5      3.608      6.739
REMARK  14 active torsions:
REMARK  status: ('A' for Active; 'I' for Inactive)
REMARK    1  A    between atoms: C_2  and  N_3 
REMARK    2  A    between atoms: N_3  and  C_5 
REMARK    3  A    between atoms: N_3  and  C_37 
REMARK    4  A    between atoms: C_5  and  C_6 
REMARK    5  A    between atoms: C_6  and  N_7 
REMARK    6  A    between atoms: C_10  and  O_11 
REMARK    7  A    between atoms: C_12  and  C_13 
REMARK    8  A    between atoms: C_13  and  C_14 
REMARK    9  A    between atoms: C_18  and  O_19 
REMARK   10  A    between atoms: O_19  and  C_20 
REMARK   11  A    between atoms: C_20  and  C_21 
REMARK   12  A    between atoms: C_27  and  C_28 
REMARK   13  A    between atoms: C_30  and  O_31 
REMARK   14  A    between atoms: C_33  and  O_34 
ROOT
HETATM    1  N   UNL     1      -4.912   4.499 -32.462  1.00  0.00    -0.332 N 
HETATM    2  C   UNL     1      -4.920   4.618 -33.836  1.00  0.00     0.278 A 
HETATM    3  O   UNL     1      -5.682   4.091 -34.625  1.00  0.00    -0.265 OA
HETATM    4  C   UNL     1      -3.830   5.537 -34.216  1.00  0.00     0.146 A 
HETATM    5  C   UNL     1      -3.310   6.015 -33.082  1.00  0.00     0.059 A 
HETATM    6  C   UNL     1      -3.939   5.411 -31.863  1.00  0.00     0.161 A 
ENDROOT
BRANCH   5   7
HETATM    7  C   UNL     1      -2.172   6.936 -32.908  1.00  0.00     0.193 C 
HETATM    8  O   UNL     1      -1.852   7.648 -33.857  1.00  0.00    -0.287 OA
BRANCH   7   9
HETATM    9  C   UNL     1      -1.394   6.971 -31.638  1.00  0.00     0.015 A 
HETATM   10  C   UNL     1      -0.580   5.874 -31.331  1.00  0.00     0.025 A 
HETATM   11  C   UNL     1       0.167   5.839 -30.140  1.00  0.00    -0.028 A 
HETATM   12  C   UNL     1       1.034   4.646 -29.839  1.00  0.00     0.051 C 
HETATM   13  C   UNL     1       0.110   6.929 -29.253  1.00  0.00     0.074 A 
HETATM   14  C   UNL     1      -0.730   8.005 -29.543  1.00  0.00     0.038 A 
HETATM   15  C   UNL     1      -1.489   8.021 -30.719  1.00  0.00     0.018 A 
BRANCH  13  16
HETATM   16  O   UNL     1       0.901   6.832 -28.140  1.00  0.00    -0.350 OA
BRANCH  16  17
HETATM   17  C   UNL     1       0.254   6.770 -26.867  1.00  0.00     0.179 C 
BRANCH  17  18
HETATM   18  C   UNL     1       0.712   7.962 -26.015  1.00  0.00     0.002 C 
HETATM   19  C   UNL     1       1.972   8.609 -26.595  1.00  0.00     0.011 C 
HETATM   20  C   UNL     1      -0.407   8.996 -25.901  1.00  0.00     0.011 C 
ENDBRANCH  17  18
ENDBRANCH  16  17
ENDBRANCH  13  16
ENDBRANCH   7   9
ENDBRANCH   5   7
BRANCH   4  21
HETATM   21  O   UNL     1      -3.475   5.794 -35.504  1.00  0.00    -0.355 OA
HETATM   22  H   UNL     1      -3.785   6.699 -35.710  1.00  0.00     0.218 HD
ENDBRANCH   4  21
BRANCH   6  23
HETATM   23  C   UNL     1      -4.581   6.408 -30.915  1.00  0.00    -0.028 A 
HETATM   24  C   UNL     1      -4.420   6.326 -29.517  1.00  0.00     0.049 A 
HETATM   25  C   UNL     1      -5.005   7.282 -28.683  1.00  0.00     0.101 A 
HETATM   26  C   UNL     1      -5.710   8.346 -29.247  1.00  0.00     0.099 A 
HETATM   27  C   UNL     1      -5.891   8.440 -30.618  1.00  0.00     0.040 A 
HETATM   28  C   UNL     1      -5.337   7.468 -31.450  1.00  0.00     0.012 A 
BRANCH  25  29
HETATM   29  O   UNL     1      -4.894   7.287 -27.317  1.00  0.00    -0.353 OA
HETATM   30  C   UNL     1      -3.578   7.018 -26.838  1.00  0.00     0.210 C 
ENDBRANCH  25  29
BRANCH  26  31
HETATM   31  O   UNL     1      -6.252   9.318 -28.456  1.00  0.00    -0.358 OA
HETATM   32  H   UNL     1      -6.184   8.984 -27.540  1.00  0.00     0.218 HD
ENDBRANCH  26  31
ENDBRANCH   6  23
BRANCH   1  33
HETATM   33  C   UNL     1      -5.987   3.871 -31.703  1.00  0.00     0.155 C 
BRANCH  33  34
HETATM   34  C   UNL     1      -5.504   2.888 -30.620  1.00  0.00     0.254 C 
BRANCH  34  35
HETATM   35  N   UNL     1      -5.028   1.545 -31.176  1.00  0.00    -0.070 N 
HETATM   36  H   UNL     1      -5.256   0.860 -30.442  1.00  0.00     0.279 HD
BRANCH  35  37
HETATM   37  C   UNL     1      -3.521   1.439 -31.365  1.00  0.00     0.230 C 
HETATM   38  C   UNL     1      -3.030   0.014 -31.194  1.00  0.00     0.034 C 
ENDBRANCH  35  37
BRANCH  35  39
HETATM   39  C   UNL     1      -5.755   1.069 -32.421  1.00  0.00     0.230 C 
HETATM   40  C   UNL     1      -6.755  -0.027 -32.097  1.00  0.00     0.034 C 
ENDBRANCH  35  39
ENDBRANCH  34  35
ENDBRANCH  33  34
ENDBRANCH   1  33
TORSDOF 14
ENDMDL
