MODEL 1
REMARK VINA RESULT:      -8.1      0.000      0.000
REMARK  5 active torsions:
REMARK  status: ('A' for Active; 'I' for Inactive)
REMARK    1  A    between atoms: C_2  and  C_3 
REMARK    2  A    between atoms: C_3  and  N_4 
REMARK    3  A    between atoms: C_3  and  C_18 
REMARK    4  A    between atoms: N_4  and  C_7 
REMARK    5  A    between atoms: C_7  and  C_8 
ROOT
HETATM    1  N   UNL     1      -4.233  -1.669 -32.727  1.00  0.00    -0.056 N 
HETATM    2  H   UNL     1      -4.948  -1.655 -31.990  1.00  0.00     0.278 HD
HETATM    3  H   UNL     1      -3.761  -2.571 -32.597  1.00  0.00     0.278 HD
ENDROOT
BRANCH   1   4
HETATM    4  C   UNL     1      -4.932  -1.706 -34.058  1.00  0.00     0.292 C 
BRANCH   4   5
HETATM    5  C   UNL     1      -6.256  -0.961 -34.049  1.00  0.00    -0.020 A 
HETATM    6  C   UNL     1      -6.678  -0.288 -35.211  1.00  0.00     0.011 A 
HETATM    7  C   UNL     1      -7.880   0.427 -35.226  1.00  0.00     0.024 A 
HETATM    8  C   UNL     1      -8.673   0.478 -34.084  1.00  0.00     0.034 A 
HETATM    9  C   UNL     1      -8.276  -0.182 -32.925  1.00  0.00     0.024 A 
HETATM   10 CL   UNL     1     -10.149   1.357 -34.105  1.00  0.00    -0.084 Cl
HETATM   11  C   UNL     1      -7.075  -0.897 -32.903  1.00  0.00     0.011 A 
ENDBRANCH   4   5
BRANCH   4  12
HETATM   12  C   UNL     1      -5.248  -3.115 -34.478  1.00  0.00     0.190 A 
HETATM   13  N   UNL     1      -4.440  -4.154 -34.239  1.00  0.00    -0.109 NA
HETATM   14  O   UNL     1      -5.163  -5.239 -34.744  1.00  0.00    -0.205 OA
HETATM   15  C   UNL     1      -6.344  -4.739 -35.195  1.00  0.00     0.288 A 
HETATM   16  N   UNL     1      -6.469  -3.442 -35.032  1.00  0.00    -0.215 NA
ENDBRANCH   4  12
ENDBRANCH   1   4
BRANCH   1  17
HETATM   17  C   UNL     1      -3.265  -0.566 -32.533  1.00  0.00     0.272 C 
BRANCH  17  18
HETATM   18  C   UNL     1      -3.909   0.575 -31.801  1.00  0.00    -0.030 A 
HETATM   19  C   UNL     1      -3.731   1.894 -32.248  1.00  0.00     0.048 A 
HETATM   20  C   UNL     1      -4.368   2.951 -31.596  1.00  0.00     0.102 A 
HETATM   21  C   UNL     1      -5.168   2.706 -30.480  1.00  0.00     0.102 A 
HETATM   22  O   UNL     1      -4.150   4.203 -32.107  1.00  0.00    -0.346 OA
HETATM   23  O   UNL     1      -5.792   3.698 -29.772  1.00  0.00    -0.346 OA
HETATM   24  C   UNL     1      -5.370   1.400 -30.041  1.00  0.00     0.040 A 
HETATM   25  C   UNL     1      -5.228   4.982 -30.066  1.00  0.00     0.202 C 
HETATM   26  C   UNL     1      -5.068   5.165 -31.567  1.00  0.00     0.202 C 
HETATM   27  C   UNL     1      -4.745   0.337 -30.698  1.00  0.00     0.012 A 
ENDBRANCH  17  18
ENDBRANCH   1  17
TORSDOF 5
ENDMDL
MODEL 2
REMARK VINA RESULT:      -8.0      3.431      7.559
REMARK  5 active torsions:
REMARK  status: ('A' for Active; 'I' for Inactive)
REMARK    1  A    between atoms: C_2  and  C_3 
REMARK    2  A    between atoms: C_3  and  N_4 
REMARK    3  A    between atoms: C_3  and  C_18 
REMARK    4  A    between atoms: N_4  and  C_7 
REMARK    5  A    between atoms: C_7  and  C_8 
ROOT
HETATM    1  N   UNL     1      -6.290   1.904 -32.452  1.00  0.00    -0.056 N 
HETATM    2  H   UNL     1      -5.331   1.589 -32.265  1.00  0.00     0.278 HD
HETATM    3  H   UNL     1      -6.795   1.684 -31.586  1.00  0.00     0.278 HD
ENDROOT
BRANCH   1   4
HETATM    4  C   UNL     1      -6.271   3.400 -32.603  1.00  0.00     0.292 C 
BRANCH   4   5
HETATM    5  C   UNL     1      -4.959   3.919 -33.165  1.00  0.00    -0.020 A 
HETATM    6  C   UNL     1      -4.972   4.732 -34.313  1.00  0.00     0.011 A 
HETATM    7  C   UNL     1      -3.779   5.206 -34.868  1.00  0.00     0.024 A 
HETATM    8  C   UNL     1      -2.560   4.872 -34.285  1.00  0.00     0.034 A 
HETATM    9  C   UNL     1      -2.524   4.071 -33.147  1.00  0.00     0.024 A 
HETATM   10 CL   UNL     1      -1.096   5.454 -34.968  1.00  0.00    -0.084 Cl
HETATM   11  C   UNL     1      -3.713   3.594 -32.589  1.00  0.00     0.011 A 
ENDBRANCH   4   5
BRANCH   4  12
HETATM   12  C   UNL     1      -6.463   4.091 -31.282  1.00  0.00     0.190 A 
HETATM   13  N   UNL     1      -6.425   3.457 -30.105  1.00  0.00    -0.109 NA
HETATM   14  O   UNL     1      -6.589   4.494 -29.181  1.00  0.00    -0.205 OA
HETATM   15  C   UNL     1      -6.667   5.644 -29.902  1.00  0.00     0.288 A 
HETATM   16  N   UNL     1      -6.566   5.465 -31.200  1.00  0.00    -0.215 NA
ENDBRANCH   4  12
ENDBRANCH   1   4
BRANCH   1  17
HETATM   17  C   UNL     1      -6.876   1.145 -33.580  1.00  0.00     0.272 C 
BRANCH  17  18
HETATM   18  C   UNL     1      -6.176  -0.172 -33.747  1.00  0.00    -0.030 A 
HETATM   19  C   UNL     1      -6.867  -1.281 -34.258  1.00  0.00     0.048 A 
HETATM   20  C   UNL     1      -6.206  -2.494 -34.458  1.00  0.00     0.102 A 
HETATM   21  C   UNL     1      -4.856  -2.618 -34.129  1.00  0.00     0.102 A 
HETATM   22  O   UNL     1      -6.954  -3.519 -34.974  1.00  0.00    -0.346 OA
HETATM   23  O   UNL     1      -4.155  -3.785 -34.266  1.00  0.00    -0.346 OA
HETATM   24  C   UNL     1      -4.154  -1.518 -33.643  1.00  0.00     0.040 A 
HETATM   25  C   UNL     1      -5.034  -4.909 -34.405  1.00  0.00     0.202 C 
HETATM   26  C   UNL     1      -6.129  -4.607 -35.417  1.00  0.00     0.202 C 
HETATM   27  C   UNL     1      -4.809  -0.298 -33.452  1.00  0.00     0.012 A 
ENDBRANCH  17  18
ENDBRANCH   1  17
TORSDOF 5
ENDMDL
MODEL 3
REMARK VINA RESULT:      -7.9      3.663      7.512
REMARK  5 active torsions:
REMARK  status: ('A' for Active; 'I' for Inactive)
REMARK    1  A    between atoms: C_2  and  C_3 
REMARK    2  A    between atoms: C_3  and  N_4 
REMARK    3  A    between atoms: C_3  and  C_18 
REMARK    4  A    between atoms: N_4  and  C_7 
REMARK    5  A    between atoms: C_7  and  C_8 
ROOT
HETATM    1  N   UNL     1      -4.671   1.927 -32.168  1.00  0.00    -0.056 N 
HETATM    2  H   UNL     1      -4.521   2.299 -31.223  1.00  0.00     0.278 HD
HETATM    3  H   UNL     1      -5.664   1.668 -32.176  1.00  0.00     0.278 HD
ENDROOT
BRANCH   1   4
HETATM    4  C   UNL     1      -4.482   3.050 -33.150  1.00  0.00     0.292 C 
BRANCH   4   5
HETATM    5  C   UNL     1      -3.455   4.070 -32.689  1.00  0.00    -0.020 A 
HETATM    6  C   UNL     1      -2.330   4.330 -33.493  1.00  0.00     0.011 A 
HETATM    7  C   UNL     1      -1.355   5.245 -33.084  1.00  0.00     0.024 A 
HETATM    8  C   UNL     1      -1.490   5.910 -31.870  1.00  0.00     0.034 A 
HETATM    9  C   UNL     1      -2.597   5.669 -31.059  1.00  0.00     0.024 A 
HETATM   10 CL   UNL     1      -0.291   7.033 -31.369  1.00  0.00    -0.084 Cl
HETATM   11  C   UNL     1      -3.574   4.755 -31.462  1.00  0.00     0.011 A 
ENDBRANCH   4   5
BRANCH   4  12
HETATM   12  C   UNL     1      -5.759   3.813 -33.369  1.00  0.00     0.190 A 
HETATM   13  N   UNL     1      -5.903   4.758 -34.305  1.00  0.00    -0.109 NA
HETATM   14  O   UNL     1      -7.245   5.131 -34.175  1.00  0.00    -0.205 OA
HETATM   15  C   UNL     1      -7.772   4.341 -33.202  1.00  0.00     0.288 A 
HETATM   16  N   UNL     1      -6.915   3.488 -32.688  1.00  0.00    -0.215 NA
ENDBRANCH   4  12
ENDBRANCH   1   4
BRANCH   1  17
HETATM   17  C   UNL     1      -3.839   0.724 -32.391  1.00  0.00     0.272 C 
BRANCH  17  18
HETATM   18  C   UNL     1      -4.639  -0.350 -33.068  1.00  0.00    -0.030 A 
HETATM   19  C   UNL     1      -4.057  -1.597 -33.348  1.00  0.00     0.048 A 
HETATM   20  C   UNL     1      -4.814  -2.612 -33.935  1.00  0.00     0.102 A 
HETATM   21  C   UNL     1      -6.149  -2.387 -34.269  1.00  0.00     0.102 A 
HETATM   22  O   UNL     1      -4.170  -3.801 -34.159  1.00  0.00    -0.346 OA
HETATM   23  O   UNL     1      -6.938  -3.326 -34.878  1.00  0.00    -0.346 OA
HETATM   24  C   UNL     1      -6.743  -1.163 -33.976  1.00  0.00     0.040 A 
HETATM   25  C   UNL     1      -6.149  -4.372 -35.460  1.00  0.00     0.202 C 
HETATM   26  C   UNL     1      -5.093  -4.853 -34.478  1.00  0.00     0.202 C 
HETATM   27  C   UNL     1      -5.993  -0.146 -33.377  1.00  0.00     0.012 A 
ENDBRANCH  17  18
ENDBRANCH   1  17
TORSDOF 5
ENDMDL
MODEL 4
REMARK VINA RESULT:      -7.9      3.530      7.344
REMARK  5 active torsions:
REMARK  status: ('A' for Active; 'I' for Inactive)
REMARK    1  A    between atoms: C_2  and  C_3 
REMARK    2  A    between atoms: C_3  and  N_4 
REMARK    3  A    between atoms: C_3  and  C_18 
REMARK    4  A    between atoms: N_4  and  C_7 
REMARK    5  A    between atoms: C_7  and  C_8 
ROOT
HETATM    1  N   UNL     1      -6.319   1.730 -32.942  1.00  0.00    -0.056 N 
HETATM    2  H   UNL     1      -5.391   1.431 -32.620  1.00  0.00     0.278 HD
HETATM    3  H   UNL     1      -6.952   1.422 -32.195  1.00  0.00     0.278 HD
ENDROOT
BRANCH   1   4
HETATM    4  C   UNL     1      -6.343   3.233 -32.971  1.00  0.00     0.292 C 
BRANCH   4   5
HETATM    5  C   UNL     1      -5.030   3.835 -33.441  1.00  0.00    -0.020 A 
HETATM    6  C   UNL     1      -3.850   3.565 -32.724  1.00  0.00     0.011 A 
HETATM    7  C   UNL     1      -2.630   4.125 -33.117  1.00  0.00     0.024 A 
HETATM    8  C   UNL     1      -2.574   4.959 -34.229  1.00  0.00     0.034 A 
HETATM    9  C   UNL     1      -3.730   5.238 -34.955  1.00  0.00     0.024 A 
HETATM   10 CL   UNL     1      -1.075   5.646 -34.711  1.00  0.00    -0.084 Cl
HETATM   11  C   UNL     1      -4.951   4.682 -34.565  1.00  0.00     0.011 A 
ENDBRANCH   4   5
BRANCH   4  12
HETATM   12  C   UNL     1      -6.602   3.808 -31.605  1.00  0.00     0.190 A 
HETATM   13  N   UNL     1      -6.908   5.092 -31.392  1.00  0.00    -0.109 NA
HETATM   14  O   UNL     1      -7.114   5.142 -30.009  1.00  0.00    -0.205 OA
HETATM   15  C   UNL     1      -6.949   3.874 -29.549  1.00  0.00     0.288 A 
HETATM   16  N   UNL     1      -6.662   3.001 -30.488  1.00  0.00    -0.215 NA
ENDBRANCH   4  12
ENDBRANCH   1   4
BRANCH   1  17
HETATM   17  C   UNL     1      -6.672   1.051 -34.209  1.00  0.00     0.272 C 
BRANCH  17  18
HETATM   18  C   UNL     1      -6.154  -0.357 -34.213  1.00  0.00    -0.030 A 
HETATM   19  C   UNL     1      -5.034  -0.702 -33.439  1.00  0.00     0.048 A 
HETATM   20  C   UNL     1      -4.579  -2.021 -33.406  1.00  0.00     0.102 A 
HETATM   21  C   UNL     1      -5.221  -3.003 -34.160  1.00  0.00     0.102 A 
HETATM   22  O   UNL     1      -3.490  -2.270 -32.613  1.00  0.00    -0.346 OA
HETATM   23  O   UNL     1      -4.807  -4.307 -34.201  1.00  0.00    -0.346 OA
HETATM   24  C   UNL     1      -6.346  -2.677 -34.914  1.00  0.00     0.040 A 
HETATM   25  C   UNL     1      -3.466  -4.444 -33.714  1.00  0.00     0.202 C 
HETATM   26  C   UNL     1      -3.291  -3.678 -32.413  1.00  0.00     0.202 C 
HETATM   27  C   UNL     1      -6.813  -1.361 -34.941  1.00  0.00     0.012 A 
ENDBRANCH  17  18
ENDBRANCH   1  17
TORSDOF 5
ENDMDL
MODEL 5
REMARK VINA RESULT:      -7.8      3.233      4.871
REMARK  5 active torsions:
REMARK  status: ('A' for Active; 'I' for Inactive)
REMARK    1  A    between atoms: C_2  and  C_3 
REMARK    2  A    between atoms: C_3  and  N_4 
REMARK    3  A    between atoms: C_3  and  C_18 
REMARK    4  A    between atoms: N_4  and  C_7 
REMARK    5  A    between atoms: C_7  and  C_8 
ROOT
HETATM    1  N   UNL     1      -6.219   1.715 -33.629  1.00  0.00    -0.056 N 
HETATM    2  H   UNL     1      -5.998   1.884 -34.618  1.00  0.00     0.278 HD
HETATM    3  H   UNL     1      -7.155   1.297 -33.653  1.00  0.00     0.278 HD
ENDROOT
BRANCH   1   4
HETATM    4  C   UNL     1      -5.266   0.675 -33.108  1.00  0.00     0.292 C 
BRANCH   4   5
HETATM    5  C   UNL     1      -5.516  -0.702 -33.697  1.00  0.00    -0.020 A 
HETATM    6  C   UNL     1      -4.466  -1.637 -33.741  1.00  0.00     0.011 A 
HETATM    7  C   UNL     1      -4.658  -2.904 -34.300  1.00  0.00     0.024 A 
HETATM    8  C   UNL     1      -5.900  -3.253 -34.822  1.00  0.00     0.034 A 
HETATM    9  C   UNL     1      -6.955  -2.344 -34.787  1.00  0.00     0.024 A 
HETATM   10 CL   UNL     1      -6.135  -4.810 -35.509  1.00  0.00    -0.084 Cl
HETATM   11  C   UNL     1      -6.767  -1.076 -34.231  1.00  0.00     0.011 A 
ENDBRANCH   4   5
BRANCH   4  12
HETATM   12  C   UNL     1      -5.381   0.518 -31.617  1.00  0.00     0.190 A 
HETATM   13  N   UNL     1      -4.355   0.690 -30.776  1.00  0.00    -0.109 NA
HETATM   14  O   UNL     1      -4.941   0.505 -29.520  1.00  0.00    -0.205 OA
HETATM   15  C   UNL     1      -6.263   0.282 -29.740  1.00  0.00     0.288 A 
HETATM   16  N   UNL     1      -6.602   0.308 -31.010  1.00  0.00    -0.215 NA
ENDBRANCH   4  12
ENDBRANCH   1   4
BRANCH   1  17
HETATM   17  C   UNL     1      -6.259   2.991 -32.880  1.00  0.00     0.272 C 
BRANCH  17  18
HETATM   18  C   UNL     1      -5.111   3.871 -33.279  1.00  0.00    -0.030 A 
HETATM   19  C   UNL     1      -4.045   4.090 -32.392  1.00  0.00     0.048 A 
HETATM   20  C   UNL     1      -2.955   4.870 -32.779  1.00  0.00     0.102 A 
HETATM   21  C   UNL     1      -2.927   5.457 -34.044  1.00  0.00     0.102 A 
HETATM   22  O   UNL     1      -1.953   5.019 -31.856  1.00  0.00    -0.346 OA
HETATM   23  O   UNL     1      -1.907   6.262 -34.476  1.00  0.00    -0.346 OA
HETATM   24  C   UNL     1      -3.968   5.229 -34.940  1.00  0.00     0.040 A 
HETATM   25  C   UNL     1      -1.108   6.724 -33.379  1.00  0.00     0.202 C 
HETATM   26  C   UNL     1      -0.767   5.573 -32.445  1.00  0.00     0.202 C 
HETATM   27  C   UNL     1      -5.057   4.439 -34.562  1.00  0.00     0.012 A 
ENDBRANCH  17  18
ENDBRANCH   1  17
TORSDOF 5
ENDMDL
MODEL 6
REMARK VINA RESULT:      -7.8      3.613      4.856
REMARK  5 active torsions:
REMARK  status: ('A' for Active; 'I' for Inactive)
REMARK    1  A    between atoms: C_2  and  C_3 
REMARK    2  A    between atoms: C_3  and  N_4 
REMARK    3  A    between atoms: C_3  and  C_18 
REMARK    4  A    between atoms: N_4  and  C_7 
REMARK    5  A    between atoms: C_7  and  C_8 
ROOT
HETATM    1  N   UNL     1      -7.509   2.725 -32.887  1.00  0.00    -0.056 N 
HETATM    2  H   UNL     1      -6.905   2.647 -33.714  1.00  0.00     0.278 HD
HETATM    3  H   UNL     1      -8.336   3.225 -33.230  1.00  0.00     0.278 HD
ENDROOT
BRANCH   1   4
HETATM    4  C   UNL     1      -7.943   1.340 -32.491  1.00  0.00     0.292 C 
BRANCH   4   5
HETATM    5  C   UNL     1      -7.027   0.257 -33.034  1.00  0.00    -0.020 A 
HETATM    6  C   UNL     1      -7.273  -0.281 -34.310  1.00  0.00     0.011 A 
HETATM    7  C   UNL     1      -6.463  -1.297 -34.828  1.00  0.00     0.024 A 
HETATM    8  C   UNL     1      -5.398  -1.786 -34.078  1.00  0.00     0.034 A 
HETATM    9  C   UNL     1      -5.134  -1.266 -32.813  1.00  0.00     0.024 A 
HETATM   10 CL   UNL     1      -4.403  -3.033 -34.714  1.00  0.00    -0.084 Cl
HETATM   11  C   UNL     1      -5.942  -0.253 -32.291  1.00  0.00     0.011 A 
ENDBRANCH   4   5
BRANCH   4  12
HETATM   12  C   UNL     1      -9.318   1.023 -33.010  1.00  0.00     0.190 A 
HETATM   13  N   UNL     1     -10.045  -0.017 -32.586  1.00  0.00    -0.109 NA
HETATM   14  O   UNL     1     -11.245   0.128 -33.290  1.00  0.00    -0.205 OA
HETATM   15  C   UNL     1     -11.123   1.262 -34.029  1.00  0.00     0.288 A 
HETATM   16  N   UNL     1      -9.971   1.875 -33.877  1.00  0.00    -0.215 NA
ENDBRANCH   4  12
ENDBRANCH   1   4
BRANCH   1  17
HETATM   17  C   UNL     1      -6.843   3.522 -31.832  1.00  0.00     0.272 C 
BRANCH  17  18
HETATM   18  C   UNL     1      -5.420   3.810 -32.211  1.00  0.00    -0.030 A 
HETATM   19  C   UNL     1      -5.118   4.872 -33.077  1.00  0.00     0.048 A 
HETATM   20  C   UNL     1      -3.792   5.170 -33.392  1.00  0.00     0.102 A 
HETATM   21  C   UNL     1      -2.756   4.399 -32.866  1.00  0.00     0.102 A 
HETATM   22  O   UNL     1      -3.589   6.233 -34.233  1.00  0.00    -0.346 OA
HETATM   23  O   UNL     1      -1.436   4.613 -33.161  1.00  0.00    -0.346 OA
HETATM   24  C   UNL     1      -3.041   3.356 -31.988  1.00  0.00     0.040 A 
HETATM   25  C   UNL     1      -1.289   5.432 -34.328  1.00  0.00     0.202 C 
HETATM   26  C   UNL     1      -2.212   6.638 -34.253  1.00  0.00     0.202 C 
HETATM   27  C   UNL     1      -4.367   3.061 -31.659  1.00  0.00     0.012 A 
ENDBRANCH  17  18
ENDBRANCH   1  17
TORSDOF 5
ENDMDL
MODEL 7
REMARK VINA RESULT:      -7.7      3.282      4.587
REMARK  5 active torsions:
REMARK  status: ('A' for Active; 'I' for Inactive)
REMARK    1  A    between atoms: C_2  and  C_3 
REMARK    2  A    between atoms: C_3  and  N_4 
REMARK    3  A    between atoms: C_3  and  C_18 
REMARK    4  A    between atoms: N_4  and  C_7 
REMARK    5  A    between atoms: C_7  and  C_8 
ROOT
HETATM    1  N   UNL     1      -4.049   1.050 -32.567  1.00  0.00    -0.056 N 
HETATM    2  H   UNL     1      -3.434   0.319 -32.944  1.00  0.00     0.278 HD
HETATM    3  H   UNL     1      -4.132   1.725 -33.336  1.00  0.00     0.278 HD
ENDROOT
BRANCH   1   4
HETATM    4  C   UNL     1      -5.408   0.447 -32.339  1.00  0.00     0.292 C 
BRANCH   4   5
HETATM    5  C   UNL     1      -5.635  -0.817 -33.151  1.00  0.00    -0.020 A 
HETATM    6  C   UNL     1      -4.539  -1.638 -33.474  1.00  0.00     0.011 A 
HETATM    7  C   UNL     1      -4.713  -2.795 -34.240  1.00  0.00     0.024 A 
HETATM    8  C   UNL     1      -5.982  -3.145 -34.693  1.00  0.00     0.034 A 
HETATM    9  C   UNL     1      -7.081  -2.348 -34.383  1.00  0.00     0.024 A 
HETATM   10 CL   UNL     1      -6.194  -4.566 -35.634  1.00  0.00    -0.084 Cl
HETATM   11  C   UNL     1      -6.912  -1.190 -33.619  1.00  0.00     0.011 A 
ENDBRANCH   4   5
BRANCH   4  12
HETATM   12  C   UNL     1      -6.506   1.397 -32.728  1.00  0.00     0.190 A 
HETATM   13  N   UNL     1      -7.583   1.630 -31.970  1.00  0.00    -0.109 NA
HETATM   14  O   UNL     1      -8.276   2.605 -32.694  1.00  0.00    -0.205 OA
HETATM   15  C   UNL     1      -7.519   2.881 -33.789  1.00  0.00     0.288 A 
HETATM   16  N   UNL     1      -6.403   2.192 -33.852  1.00  0.00    -0.215 NA
ENDBRANCH   4  12
ENDBRANCH   1   4
BRANCH   1  17
HETATM   17  C   UNL     1      -3.424   1.701 -31.395  1.00  0.00     0.272 C 
BRANCH  17  18
HETATM   18  C   UNL     1      -3.420   3.192 -31.562  1.00  0.00    -0.030 A 
HETATM   19  C   UNL     1      -2.432   3.816 -32.340  1.00  0.00     0.048 A 
HETATM   20  C   UNL     1      -2.455   5.198 -32.535  1.00  0.00     0.102 A 
HETATM   21  C   UNL     1      -3.449   5.973 -31.938  1.00  0.00     0.102 A 
HETATM   22  O   UNL     1      -1.461   5.719 -33.320  1.00  0.00    -0.346 OA
HETATM   23  O   UNL     1      -3.511   7.335 -32.057  1.00  0.00    -0.346 OA
HETATM   24  C   UNL     1      -4.447   5.364 -31.182  1.00  0.00     0.040 A 
HETATM   25  C   UNL     1      -2.266   7.875 -32.518  1.00  0.00     0.202 C 
HETATM   26  C   UNL     1      -1.742   7.075 -33.700  1.00  0.00     0.202 C 
HETATM   27  C   UNL     1      -4.436   3.979 -30.994  1.00  0.00     0.012 A 
ENDBRANCH  17  18
ENDBRANCH   1  17
TORSDOF 5
ENDMDL
MODEL 8
REMARK VINA RESULT:      -7.7      3.606      6.548
REMARK  5 active torsions:
REMARK  status: ('A' for Active; 'I' for Inactive)
REMARK    1  A    between atoms: C_2  and  C_3 
REMARK    2  A    between atoms: C_3  and  N_4 
REMARK    3  A    between atoms: C_3  and  C_18 
REMARK    4  A    between atoms: N_4  and  C_7 
REMARK    5  A    between atoms: C_7  and  C_8 
ROOT
HETATM    1  N   UNL     1      -8.584   0.317 -34.452  1.00  0.00    -0.056 N 
HETATM    2  H   UNL     1      -8.462  -0.131 -33.537  1.00  0.00     0.278 HD
HETATM    3  H   UNL     1      -9.441  -0.107 -34.824  1.00  0.00     0.278 HD
ENDROOT
BRANCH   1   4
HETATM    4  C   UNL     1      -8.859   1.778 -34.224  1.00  0.00     0.292 C 
BRANCH   4   5
HETATM    5  C   UNL     1      -8.082   2.348 -33.050  1.00  0.00    -0.020 A 
HETATM    6  C   UNL     1      -7.125   3.355 -33.277  1.00  0.00     0.011 A 
HETATM    7  C   UNL     1      -6.377   3.882 -32.220  1.00  0.00     0.024 A 
HETATM    8  C   UNL     1      -6.574   3.412 -30.926  1.00  0.00     0.034 A 
HETATM    9  C   UNL     1      -7.517   2.418 -30.678  1.00  0.00     0.024 A 
HETATM   10 CL   UNL     1      -5.654   4.060 -29.629  1.00  0.00    -0.084 Cl
HETATM   11  C   UNL     1      -8.266   1.886 -31.731  1.00  0.00     0.011 A 
ENDBRANCH   4   5
BRANCH   4  12
HETATM   12  C   UNL     1     -10.311   2.027 -33.925  1.00  0.00     0.190 A 
HETATM   13  N   UNL     1     -10.870   3.243 -33.943  1.00  0.00    -0.109 NA
HETATM   14  O   UNL     1     -12.216   2.976 -33.671  1.00  0.00    -0.205 OA
HETATM   15  C   UNL     1     -12.326   1.626 -33.560  1.00  0.00     0.288 A 
HETATM   16  N   UNL     1     -11.193   0.983 -33.737  1.00  0.00    -0.215 NA
ENDBRANCH   4  12
ENDBRANCH   1   4
BRANCH   1  17
HETATM   17  C   UNL     1      -7.443   0.003 -35.341  1.00  0.00     0.272 C 
BRANCH  17  18
HETATM   18  C   UNL     1      -6.361  -0.702 -34.577  1.00  0.00    -0.030 A 
HETATM   19  C   UNL     1      -6.092  -2.059 -34.819  1.00  0.00     0.048 A 
HETATM   20  C   UNL     1      -5.054  -2.703 -34.143  1.00  0.00     0.102 A 
HETATM   21  C   UNL     1      -4.291  -2.008 -33.204  1.00  0.00     0.102 A 
HETATM   22  O   UNL     1      -4.853  -4.023 -34.451  1.00  0.00    -0.346 OA
HETATM   23  O   UNL     1      -3.284  -2.587 -32.481  1.00  0.00    -0.346 OA
HETATM   24  C   UNL     1      -4.534  -0.657 -32.973  1.00  0.00     0.040 A 
HETATM   25  C   UNL     1      -3.370  -4.017 -32.517  1.00  0.00     0.202 C 
HETATM   26  C   UNL     1      -3.600  -4.502 -33.939  1.00  0.00     0.202 C 
HETATM   27  C   UNL     1      -5.564  -0.004 -33.656  1.00  0.00     0.012 A 
ENDBRANCH  17  18
ENDBRANCH   1  17
TORSDOF 5
ENDMDL
MODEL 9
REMARK VINA RESULT:      -7.7      3.534      5.064
REMARK  5 active torsions:
REMARK  status: ('A' for Active; 'I' for Inactive)
REMARK    1  A    between atoms: C_2  and  C_3 
REMARK    2  A    between atoms: C_3  and  N_4 
REMARK    3  A    between atoms: C_3  and  C_18 
REMARK    4  A    between atoms: N_4  and  C_7 
REMARK    5  A    between atoms: C_7  and  C_8 
ROOT
HETATM    1  N   UNL     1      -6.261   2.189 -34.325  1.00  0.00    -0.056 N 
HETATM    2  H   UNL     1      -5.306   1.994 -34.648  1.00  0.00     0.278 HD
HETATM    3  H   UNL     1      -6.842   2.015 -35.153  1.00  0.00     0.278 HD
ENDROOT
BRANCH   1   4
HETATM    4  C   UNL     1      -6.624   1.163 -33.287  1.00  0.00     0.292 C 
BRANCH   4   5
HETATM    5  C   UNL     1      -5.960  -0.181 -33.529  1.00  0.00    -0.020 A 
HETATM    6  C   UNL     1      -4.852  -0.556 -32.746  1.00  0.00     0.011 A 
HETATM    7  C   UNL     1      -4.204  -1.776 -32.961  1.00  0.00     0.024 A 
HETATM    8  C   UNL     1      -4.652  -2.635 -33.959  1.00  0.00     0.034 A 
HETATM    9  C   UNL     1      -5.748  -2.286 -34.744  1.00  0.00     0.024 A 
HETATM   10 CL   UNL     1      -3.855  -4.133 -34.222  1.00  0.00    -0.084 Cl
HETATM   11  C   UNL     1      -6.398  -1.067 -34.534  1.00  0.00     0.011 A 
ENDBRANCH   4   5
BRANCH   4  12
HETATM   12  C   UNL     1      -8.104   0.900 -33.264  1.00  0.00     0.190 A 
HETATM   13  N   UNL     1      -8.750   0.411 -32.200  1.00  0.00    -0.109 NA
HETATM   14  O   UNL     1     -10.084   0.396 -32.619  1.00  0.00    -0.205 OA
HETATM   15  C   UNL     1     -10.100   0.916 -33.875  1.00  0.00     0.288 A 
HETATM   16  N   UNL     1      -8.915   1.273 -34.316  1.00  0.00    -0.215 NA
ENDBRANCH   4  12
ENDBRANCH   1   4
BRANCH   1  17
HETATM   17  C   UNL     1      -6.390   3.604 -33.911  1.00  0.00     0.272 C 
BRANCH  17  18
HETATM   18  C   UNL     1      -5.039   4.250 -33.820  1.00  0.00    -0.030 A 
HETATM   19  C   UNL     1      -4.317   4.215 -32.616  1.00  0.00     0.048 A 
HETATM   20  C   UNL     1      -3.040   4.775 -32.543  1.00  0.00     0.102 A 
HETATM   21  C   UNL     1      -2.481   5.394 -33.661  1.00  0.00     0.102 A 
HETATM   22  O   UNL     1      -2.403   4.683 -31.334  1.00  0.00    -0.346 OA
HETATM   23  O   UNL     1      -1.250   5.993 -33.650  1.00  0.00    -0.346 OA
HETATM   24  C   UNL     1      -3.179   5.415 -34.866  1.00  0.00     0.040 A 
HETATM   25  C   UNL     1      -0.804   6.241 -32.311  1.00  0.00     0.202 C 
HETATM   26  C   UNL     1      -1.009   5.009 -31.443  1.00  0.00     0.202 C 
HETATM   27  C   UNL     1      -4.452   4.845 -34.948  1.00  0.00     0.012 A 
ENDBRANCH  17  18
ENDBRANCH   1  17
TORSDOF 5
ENDMDL
MODEL 10
REMARK VINA RESULT:      -7.7      3.785      6.321
REMARK  5 active torsions:
REMARK  status: ('A' for Active; 'I' for Inactive)
REMARK    1  A    between atoms: C_2  and  C_3 
REMARK    2  A    between atoms: C_3  and  N_4 
REMARK    3  A    between atoms: C_3  and  C_18 
REMARK    4  A    between atoms: N_4  and  C_7 
REMARK    5  A    between atoms: C_7  and  C_8 
ROOT
HETATM    1  N   UNL     1      -6.738   1.704 -33.972  1.00  0.00    -0.056 N 
HETATM    2  H   UNL     1      -6.368   2.422 -34.606  1.00  0.00     0.278 HD
HETATM    3  H   UNL     1      -7.258   1.072 -34.591  1.00  0.00     0.278 HD
ENDROOT
BRANCH   1   4
HETATM    4  C   UNL     1      -5.577   0.937 -33.404  1.00  0.00     0.292 C 
BRANCH   4   5
HETATM    5  C   UNL     1      -5.598  -0.533 -33.786  1.00  0.00    -0.020 A 
HETATM    6  C   UNL     1      -4.429  -1.302 -33.641  1.00  0.00     0.011 A 
HETATM    7  C   UNL     1      -4.410  -2.652 -34.008  1.00  0.00     0.024 A 
HETATM    8  C   UNL     1      -5.556  -3.248 -34.522  1.00  0.00     0.034 A 
HETATM    9  C   UNL     1      -6.726  -2.507 -34.672  1.00  0.00     0.024 A 
HETATM   10 CL   UNL     1      -5.531  -4.906 -34.972  1.00  0.00    -0.084 Cl
HETATM   11  C   UNL     1      -6.749  -1.158 -34.309  1.00  0.00     0.011 A 
ENDBRANCH   4   5
BRANCH   4  12
HETATM   12  C   UNL     1      -5.569   0.978 -31.901  1.00  0.00     0.190 A 
HETATM   13  N   UNL     1      -5.065   1.995 -31.194  1.00  0.00    -0.109 NA
HETATM   14  O   UNL     1      -5.332   1.624 -29.872  1.00  0.00    -0.205 OA
HETATM   15  C   UNL     1      -6.003   0.443 -29.931  1.00  0.00     0.288 A 
HETATM   16  N   UNL     1      -6.207   0.009 -31.154  1.00  0.00    -0.215 NA
ENDBRANCH   4  12
ENDBRANCH   1   4
BRANCH   1  17
HETATM   17  C   UNL     1      -7.661   2.309 -32.986  1.00  0.00     0.272 C 
BRANCH  17  18
HETATM   18  C   UNL     1      -9.034   1.717 -33.119  1.00  0.00    -0.030 A 
HETATM   19  C   UNL     1     -10.068   2.454 -33.716  1.00  0.00     0.048 A 
HETATM   20  C   UNL     1     -11.333   1.887 -33.883  1.00  0.00     0.102 A 
HETATM   21  C   UNL     1     -11.584   0.590 -33.436  1.00  0.00     0.102 A 
HETATM   22  O   UNL     1     -12.278   2.673 -34.489  1.00  0.00    -0.346 OA
HETATM   23  O   UNL     1     -12.809  -0.013 -33.536  1.00  0.00    -0.346 OA
HETATM   24  C   UNL     1     -10.560  -0.158 -32.862  1.00  0.00     0.040 A 
HETATM   25  C   UNL     1     -13.845   0.947 -33.780  1.00  0.00     0.202 C 
HETATM   26  C   UNL     1     -13.430   1.911 -34.880  1.00  0.00     0.202 C 
HETATM   27  C   UNL     1      -9.289   0.400 -32.703  1.00  0.00     0.012 A 
ENDBRANCH  17  18
ENDBRANCH   1  17
TORSDOF 5
ENDMDL
