MODEL 1
REMARK VINA RESULT:     -10.4      0.000      0.000
REMARK  9 active torsions:
REMARK  status: ('A' for Active; 'I' for Inactive)
REMARK    1  A    between atoms: C_2  and  C_3 
REMARK    2  A    between atoms: C_4  and  N_5 
REMARK       I    between atoms: N_5  and  C_6 
REMARK    3  A    between atoms: C_6  and  C_7 
REMARK    4  A    between atoms: C_7  and  N_8 
REMARK    5  A    between atoms: N_12  and  C_13 
REMARK    6  A    between atoms: C_15  and  N_16 
REMARK    7  A    between atoms: N_16  and  C_17 
REMARK    8  A    between atoms: C_24  and  N_25 
REMARK    9  A    between atoms: N_25  and  C_26 
ROOT
HETATM    1  C   UNL     1      -6.177   1.298 -31.664  1.00  0.00     0.240 A 
HETATM    2  N   UNL     1      -5.702   0.556 -32.649  1.00  0.00    -0.030 NA
HETATM    3  C   UNL     1      -6.594  -0.005 -33.460  1.00  0.00     0.745 A 
HETATM    4  N   UNL     1      -7.903   0.135 -33.322  1.00  0.00     0.131 NA
HETATM    5  C   UNL     1      -8.300   0.943 -32.346  1.00  0.00     0.745 A 
HETATM    6  N   UNL     1      -7.468   1.484 -31.466  1.00  0.00    -0.030 NA
ENDROOT
BRANCH   1   7
HETATM    7  N   UNL     1      -5.284   1.871 -30.755  1.00  0.00    -0.247 NA
HETATM    8  C   UNL     1      -5.779   3.052 -30.032  1.00  0.00     0.126 C 
HETATM    9  C   UNL     1      -5.686   4.336 -30.885  1.00  0.00     0.250 C 
HETATM   10  N   UNL     1      -4.277   4.496 -31.438  1.00  0.00    -0.060 N 
HETATM   11  H   UNL     1      -3.618   4.577 -30.643  1.00  0.00     0.280 HD
HETATM   12  C   UNL     1      -3.820   3.252 -32.210  1.00  0.00     0.250 C 
HETATM   13  C   UNL     1      -3.924   2.002 -31.304  1.00  0.00     0.126 C 
BRANCH  10  14
HETATM   14  C   UNL     1      -4.083   5.791 -32.220  1.00  0.00     0.337 C 
BRANCH  14  15
HETATM   15  C   UNL     1      -3.030   6.669 -31.539  1.00  0.00     0.248 C 
HETATM   16  N   UNL     1      -2.441   6.101 -30.426  1.00  0.00    -0.325 N 
HETATM   17  H   UNL     1      -2.983   5.389 -29.950  1.00  0.00     0.169 HD
HETATM   18  O   UNL     1      -2.835   7.798 -31.992  1.00  0.00    -0.271 OA
BRANCH  16  19
HETATM   19  C   UNL     1      -1.554   6.820 -29.585  1.00  0.00     0.047 A 
HETATM   20  C   UNL     1      -0.180   6.969 -29.881  1.00  0.00    -0.031 A 
HETATM   21  C   UNL     1       0.619   7.736 -29.012  1.00  0.00     0.009 A 
HETATM   22  C   UNL     1       0.087   8.314 -27.864  1.00  0.00     0.001 A 
HETATM   23  C   UNL     1      -1.249   8.115 -27.545  1.00  0.00     0.009 A 
HETATM   24  C   UNL     1      -2.081   7.361 -28.387  1.00  0.00    -0.035 A 
HETATM   25  C   UNL     1      -3.525   7.200 -27.989  1.00  0.00     0.050 C 
BRANCH  20  26
HETATM   26  C   UNL     1       0.544   6.227 -30.988  1.00  0.00     0.036 C 
HETATM   27  C   UNL     1       1.068   4.877 -30.515  1.00  0.00     0.010 C 
ENDBRANCH  20  26
ENDBRANCH  16  19
ENDBRANCH  14  15
ENDBRANCH  10  14
ENDBRANCH   1   7
BRANCH   3  28
HETATM   28  N   UNL     1      -6.168  -0.864 -34.471  1.00  0.00    -0.188 N 
HETATM   29  H   UNL     1      -5.804  -0.339 -35.255  1.00  0.00     0.184 HD
BRANCH  28  30
HETATM   30  C   UNL     1      -5.842  -2.227 -34.452  1.00  0.00     0.049 A 
HETATM   31  C   UNL     1      -4.536  -2.602 -34.104  1.00  0.00     0.030 A 
HETATM   32  C   UNL     1      -4.141  -3.943 -34.120  1.00  0.00     0.002 A 
HETATM   33  C   UNL     1      -5.047  -4.932 -34.488  1.00  0.00     0.000 A 
HETATM   34  C   UNL     1      -6.346  -4.580 -34.845  1.00  0.00     0.002 A 
HETATM   35  C   UNL     1      -6.733  -3.237 -34.836  1.00  0.00     0.030 A 
ENDBRANCH  28  30
ENDBRANCH   3  28
BRANCH   5  36
HETATM   36  N   UNL     1      -9.675   1.166 -32.247  1.00  0.00    -0.188 N 
HETATM   37  H   UNL     1     -10.063   0.589 -31.512  1.00  0.00     0.184 HD
BRANCH  36  38
HETATM   38  C   UNL     1     -10.608   1.540 -33.232  1.00  0.00     0.049 A 
HETATM   39  C   UNL     1     -11.724   0.767 -33.576  1.00  0.00     0.030 A 
HETATM   40  C   UNL     1     -12.606   1.176 -34.582  1.00  0.00     0.002 A 
HETATM   41  C   UNL     1     -12.371   2.357 -35.279  1.00  0.00     0.000 A 
HETATM   42  C   UNL     1     -11.252   3.126 -34.973  1.00  0.00     0.002 A 
HETATM   43  C   UNL     1     -10.377   2.716 -33.961  1.00  0.00     0.030 A 
ENDBRANCH  36  38
ENDBRANCH   5  36
TORSDOF 9
ENDMDL
MODEL 2
REMARK VINA RESULT:     -10.3      1.049      5.268
REMARK  9 active torsions:
REMARK  status: ('A' for Active; 'I' for Inactive)
REMARK    1  A    between atoms: C_2  and  C_3 
REMARK    2  A    between atoms: C_4  and  N_5 
REMARK       I    between atoms: N_5  and  C_6 
REMARK    3  A    between atoms: C_6  and  C_7 
REMARK    4  A    between atoms: C_7  and  N_8 
REMARK    5  A    between atoms: N_12  and  C_13 
REMARK    6  A    between atoms: C_15  and  N_16 
REMARK    7  A    between atoms: N_16  and  C_17 
REMARK    8  A    between atoms: C_24  and  N_25 
REMARK    9  A    between atoms: N_25  and  C_26 
ROOT
HETATM    1  C   UNL     1      -6.995   1.233 -31.772  1.00  0.00     0.240 A 
HETATM    2  N   UNL     1      -8.307   1.095 -31.700  1.00  0.00    -0.030 NA
HETATM    3  C   UNL     1      -8.877   0.310 -32.610  1.00  0.00     0.745 A 
HETATM    4  N   UNL     1      -8.206  -0.315 -33.565  1.00  0.00     0.131 NA
HETATM    5  C   UNL     1      -6.886  -0.175 -33.534  1.00  0.00     0.745 A 
HETATM    6  N   UNL     1      -6.261   0.640 -32.694  1.00  0.00    -0.030 NA
ENDROOT
BRANCH   1   7
HETATM    7  N   UNL     1      -6.352   2.084 -30.870  1.00  0.00    -0.247 NA
HETATM    8  C   UNL     1      -6.384   3.515 -31.207  1.00  0.00     0.126 C 
HETATM    9  C   UNL     1      -5.322   3.887 -32.264  1.00  0.00     0.250 C 
HETATM   10  N   UNL     1      -3.952   3.386 -31.828  1.00  0.00    -0.060 N 
HETATM   11  H   UNL     1      -3.704   3.842 -30.933  1.00  0.00     0.280 HD
HETATM   12  C   UNL     1      -3.964   1.883 -31.519  1.00  0.00     0.250 C 
HETATM   13  C   UNL     1      -5.036   1.573 -30.448  1.00  0.00     0.126 C 
BRANCH  10  14
HETATM   14  C   UNL     1      -2.833   3.792 -32.781  1.00  0.00     0.337 C 
BRANCH  14  15
HETATM   15  C   UNL     1      -2.070   4.995 -32.220  1.00  0.00     0.248 C 
HETATM   16  N   UNL     1      -1.936   5.000 -30.845  1.00  0.00    -0.325 N 
HETATM   17  H   UNL     1      -2.634   4.477 -30.328  1.00  0.00     0.169 HD
HETATM   18  O   UNL     1      -1.692   5.862 -33.009  1.00  0.00    -0.271 OA
BRANCH  16  19
HETATM   19  C   UNL     1      -1.389   6.102 -30.138  1.00  0.00     0.047 A 
HETATM   20  C   UNL     1      -2.186   7.162 -29.650  1.00  0.00    -0.031 A 
HETATM   21  C   UNL     1      -1.564   8.194 -28.922  1.00  0.00     0.009 A 
HETATM   22  C   UNL     1      -0.190   8.200 -28.708  1.00  0.00     0.001 A 
HETATM   23  C   UNL     1       0.597   7.188 -29.242  1.00  0.00     0.009 A 
HETATM   24  C   UNL     1       0.016   6.138 -29.969  1.00  0.00    -0.035 A 
HETATM   25  C   UNL     1       0.927   5.064 -30.504  1.00  0.00     0.050 C 
BRANCH  20  26
HETATM   26  C   UNL     1      -3.651   7.361 -29.989  1.00  0.00     0.036 C 
HETATM   27  C   UNL     1      -3.831   8.163 -31.271  1.00  0.00     0.010 C 
ENDBRANCH  20  26
ENDBRANCH  16  19
ENDBRANCH  14  15
ENDBRANCH  10  14
ENDBRANCH   1   7
BRANCH   3  28
HETATM   28  N   UNL     1     -10.264   0.182 -32.644  1.00  0.00    -0.188 N 
HETATM   29  H   UNL     1     -10.611  -0.174 -31.764  1.00  0.00     0.184 HD
BRANCH  28  30
HETATM   30  C   UNL     1     -11.227   0.756 -33.486  1.00  0.00     0.049 A 
HETATM   31  C   UNL     1     -10.895   1.922 -34.191  1.00  0.00     0.030 A 
HETATM   32  C   UNL     1     -11.832   2.567 -35.004  1.00  0.00     0.002 A 
HETATM   33  C   UNL     1     -13.121   2.056 -35.120  1.00  0.00     0.000 A 
HETATM   34  C   UNL     1     -13.473   0.904 -34.422  1.00  0.00     0.002 A 
HETATM   35  C   UNL     1     -12.535   0.269 -33.604  1.00  0.00     0.030 A 
ENDBRANCH  28  30
ENDBRANCH   3  28
BRANCH   5  36
HETATM   36  N   UNL     1      -6.164  -0.900 -34.484  1.00  0.00    -0.188 N 
HETATM   37  H   UNL     1      -6.300  -0.493 -35.400  1.00  0.00     0.184 HD
BRANCH  36  38
HETATM   38  C   UNL     1      -5.810  -2.261 -34.511  1.00  0.00     0.049 A 
HETATM   39  C   UNL     1      -6.697  -3.287 -34.858  1.00  0.00     0.030 A 
HETATM   40  C   UNL     1      -6.296  -4.628 -34.844  1.00  0.00     0.002 A 
HETATM   41  C   UNL     1      -5.004  -4.965 -34.455  1.00  0.00     0.000 A 
HETATM   42  C   UNL     1      -4.115  -3.964 -34.078  1.00  0.00     0.002 A 
HETATM   43  C   UNL     1      -4.518  -2.625 -34.101  1.00  0.00     0.030 A 
ENDBRANCH  36  38
ENDBRANCH   5  36
TORSDOF 9
ENDMDL
MODEL 3
REMARK VINA RESULT:     -10.3      1.079      2.228
REMARK  9 active torsions:
REMARK  status: ('A' for Active; 'I' for Inactive)
REMARK    1  A    between atoms: C_2  and  C_3 
REMARK    2  A    between atoms: C_4  and  N_5 
REMARK       I    between atoms: N_5  and  C_6 
REMARK    3  A    between atoms: C_6  and  C_7 
REMARK    4  A    between atoms: C_7  and  N_8 
REMARK    5  A    between atoms: N_12  and  C_13 
REMARK    6  A    between atoms: C_15  and  N_16 
REMARK    7  A    between atoms: N_16  and  C_17 
REMARK    8  A    between atoms: C_24  and  N_25 
REMARK    9  A    between atoms: N_25  and  C_26 
ROOT
HETATM    1  C   UNL     1      -6.944   1.346 -31.877  1.00  0.00     0.240 A 
HETATM    2  N   UNL     1      -6.204   0.726 -32.780  1.00  0.00    -0.030 NA
HETATM    3  C   UNL     1      -6.835  -0.110 -33.599  1.00  0.00     0.745 A 
HETATM    4  N   UNL     1      -8.136  -0.349 -33.546  1.00  0.00     0.131 NA
HETATM    5  C   UNL     1      -8.820   0.357 -32.653  1.00  0.00     0.745 A 
HETATM    6  N   UNL     1      -8.245   1.160 -31.766  1.00  0.00    -0.030 NA
ENDROOT
BRANCH   1   7
HETATM    7  N   UNL     1      -6.323   2.199 -30.961  1.00  0.00    -0.247 NA
HETATM    8  C   UNL     1      -6.331   3.627 -31.311  1.00  0.00     0.126 C 
HETATM    9  C   UNL     1      -5.232   3.980 -32.336  1.00  0.00     0.250 C 
HETATM   10  N   UNL     1      -3.882   3.471 -31.853  1.00  0.00    -0.060 N 
HETATM   11  H   UNL     1      -3.658   3.933 -30.954  1.00  0.00     0.280 HD
HETATM   12  C   UNL     1      -3.917   1.971 -31.532  1.00  0.00     0.250 C 
HETATM   13  C   UNL     1      -5.026   1.679 -30.494  1.00  0.00     0.126 C 
BRANCH  10  14
HETATM   14  C   UNL     1      -2.729   3.859 -32.773  1.00  0.00     0.337 C 
BRANCH  14  15
HETATM   15  C   UNL     1      -1.935   5.020 -32.167  1.00  0.00     0.248 C 
HETATM   16  N   UNL     1      -1.928   5.052 -30.785  1.00  0.00    -0.325 N 
HETATM   17  H   UNL     1      -2.706   4.593 -30.326  1.00  0.00     0.169 HD
HETATM   18  O   UNL     1      -1.425   5.837 -32.934  1.00  0.00    -0.271 OA
BRANCH  16  19
HETATM   19  C   UNL     1      -1.370   6.130 -30.053  1.00  0.00     0.047 A 
HETATM   20  C   UNL     1      -2.127   7.260 -29.669  1.00  0.00    -0.031 A 
HETATM   21  C   UNL     1      -1.501   8.265 -28.906  1.00  0.00     0.009 A 
HETATM   22  C   UNL     1      -0.158   8.176 -28.558  1.00  0.00     0.001 A 
HETATM   23  C   UNL     1       0.597   7.093 -28.988  1.00  0.00     0.009 A 
HETATM   24  C   UNL     1       0.011   6.068 -29.746  1.00  0.00    -0.035 A 
HETATM   25  C   UNL     1       0.886   4.914 -30.165  1.00  0.00     0.050 C 
BRANCH  20  26
HETATM   26  C   UNL     1      -3.532   7.557 -30.155  1.00  0.00     0.036 C 
HETATM   27  C   UNL     1      -3.525   8.353 -31.454  1.00  0.00     0.010 C 
ENDBRANCH  20  26
ENDBRANCH  16  19
ENDBRANCH  14  15
ENDBRANCH  10  14
ENDBRANCH   1   7
BRANCH   3  28
HETATM   28  N   UNL     1      -6.107  -0.858 -34.522  1.00  0.00    -0.188 N 
HETATM   29  H   UNL     1      -5.575  -0.252 -35.132  1.00  0.00     0.184 HD
BRANCH  28  30
HETATM   30  C   UNL     1      -5.724  -2.207 -34.526  1.00  0.00     0.049 A 
HETATM   31  C   UNL     1      -6.675  -3.175 -34.881  1.00  0.00     0.030 A 
HETATM   32  C   UNL     1      -6.363  -4.538 -34.851  1.00  0.00     0.002 A 
HETATM   33  C   UNL     1      -5.095  -4.954 -34.461  1.00  0.00     0.000 A 
HETATM   34  C   UNL     1      -4.140  -4.009 -34.096  1.00  0.00     0.002 A 
HETATM   35  C   UNL     1      -4.459  -2.648 -34.120  1.00  0.00     0.030 A 
ENDBRANCH  28  30
ENDBRANCH   3  28
BRANCH   5  36
HETATM   36  N   UNL     1     -10.204   0.176 -32.648  1.00  0.00    -0.188 N 
HETATM   37  H   UNL     1     -10.427  -0.750 -32.304  1.00  0.00     0.184 HD
BRANCH  36  38
HETATM   38  C   UNL     1     -11.196   0.730 -33.478  1.00  0.00     0.049 A 
HETATM   39  C   UNL     1     -11.011   1.889 -34.241  1.00  0.00     0.030 A 
HETATM   40  C   UNL     1     -12.042   2.410 -35.030  1.00  0.00     0.002 A 
HETATM   41  C   UNL     1     -13.286   1.790 -35.049  1.00  0.00     0.000 A 
HETATM   42  C   UNL     1     -13.501   0.653 -34.277  1.00  0.00     0.002 A 
HETATM   43  C   UNL     1     -12.465   0.132 -33.494  1.00  0.00     0.030 A 
ENDBRANCH  36  38
ENDBRANCH   5  36
TORSDOF 9
ENDMDL
MODEL 4
REMARK VINA RESULT:     -10.3      0.088      4.932
REMARK  9 active torsions:
REMARK  status: ('A' for Active; 'I' for Inactive)
REMARK    1  A    between atoms: C_2  and  C_3 
REMARK    2  A    between atoms: C_4  and  N_5 
REMARK       I    between atoms: N_5  and  C_6 
REMARK    3  A    between atoms: C_6  and  C_7 
REMARK    4  A    between atoms: C_7  and  N_8 
REMARK    5  A    between atoms: N_12  and  C_13 
REMARK    6  A    between atoms: C_15  and  N_16 
REMARK    7  A    between atoms: N_16  and  C_17 
REMARK    8  A    between atoms: C_24  and  N_25 
REMARK    9  A    between atoms: N_25  and  C_26 
ROOT
HETATM    1  C   UNL     1      -6.207   1.230 -31.576  1.00  0.00     0.240 A 
HETATM    2  N   UNL     1      -7.502   1.438 -31.416  1.00  0.00    -0.030 NA
HETATM    3  C   UNL     1      -8.312   0.894 -32.319  1.00  0.00     0.745 A 
HETATM    4  N   UNL     1      -7.890   0.178 -33.349  1.00  0.00     0.131 NA
HETATM    5  C   UNL     1      -6.581  -0.038 -33.407  1.00  0.00     0.745 A 
HETATM    6  N   UNL     1      -5.713   0.525 -32.576  1.00  0.00    -0.030 NA
ENDROOT
BRANCH   1   7
HETATM    7  N   UNL     1      -5.310   1.819 -30.683  1.00  0.00    -0.247 NA
HETATM    8  C   UNL     1      -5.787   3.034 -30.006  1.00  0.00     0.126 C 
HETATM    9  C   UNL     1      -5.664   4.285 -30.904  1.00  0.00     0.250 C 
HETATM   10  N   UNL     1      -4.249   4.399 -31.453  1.00  0.00    -0.060 N 
HETATM   11  H   UNL     1      -3.594   4.496 -30.657  1.00  0.00     0.280 HD
HETATM   12  C   UNL     1      -3.810   3.119 -32.176  1.00  0.00     0.250 C 
HETATM   13  C   UNL     1      -3.943   1.905 -31.226  1.00  0.00     0.126 C 
BRANCH  10  14
HETATM   14  C   UNL     1      -4.025   5.660 -32.280  1.00  0.00     0.337 C 
BRANCH  14  15
HETATM   15  C   UNL     1      -3.022   6.581 -31.581  1.00  0.00     0.248 C 
HETATM   16  N   UNL     1      -2.423   6.035 -30.463  1.00  0.00    -0.325 N 
HETATM   17  H   UNL     1      -2.938   5.297 -29.997  1.00  0.00     0.169 HD
HETATM   18  O   UNL     1      -2.872   7.720 -32.027  1.00  0.00    -0.271 OA
BRANCH  16  19
HETATM   19  C   UNL     1      -1.579   6.789 -29.607  1.00  0.00     0.047 A 
HETATM   20  C   UNL     1      -0.202   6.969 -29.865  1.00  0.00    -0.031 A 
HETATM   21  C   UNL     1       0.551   7.769 -28.984  1.00  0.00     0.009 A 
HETATM   22  C   UNL     1      -0.029   8.350 -27.861  1.00  0.00     0.001 A 
HETATM   23  C   UNL     1      -1.369   8.121 -27.580  1.00  0.00     0.009 A 
HETATM   24  C   UNL     1      -2.156   7.334 -28.434  1.00  0.00    -0.035 A 
HETATM   25  C   UNL     1      -3.607   7.142 -28.077  1.00  0.00     0.050 C 
BRANCH  20  26
HETATM   26  C   UNL     1       0.574   6.229 -30.937  1.00  0.00     0.036 C 
HETATM   27  C   UNL     1       0.920   4.809 -30.508  1.00  0.00     0.010 C 
ENDBRANCH  20  26
ENDBRANCH  16  19
ENDBRANCH  14  15
ENDBRANCH  10  14
ENDBRANCH   1   7
BRANCH   3  28
HETATM   28  N   UNL     1      -9.683   1.139 -32.258  1.00  0.00    -0.188 N 
HETATM   29  H   UNL     1      -9.986   1.237 -31.299  1.00  0.00     0.184 HD
BRANCH  28  30
HETATM   30  C   UNL     1     -10.585   1.602 -33.227  1.00  0.00     0.049 A 
HETATM   31  C   UNL     1     -11.687   0.799 -33.558  1.00  0.00     0.030 A 
HETATM   32  C   UNL     1     -12.589   1.187 -34.554  1.00  0.00     0.002 A 
HETATM   33  C   UNL     1     -12.400   2.383 -35.238  1.00  0.00     0.000 A 
HETATM   34  C   UNL     1     -11.308   3.189 -34.930  1.00  0.00     0.002 A 
HETATM   35  C   UNL     1     -10.404   2.794 -33.940  1.00  0.00     0.030 A 
ENDBRANCH  28  30
ENDBRANCH   3  28
BRANCH   5  36
HETATM   36  N   UNL     1      -6.135  -0.863 -34.441  1.00  0.00    -0.188 N 
HETATM   37  H   UNL     1      -6.540  -0.563 -35.318  1.00  0.00     0.184 HD
BRANCH  36  38
HETATM   38  C   UNL     1      -5.756  -2.219 -34.422  1.00  0.00     0.049 A 
HETATM   39  C   UNL     1      -4.462  -2.659 -34.122  1.00  0.00     0.030 A 
HETATM   40  C   UNL     1      -4.135  -4.019 -34.144  1.00  0.00     0.002 A 
HETATM   41  C   UNL     1      -5.096  -4.962 -34.492  1.00  0.00     0.000 A 
HETATM   42  C   UNL     1      -6.382  -4.545 -34.821  1.00  0.00     0.002 A 
HETATM   43  C   UNL     1      -6.706  -3.184 -34.792  1.00  0.00     0.030 A 
ENDBRANCH  36  38
ENDBRANCH   5  36
TORSDOF 9
ENDMDL
MODEL 5
REMARK VINA RESULT:     -10.2      2.851      9.621
REMARK  9 active torsions:
REMARK  status: ('A' for Active; 'I' for Inactive)
REMARK    1  A    between atoms: C_2  and  C_3 
REMARK    2  A    between atoms: C_4  and  N_5 
REMARK       I    between atoms: N_5  and  C_6 
REMARK    3  A    between atoms: C_6  and  C_7 
REMARK    4  A    between atoms: C_7  and  N_8 
REMARK    5  A    between atoms: N_12  and  C_13 
REMARK    6  A    between atoms: C_15  and  N_16 
REMARK    7  A    between atoms: N_16  and  C_17 
REMARK    8  A    between atoms: C_24  and  N_25 
REMARK    9  A    between atoms: N_25  and  C_26 
ROOT
HETATM    1  C   UNL     1      -6.100   1.237 -31.496  1.00  0.00     0.240 A 
HETATM    2  N   UNL     1      -5.263   2.212 -31.189  1.00  0.00    -0.030 NA
HETATM    3  C   UNL     1      -4.005   2.071 -31.596  1.00  0.00     0.745 A 
HETATM    4  N   UNL     1      -3.563   1.020 -32.270  1.00  0.00     0.131 NA
HETATM    5  C   UNL     1      -4.478   0.113 -32.593  1.00  0.00     0.745 A 
HETATM    6  N   UNL     1      -5.733   0.162 -32.167  1.00  0.00    -0.030 NA
ENDROOT
BRANCH   1   7
HETATM    7  N   UNL     1      -7.422   1.313 -31.052  1.00  0.00    -0.247 NA
HETATM    8  C   UNL     1      -8.372   0.406 -31.713  1.00  0.00     0.126 C 
HETATM    9  C   UNL     1      -8.836   0.949 -33.082  1.00  0.00     0.250 C 
HETATM   10  N   UNL     1      -9.344   2.375 -32.935  1.00  0.00    -0.060 N 
HETATM   11  H   UNL     1     -10.153   2.372 -32.289  1.00  0.00     0.280 HD
HETATM   12  C   UNL     1      -8.306   3.288 -32.270  1.00  0.00     0.250 C 
HETATM   13  C   UNL     1      -7.889   2.702 -30.900  1.00  0.00     0.126 C 
BRANCH  10  14
HETATM   14  C   UNL     1      -9.903   2.950 -34.233  1.00  0.00     0.337 C 
BRANCH  14  15
HETATM   15  C   UNL     1     -11.410   3.188 -34.102  1.00  0.00     0.248 C 
HETATM   16  N   UNL     1     -11.978   2.656 -32.961  1.00  0.00    -0.325 N 
HETATM   17  H   UNL     1     -11.486   1.876 -32.541  1.00  0.00     0.169 HD
HETATM   18  O   UNL     1     -11.987   3.771 -35.021  1.00  0.00    -0.271 OA
BRANCH  16  19
HETATM   19  C   UNL     1     -13.379   2.650 -32.741  1.00  0.00     0.047 A 
HETATM   20  C   UNL     1     -14.226   1.648 -33.266  1.00  0.00    -0.031 A 
HETATM   21  C   UNL     1     -15.600   1.698 -32.963  1.00  0.00     0.009 A 
HETATM   22  C   UNL     1     -16.132   2.725 -32.190  1.00  0.00     0.001 A 
HETATM   23  C   UNL     1     -15.306   3.740 -31.727  1.00  0.00     0.009 A 
HETATM   24  C   UNL     1     -13.931   3.725 -32.002  1.00  0.00    -0.035 A 
HETATM   25  C   UNL     1     -13.091   4.850 -31.453  1.00  0.00     0.050 C 
BRANCH  20  26
HETATM   26  C   UNL     1     -13.794   0.602 -34.275  1.00  0.00     0.036 C 
HETATM   27  C   UNL     1     -13.178  -0.616 -33.598  1.00  0.00     0.010 C 
ENDBRANCH  20  26
ENDBRANCH  16  19
ENDBRANCH  14  15
ENDBRANCH  10  14
ENDBRANCH   1   7
BRANCH   3  28
HETATM   28  N   UNL     1      -3.050   3.021 -31.239  1.00  0.00    -0.188 N 
HETATM   29  H   UNL     1      -2.564   2.741 -30.398  1.00  0.00     0.184 HD
BRANCH  28  30
HETATM   30  C   UNL     1      -2.436   4.041 -31.981  1.00  0.00     0.049 A 
HETATM   31  C   UNL     1      -2.804   4.212 -33.323  1.00  0.00     0.030 A 
HETATM   32  C   UNL     1      -2.186   5.178 -34.124  1.00  0.00     0.002 A 
HETATM   33  C   UNL     1      -1.186   5.986 -33.594  1.00  0.00     0.000 A 
HETATM   34  C   UNL     1      -0.801   5.826 -32.266  1.00  0.00     0.002 A 
HETATM   35  C   UNL     1      -1.415   4.854 -31.472  1.00  0.00     0.030 A 
ENDBRANCH  28  30
ENDBRANCH   3  28
BRANCH   5  36
HETATM   36  N   UNL     1      -4.039  -0.955 -33.378  1.00  0.00    -0.188 N 
HETATM   37  H   UNL     1      -3.303  -0.645 -33.998  1.00  0.00     0.184 HD
BRANCH  36  38
HETATM   38  C   UNL     1      -4.734  -2.089 -33.840  1.00  0.00     0.049 A 
HETATM   39  C   UNL     1      -4.161  -3.362 -33.939  1.00  0.00     0.030 A 
HETATM   40  C   UNL     1      -4.892  -4.450 -34.430  1.00  0.00     0.002 A 
HETATM   41  C   UNL     1      -6.204  -4.274 -34.854  1.00  0.00     0.000 A 
HETATM   42  C   UNL     1      -6.784  -3.011 -34.791  1.00  0.00     0.002 A 
HETATM   43  C   UNL     1      -6.052  -1.928 -34.293  1.00  0.00     0.030 A 
ENDBRANCH  36  38
ENDBRANCH   5  36
TORSDOF 9
ENDMDL
MODEL 6
REMARK VINA RESULT:      -9.8      2.789      9.597
REMARK  9 active torsions:
REMARK  status: ('A' for Active; 'I' for Inactive)
REMARK    1  A    between atoms: C_2  and  C_3 
REMARK    2  A    between atoms: C_4  and  N_5 
REMARK       I    between atoms: N_5  and  C_6 
REMARK    3  A    between atoms: C_6  and  C_7 
REMARK    4  A    between atoms: C_7  and  N_8 
REMARK    5  A    between atoms: N_12  and  C_13 
REMARK    6  A    between atoms: C_15  and  N_16 
REMARK    7  A    between atoms: N_16  and  C_17 
REMARK    8  A    between atoms: C_24  and  N_25 
REMARK    9  A    between atoms: N_25  and  C_26 
ROOT
HETATM    1  C   UNL     1      -5.804   1.741 -31.214  1.00  0.00     0.240 A 
HETATM    2  N   UNL     1      -4.919   2.711 -31.063  1.00  0.00    -0.030 NA
HETATM    3  C   UNL     1      -3.692   2.478 -31.518  1.00  0.00     0.745 A 
HETATM    4  N   UNL     1      -3.324   1.344 -32.094  1.00  0.00     0.131 NA
HETATM    5  C   UNL     1      -4.285   0.443 -32.265  1.00  0.00     0.745 A 
HETATM    6  N   UNL     1      -5.511   0.586 -31.780  1.00  0.00    -0.030 NA
ENDROOT
BRANCH   1   7
HETATM    7  N   UNL     1      -7.095   1.917 -30.711  1.00  0.00    -0.247 NA
HETATM    8  C   UNL     1      -8.099   0.947 -31.175  1.00  0.00     0.126 C 
HETATM    9  C   UNL     1      -8.635   1.295 -32.581  1.00  0.00     0.250 C 
HETATM   10  N   UNL     1      -9.109   2.741 -32.617  1.00  0.00    -0.060 N 
HETATM   11  H   UNL     1      -9.877   2.854 -31.932  1.00  0.00     0.280 HD
HETATM   12  C   UNL     1      -8.017   3.714 -32.155  1.00  0.00     0.250 C 
HETATM   13  C   UNL     1      -7.528   3.324 -30.740  1.00  0.00     0.126 C 
BRANCH  10  14
HETATM   14  C   UNL     1      -9.735   3.134 -33.951  1.00  0.00     0.337 C 
BRANCH  14  15
HETATM   15  C   UNL     1     -11.237   3.377 -33.781  1.00  0.00     0.248 C 
HETATM   16  N   UNL     1     -11.855   2.540 -32.872  1.00  0.00    -0.325 N 
HETATM   17  H   UNL     1     -11.400   1.650 -32.706  1.00  0.00     0.169 HD
HETATM   18  O   UNL     1     -11.769   4.239 -34.483  1.00  0.00    -0.271 OA
BRANCH  16  19
HETATM   19  C   UNL     1     -13.262   2.521 -32.691  1.00  0.00     0.047 A 
HETATM   20  C   UNL     1     -13.932   3.440 -31.852  1.00  0.00    -0.031 A 
HETATM   21  C   UNL     1     -15.335   3.375 -31.765  1.00  0.00     0.009 A 
HETATM   22  C   UNL     1     -16.058   2.411 -32.459  1.00  0.00     0.001 A 
HETATM   23  C   UNL     1     -15.391   1.472 -33.234  1.00  0.00     0.009 A 
HETATM   24  C   UNL     1     -13.993   1.505 -33.353  1.00  0.00    -0.035 A 
HETATM   25  C   UNL     1     -13.336   0.467 -34.224  1.00  0.00     0.050 C 
BRANCH  20  26
HETATM   26  C   UNL     1     -13.239   4.399 -30.903  1.00  0.00     0.036 C 
HETATM   27  C   UNL     1     -13.393   5.847 -31.350  1.00  0.00     0.010 C 
ENDBRANCH  20  26
ENDBRANCH  16  19
ENDBRANCH  14  15
ENDBRANCH  10  14
ENDBRANCH   1   7
BRANCH   3  28
HETATM   28  N   UNL     1      -2.688   3.424 -31.321  1.00  0.00    -0.188 N 
HETATM   29  H   UNL     1      -2.060   3.130 -30.585  1.00  0.00     0.184 HD
BRANCH  28  30
HETATM   30  C   UNL     1      -2.215   4.458 -32.141  1.00  0.00     0.049 A 
HETATM   31  C   UNL     1      -2.301   4.306 -33.533  1.00  0.00     0.030 A 
HETATM   32  C   UNL     1      -1.798   5.282 -34.398  1.00  0.00     0.002 A 
HETATM   33  C   UNL     1      -1.196   6.425 -33.884  1.00  0.00     0.000 A 
HETATM   34  C   UNL     1      -1.093   6.592 -32.506  1.00  0.00     0.002 A 
HETATM   35  C   UNL     1      -1.591   5.610 -31.645  1.00  0.00     0.030 A 
ENDBRANCH  28  30
ENDBRANCH   3  28
BRANCH   5  36
HETATM   36  N   UNL     1      -3.927  -0.720 -32.949  1.00  0.00    -0.188 N 
HETATM   37  H   UNL     1      -2.999  -0.617 -33.339  1.00  0.00     0.184 HD
BRANCH  36  38
HETATM   38  C   UNL     1      -4.728  -1.660 -33.624  1.00  0.00     0.049 A 
HETATM   39  C   UNL     1      -6.058  -1.425 -33.992  1.00  0.00     0.030 A 
HETATM   40  C   UNL     1      -6.815  -2.406 -34.640  1.00  0.00     0.002 A 
HETATM   41  C   UNL     1      -6.259  -3.651 -34.910  1.00  0.00     0.000 A 
HETATM   42  C   UNL     1      -4.948  -3.917 -34.529  1.00  0.00     0.002 A 
HETATM   43  C   UNL     1      -4.192  -2.930 -33.886  1.00  0.00     0.030 A 
ENDBRANCH  36  38
ENDBRANCH   5  36
TORSDOF 9
ENDMDL
MODEL 7
REMARK VINA RESULT:      -9.7      1.414      2.211
REMARK  9 active torsions:
REMARK  status: ('A' for Active; 'I' for Inactive)
REMARK    1  A    between atoms: C_2  and  C_3 
REMARK    2  A    between atoms: C_4  and  N_5 
REMARK       I    between atoms: N_5  and  C_6 
REMARK    3  A    between atoms: C_6  and  C_7 
REMARK    4  A    between atoms: C_7  and  N_8 
REMARK    5  A    between atoms: N_12  and  C_13 
REMARK    6  A    between atoms: C_15  and  N_16 
REMARK    7  A    between atoms: N_16  and  C_17 
REMARK    8  A    between atoms: C_24  and  N_25 
REMARK    9  A    between atoms: N_25  and  C_26 
ROOT
HETATM    1  C   UNL     1      -6.065   3.230 -33.150  1.00  0.00     0.240 A 
HETATM    2  N   UNL     1      -5.608   1.999 -33.001  1.00  0.00    -0.030 NA
HETATM    3  C   UNL     1      -6.504   1.056 -32.725  1.00  0.00     0.745 A 
HETATM    4  N   UNL     1      -7.799   1.291 -32.586  1.00  0.00     0.131 NA
HETATM    5  C   UNL     1      -8.189   2.541 -32.810  1.00  0.00     0.745 A 
HETATM    6  N   UNL     1      -7.342   3.539 -33.029  1.00  0.00    -0.030 NA
ENDROOT
BRANCH   1   7
HETATM    7  N   UNL     1      -5.160   4.265 -33.394  1.00  0.00    -0.247 NA
HETATM    8  C   UNL     1      -3.844   4.127 -32.753  1.00  0.00     0.126 C 
HETATM    9  C   UNL     1      -3.875   4.549 -31.267  1.00  0.00     0.250 C 
HETATM   10  N   UNL     1      -4.488   5.935 -31.129  1.00  0.00    -0.060 N 
HETATM   11  H   UNL     1      -3.901   6.608 -31.653  1.00  0.00     0.280 HD
HETATM   12  C   UNL     1      -5.871   6.018 -31.786  1.00  0.00     0.250 C 
HETATM   13  C   UNL     1      -5.776   5.597 -33.271  1.00  0.00     0.126 C 
BRANCH  10  14
HETATM   14  C   UNL     1      -4.473   6.458 -29.697  1.00  0.00     0.337 C 
BRANCH  14  15
HETATM   15  C   UNL     1      -3.190   7.253 -29.436  1.00  0.00     0.248 C 
HETATM   16  N   UNL     1      -2.222   6.565 -28.731  1.00  0.00    -0.325 N 
HETATM   17  H   UNL     1      -2.552   5.809 -28.143  1.00  0.00     0.169 HD
HETATM   18  O   UNL     1      -3.145   8.423 -29.818  1.00  0.00    -0.271 OA
BRANCH  16  19
HETATM   19  C   UNL     1      -1.031   7.185 -28.272  1.00  0.00     0.047 A 
HETATM   20  C   UNL     1       0.057   7.465 -29.128  1.00  0.00    -0.031 A 
HETATM   21  C   UNL     1       1.183   8.122 -28.596  1.00  0.00     0.009 A 
HETATM   22  C   UNL     1       1.250   8.465 -27.250  1.00  0.00     0.001 A 
HETATM   23  C   UNL     1       0.203   8.135 -26.400  1.00  0.00     0.009 A 
HETATM   24  C   UNL     1      -0.939   7.485 -26.891  1.00  0.00    -0.035 A 
HETATM   25  C   UNL     1      -2.044   7.171 -25.916  1.00  0.00     0.050 C 
BRANCH  20  26
HETATM   26  C   UNL     1       0.178   6.965 -30.555  1.00  0.00     0.036 C 
HETATM   27  C   UNL     1       0.642   5.515 -30.609  1.00  0.00     0.010 C 
ENDBRANCH  20  26
ENDBRANCH  16  19
ENDBRANCH  14  15
ENDBRANCH  10  14
ENDBRANCH   1   7
BRANCH   3  28
HETATM   28  N   UNL     1      -6.083  -0.249 -32.477  1.00  0.00    -0.188 N 
HETATM   29  H   UNL     1      -6.227  -0.492 -31.506  1.00  0.00     0.184 HD
BRANCH  28  30
HETATM   30  C   UNL     1      -5.852  -1.328 -33.342  1.00  0.00     0.049 A 
HETATM   31  C   UNL     1      -6.949  -1.929 -33.976  1.00  0.00     0.030 A 
HETATM   32  C   UNL     1      -6.782  -3.041 -34.808  1.00  0.00     0.002 A 
HETATM   33  C   UNL     1      -5.513  -3.572 -35.015  1.00  0.00     0.000 A 
HETATM   34  C   UNL     1      -4.413  -2.995 -34.388  1.00  0.00     0.002 A 
HETATM   35  C   UNL     1      -4.586  -1.889 -33.551  1.00  0.00     0.030 A 
ENDBRANCH  28  30
ENDBRANCH   3  28
BRANCH   5  36
HETATM   36  N   UNL     1      -9.563   2.781 -32.752  1.00  0.00    -0.188 N 
HETATM   37  H   UNL     1      -9.892   2.656 -31.803  1.00  0.00     0.184 HD
BRANCH  36  38
HETATM   38  C   UNL     1     -10.559   2.602 -33.730  1.00  0.00     0.049 A 
HETATM   39  C   UNL     1     -10.854   3.549 -34.718  1.00  0.00     0.030 A 
HETATM   40  C   UNL     1     -11.874   3.330 -35.651  1.00  0.00     0.002 A 
HETATM   41  C   UNL     1     -12.633   2.166 -35.593  1.00  0.00     0.000 A 
HETATM   42  C   UNL     1     -12.375   1.224 -34.602  1.00  0.00     0.002 A 
HETATM   43  C   UNL     1     -11.350   1.445 -33.676  1.00  0.00     0.030 A 
ENDBRANCH  36  38
ENDBRANCH   5  36
TORSDOF 9
ENDMDL
MODEL 8
REMARK VINA RESULT:      -9.7      3.040      9.353
REMARK  9 active torsions:
REMARK  status: ('A' for Active; 'I' for Inactive)
REMARK    1  A    between atoms: C_2  and  C_3 
REMARK    2  A    between atoms: C_4  and  N_5 
REMARK       I    between atoms: N_5  and  C_6 
REMARK    3  A    between atoms: C_6  and  C_7 
REMARK    4  A    between atoms: C_7  and  N_8 
REMARK    5  A    between atoms: N_12  and  C_13 
REMARK    6  A    between atoms: C_15  and  N_16 
REMARK    7  A    between atoms: N_16  and  C_17 
REMARK    8  A    between atoms: C_24  and  N_25 
REMARK    9  A    between atoms: N_25  and  C_26 
ROOT
HETATM    1  C   UNL     1      -6.081   2.979 -31.032  1.00  0.00     0.240 A 
HETATM    2  N   UNL     1      -6.140   1.664 -31.146  1.00  0.00    -0.030 NA
HETATM    3  C   UNL     1      -4.989   1.027 -31.342  1.00  0.00     0.745 A 
HETATM    4  N   UNL     1      -3.818   1.638 -31.436  1.00  0.00     0.131 NA
HETATM    5  C   UNL     1      -3.834   2.953 -31.251  1.00  0.00     0.745 A 
HETATM    6  N   UNL     1      -4.952   3.655 -31.113  1.00  0.00    -0.030 NA
ENDROOT
BRANCH   1   7
HETATM    7  N   UNL     1      -7.267   3.699 -30.872  1.00  0.00    -0.247 NA
HETATM    8  C   UNL     1      -8.460   2.903 -30.546  1.00  0.00     0.126 C 
HETATM    9  C   UNL     1      -9.072   2.235 -31.796  1.00  0.00     0.250 C 
HETATM   10  N   UNL     1      -9.302   3.273 -32.885  1.00  0.00    -0.060 N 
HETATM   11  H   UNL     1      -9.967   3.982 -32.528  1.00  0.00     0.280 HD
HETATM   12  C   UNL     1      -8.023   4.054 -33.211  1.00  0.00     0.250 C 
HETATM   13  C   UNL     1      -7.463   4.710 -31.927  1.00  0.00     0.126 C 
BRANCH  10  14
HETATM   14  C   UNL     1      -9.988   2.703 -34.122  1.00  0.00     0.337 C 
BRANCH  14  15
HETATM   15  C   UNL     1     -11.495   2.968 -34.062  1.00  0.00     0.248 C 
HETATM   16  N   UNL     1     -12.079   2.688 -32.842  1.00  0.00    -0.325 N 
HETATM   17  H   UNL     1     -11.596   2.011 -32.262  1.00  0.00     0.169 HD
HETATM   18  O   UNL     1     -12.059   3.348 -35.089  1.00  0.00    -0.271 OA
BRANCH  16  19
HETATM   19  C   UNL     1     -13.483   2.733 -32.643  1.00  0.00     0.047 A 
HETATM   20  C   UNL     1     -14.130   3.840 -32.051  1.00  0.00    -0.031 A 
HETATM   21  C   UNL     1     -15.533   3.817 -31.931  1.00  0.00     0.009 A 
HETATM   22  C   UNL     1     -16.276   2.719 -32.353  1.00  0.00     0.001 A 
HETATM   23  C   UNL     1     -15.630   1.609 -32.879  1.00  0.00     0.009 A 
HETATM   24  C   UNL     1     -14.234   1.593 -33.021  1.00  0.00    -0.035 A 
HETATM   25  C   UNL     1     -13.600   0.362 -33.615  1.00  0.00     0.050 C 
BRANCH  20  26
HETATM   26  C   UNL     1     -13.414   4.995 -31.380  1.00  0.00     0.036 C 
HETATM   27  C   UNL     1     -14.051   5.358 -30.045  1.00  0.00     0.010 C 
ENDBRANCH  20  26
ENDBRANCH  16  19
ENDBRANCH  14  15
ENDBRANCH  10  14
ENDBRANCH   1   7
BRANCH   3  28
HETATM   28  N   UNL     1      -4.985  -0.350 -31.550  1.00  0.00    -0.188 N 
HETATM   29  H   UNL     1      -5.072  -0.844 -30.673  1.00  0.00     0.184 HD
BRANCH  28  30
HETATM   30  C   UNL     1      -5.230  -1.114 -32.701  1.00  0.00     0.049 A 
HETATM   31  C   UNL     1      -6.520  -1.104 -33.253  1.00  0.00     0.030 A 
HETATM   32  C   UNL     1      -6.834  -1.887 -34.368  1.00  0.00     0.002 A 
HETATM   33  C   UNL     1      -5.862  -2.697 -34.946  1.00  0.00     0.000 A 
HETATM   34  C   UNL     1      -4.579  -2.728 -34.408  1.00  0.00     0.002 A 
HETATM   35  C   UNL     1      -4.272  -1.950 -33.288  1.00  0.00     0.030 A 
ENDBRANCH  28  30
ENDBRANCH   3  28
BRANCH   5  36
HETATM   36  N   UNL     1      -2.594   3.594 -31.262  1.00  0.00    -0.188 N 
HETATM   37  H   UNL     1      -2.238   3.667 -30.317  1.00  0.00     0.184 HD
BRANCH  36  38
HETATM   38  C   UNL     1      -2.081   4.566 -32.141  1.00  0.00     0.049 A 
HETATM   39  C   UNL     1      -1.448   5.740 -31.716  1.00  0.00     0.030 A 
HETATM   40  C   UNL     1      -0.979   6.684 -32.636  1.00  0.00     0.002 A 
HETATM   41  C   UNL     1      -1.157   6.479 -33.999  1.00  0.00     0.000 A 
HETATM   42  C   UNL     1      -1.808   5.332 -34.443  1.00  0.00     0.002 A 
HETATM   43  C   UNL     1      -2.270   4.388 -33.520  1.00  0.00     0.030 A 
ENDBRANCH  36  38
ENDBRANCH   5  36
TORSDOF 9
ENDMDL
MODEL 9
REMARK VINA RESULT:      -9.6      2.549      9.129
REMARK  9 active torsions:
REMARK  status: ('A' for Active; 'I' for Inactive)
REMARK    1  A    between atoms: C_2  and  C_3 
REMARK    2  A    between atoms: C_4  and  N_5 
REMARK       I    between atoms: N_5  and  C_6 
REMARK    3  A    between atoms: C_6  and  C_7 
REMARK    4  A    between atoms: C_7  and  N_8 
REMARK    5  A    between atoms: N_12  and  C_13 
REMARK    6  A    between atoms: C_15  and  N_16 
REMARK    7  A    between atoms: N_16  and  C_17 
REMARK    8  A    between atoms: C_24  and  N_25 
REMARK    9  A    between atoms: N_25  and  C_26 
ROOT
HETATM    1  C   UNL     1      -5.033   3.187 -30.569  1.00  0.00     0.240 A 
HETATM    2  N   UNL     1      -5.074   1.870 -30.669  1.00  0.00    -0.030 NA
HETATM    3  C   UNL     1      -4.149   1.298 -31.434  1.00  0.00     0.745 A 
HETATM    4  N   UNL     1      -3.218   1.973 -32.090  1.00  0.00     0.131 NA
HETATM    5  C   UNL     1      -3.205   3.286 -31.891  1.00  0.00     0.745 A 
HETATM    6  N   UNL     1      -4.134   3.925 -31.191  1.00  0.00    -0.030 NA
ENDROOT
BRANCH   1   7
HETATM    7  N   UNL     1      -6.010   3.841 -29.815  1.00  0.00    -0.247 NA
HETATM    8  C   UNL     1      -7.289   3.129 -29.671  1.00  0.00     0.126 C 
HETATM    9  C   UNL     1      -8.187   3.290 -30.917  1.00  0.00     0.250 C 
HETATM   10  N   UNL     1      -8.337   4.764 -31.267  1.00  0.00    -0.060 N 
HETATM   11  H   UNL     1      -8.786   5.248 -30.469  1.00  0.00     0.280 HD
HETATM   12  C   UNL     1      -6.977   5.453 -31.437  1.00  0.00     0.250 C 
HETATM   13  C   UNL     1      -6.128   5.269 -30.157  1.00  0.00     0.126 C 
BRANCH  10  14
HETATM   14  C   UNL     1      -9.284   5.010 -32.437  1.00  0.00     0.337 C 
BRANCH  14  15
HETATM   15  C   UNL     1     -10.433   3.998 -32.411  1.00  0.00     0.248 C 
HETATM   16  N   UNL     1     -10.474   3.148 -33.499  1.00  0.00    -0.325 N 
HETATM   17  H   UNL     1     -10.033   3.487 -34.346  1.00  0.00     0.169 HD
HETATM   18  O   UNL     1     -11.234   4.055 -31.477  1.00  0.00    -0.271 OA
BRANCH  16  19
HETATM   19  C   UNL     1     -11.546   2.246 -33.718  1.00  0.00     0.047 A 
HETATM   20  C   UNL     1     -12.804   2.666 -34.206  1.00  0.00    -0.031 A 
HETATM   21  C   UNL     1     -13.798   1.696 -34.434  1.00  0.00     0.009 A 
HETATM   22  C   UNL     1     -13.572   0.351 -34.160  1.00  0.00     0.001 A 
HETATM   23  C   UNL     1     -12.355  -0.049 -33.624  1.00  0.00     0.009 A 
HETATM   24  C   UNL     1     -11.335   0.885 -33.386  1.00  0.00    -0.035 A 
HETATM   25  C   UNL     1     -10.034   0.379 -32.820  1.00  0.00     0.050 C 
BRANCH  20  26
HETATM   26  C   UNL     1     -13.227   4.115 -34.352  1.00  0.00     0.036 C 
HETATM   27  C   UNL     1     -12.719   4.724 -35.652  1.00  0.00     0.010 C 
ENDBRANCH  20  26
ENDBRANCH  16  19
ENDBRANCH  14  15
ENDBRANCH  10  14
ENDBRANCH   1   7
BRANCH   3  28
HETATM   28  N   UNL     1      -4.181  -0.078 -31.649  1.00  0.00    -0.188 N 
HETATM   29  H   UNL     1      -3.855  -0.575 -30.832  1.00  0.00     0.184 HD
BRANCH  28  30
HETATM   30  C   UNL     1      -4.874  -0.852 -32.591  1.00  0.00     0.049 A 
HETATM   31  C   UNL     1      -4.155  -1.776 -33.363  1.00  0.00     0.030 A 
HETATM   32  C   UNL     1      -4.785  -2.536 -34.353  1.00  0.00     0.002 A 
HETATM   33  C   UNL     1      -6.147  -2.381 -34.588  1.00  0.00     0.000 A 
HETATM   34  C   UNL     1      -6.878  -1.464 -33.838  1.00  0.00     0.002 A 
HETATM   35  C   UNL     1      -6.241  -0.700 -32.856  1.00  0.00     0.030 A 
ENDBRANCH  28  30
ENDBRANCH   3  28
BRANCH   5  36
HETATM   36  N   UNL     1      -2.174   3.995 -32.509  1.00  0.00    -0.188 N 
HETATM   37  H   UNL     1      -1.793   3.450 -33.272  1.00  0.00     0.184 HD
BRANCH  36  38
HETATM   38  C   UNL     1      -1.277   4.942 -31.980  1.00  0.00     0.049 A 
HETATM   39  C   UNL     1      -0.532   4.736 -30.813  1.00  0.00     0.030 A 
HETATM   40  C   UNL     1       0.327   5.724 -30.318  1.00  0.00     0.002 A 
HETATM   41  C   UNL     1       0.436   6.945 -30.973  1.00  0.00     0.000 A 
HETATM   42  C   UNL     1      -0.316   7.182 -32.119  1.00  0.00     0.002 A 
HETATM   43  C   UNL     1      -1.169   6.189 -32.613  1.00  0.00     0.030 A 
ENDBRANCH  36  38
ENDBRANCH   5  36
TORSDOF 9
ENDMDL
MODEL 10
REMARK VINA RESULT:      -9.5      2.781      9.070
REMARK  9 active torsions:
REMARK  status: ('A' for Active; 'I' for Inactive)
REMARK    1  A    between atoms: C_2  and  C_3 
REMARK    2  A    between atoms: C_4  and  N_5 
REMARK       I    between atoms: N_5  and  C_6 
REMARK    3  A    between atoms: C_6  and  C_7 
REMARK    4  A    between atoms: C_7  and  N_8 
REMARK    5  A    between atoms: N_12  and  C_13 
REMARK    6  A    between atoms: C_15  and  N_16 
REMARK    7  A    between atoms: N_16  and  C_17 
REMARK    8  A    between atoms: C_24  and  N_25 
REMARK    9  A    between atoms: N_25  and  C_26 
ROOT
HETATM    1  C   UNL     1      -5.806   2.859 -30.602  1.00  0.00     0.240 A 
HETATM    2  N   UNL     1      -4.742   3.624 -30.772  1.00  0.00    -0.030 NA
HETATM    3  C   UNL     1      -3.623   3.015 -31.153  1.00  0.00     0.745 A 
HETATM    4  N   UNL     1      -3.528   1.710 -31.356  1.00  0.00     0.131 NA
HETATM    5  C   UNL     1      -4.654   1.019 -31.223  1.00  0.00     0.745 A 
HETATM    6  N   UNL     1      -5.788   1.554 -30.788  1.00  0.00    -0.030 NA
ENDROOT
BRANCH   1   7
HETATM    7  N   UNL     1      -6.995   3.442 -30.157  1.00  0.00    -0.247 NA
HETATM    8  C   UNL     1      -8.232   2.754 -30.554  1.00  0.00     0.126 C 
HETATM    9  C   UNL     1      -8.646   3.094 -32.003  1.00  0.00     0.250 C 
HETATM   10  N   UNL     1      -8.690   4.603 -32.194  1.00  0.00    -0.060 N 
HETATM   11  H   UNL     1      -9.395   4.997 -31.547  1.00  0.00     0.280 HD
HETATM   12  C   UNL     1      -7.368   5.270 -31.796  1.00  0.00     0.250 C 
HETATM   13  C   UNL     1      -7.011   4.904 -30.336  1.00  0.00     0.126 C 
BRANCH  10  14
HETATM   14  C   UNL     1      -9.177   5.018 -33.578  1.00  0.00     0.337 C 
BRANCH  14  15
HETATM   15  C   UNL     1     -10.328   4.114 -34.029  1.00  0.00     0.248 C 
HETATM   16  N   UNL     1     -11.091   3.598 -32.999  1.00  0.00    -0.325 N 
HETATM   17  H   UNL     1     -10.633   3.531 -32.098  1.00  0.00     0.169 HD
HETATM   18  O   UNL     1     -10.447   3.884 -35.234  1.00  0.00    -0.271 OA
BRANCH  16  19
HETATM   19  C   UNL     1     -12.104   2.629 -33.215  1.00  0.00     0.047 A 
HETATM   20  C   UNL     1     -11.812   1.273 -33.482  1.00  0.00    -0.031 A 
HETATM   21  C   UNL     1     -12.882   0.371 -33.642  1.00  0.00     0.009 A 
HETATM   22  C   UNL     1     -14.204   0.799 -33.573  1.00  0.00     0.001 A 
HETATM   23  C   UNL     1     -14.485   2.144 -33.370  1.00  0.00     0.009 A 
HETATM   24  C   UNL     1     -13.449   3.074 -33.201  1.00  0.00    -0.035 A 
HETATM   25  C   UNL     1     -13.826   4.514 -32.968  1.00  0.00     0.050 C 
BRANCH  20  26
HETATM   26  C   UNL     1     -10.425   0.735 -33.774  1.00  0.00     0.036 C 
HETATM   27  C   UNL     1      -9.982  -0.281 -32.729  1.00  0.00     0.010 C 
ENDBRANCH  20  26
ENDBRANCH  16  19
ENDBRANCH  14  15
ENDBRANCH  10  14
ENDBRANCH   1   7
BRANCH   3  28
HETATM   28  N   UNL     1      -2.442   3.746 -31.274  1.00  0.00    -0.188 N 
HETATM   29  H   UNL     1      -1.693   3.301 -30.762  1.00  0.00     0.184 HD
BRANCH  28  30
HETATM   30  C   UNL     1      -2.046   4.717 -32.204  1.00  0.00     0.049 A 
HETATM   31  C   UNL     1      -2.201   4.444 -33.571  1.00  0.00     0.030 A 
HETATM   32  C   UNL     1      -1.775   5.354 -34.543  1.00  0.00     0.002 A 
HETATM   33  C   UNL     1      -1.181   6.552 -34.162  1.00  0.00     0.000 A 
HETATM   34  C   UNL     1      -1.010   6.839 -32.811  1.00  0.00     0.002 A 
HETATM   35  C   UNL     1      -1.430   5.923 -31.843  1.00  0.00     0.030 A 
ENDBRANCH  28  30
ENDBRANCH   3  28
BRANCH   5  36
HETATM   36  N   UNL     1      -4.583  -0.343 -31.519  1.00  0.00    -0.188 N 
HETATM   37  H   UNL     1      -3.757  -0.743 -31.093  1.00  0.00     0.184 HD
BRANCH  36  38
HETATM   38  C   UNL     1      -5.049  -1.055 -32.640  1.00  0.00     0.049 A 
HETATM   39  C   UNL     1      -6.357  -0.962 -33.130  1.00  0.00     0.030 A 
HETATM   40  C   UNL     1      -6.773  -1.713 -34.235  1.00  0.00     0.002 A 
HETATM   41  C   UNL     1      -5.890  -2.591 -34.853  1.00  0.00     0.000 A 
HETATM   42  C   UNL     1      -4.593  -2.721 -34.365  1.00  0.00     0.002 A 
HETATM   43  C   UNL     1      -4.180  -1.963 -33.265  1.00  0.00     0.030 A 
ENDBRANCH  36  38
ENDBRANCH   5  36
TORSDOF 9
ENDMDL
