MODEL 1
REMARK VINA RESULT:      -9.1      0.000      0.000
REMARK  11 active torsions:
REMARK  status: ('A' for Active; 'I' for Inactive)
REMARK       I    between atoms: N_6  and  C_7 
REMARK    1  A    between atoms: C_7  and  C_8 
REMARK    2  A    between atoms: C_10  and  S_11 
REMARK    3  A    between atoms: S_11  and  N_12 
REMARK    4  A    between atoms: N_12  and  C_13 
REMARK    5  A    between atoms: C_15  and  O_16 
REMARK    6  A    between atoms: C_23  and  N_24 
REMARK    7  A    between atoms: N_24  and  C_25 
REMARK    8  A    between atoms: C_25  and  C_26 
REMARK    9  A    between atoms: C_26  and  C_27 
REMARK   10  A    between atoms: C_29  and  O_30 
REMARK   11  A    between atoms: C_32  and  O_33 
ROOT
HETATM    1  C   UNL     1      -4.410   4.005 -32.607  1.00  0.00     0.033 A 
HETATM    2  C   UNL     1      -5.647   4.316 -33.167  1.00  0.00     0.044 A 
HETATM    3  C   UNL     1      -6.804   3.620 -32.764  1.00  0.00     0.102 A 
HETATM    4  C   UNL     1      -6.756   2.583 -31.807  1.00  0.00     0.031 A 
HETATM    5  C   UNL     1      -5.479   2.230 -31.342  1.00  0.00     0.026 A 
HETATM    6  C   UNL     1      -4.327   2.935 -31.717  1.00  0.00     0.019 A 
ENDROOT
BRANCH   4   7
HETATM    7  N   UNL     1      -7.883   1.819 -31.473  1.00  0.00    -0.291 NA
HETATM    8  H   UNL     1      -8.226   2.034 -30.525  1.00  0.00     0.127 HD
BRANCH   7   9
HETATM    9  C   UNL     1      -7.899   0.359 -31.657  1.00  0.00     0.097 C 
BRANCH   9  10
HETATM   10  C   UNL     1      -7.828   0.000 -33.149  1.00  0.00     0.053 C 
BRANCH  10  11
HETATM   11  C   UNL     1      -6.726  -0.985 -33.456  1.00  0.00    -0.054 A 
HETATM   12  C   UNL     1      -5.504  -0.930 -32.767  1.00  0.00     0.046 A 
HETATM   13  C   UNL     1      -4.481  -1.848 -33.044  1.00  0.00     0.102 A 
HETATM   14  C   UNL     1      -4.679  -2.833 -34.031  1.00  0.00     0.101 A 
HETATM   15  C   UNL     1      -5.896  -2.885 -34.717  1.00  0.00     0.040 A 
HETATM   16  C   UNL     1      -6.911  -1.969 -34.431  1.00  0.00     0.010 A 
BRANCH  13  17
HETATM   17  O   UNL     1      -3.263  -1.868 -32.411  1.00  0.00    -0.353 OA
HETATM   18  C   UNL     1      -2.835  -0.688 -31.749  1.00  0.00     0.210 C 
ENDBRANCH  13  17
BRANCH  14  19
HETATM   19  O   UNL     1      -3.633  -3.696 -34.242  1.00  0.00    -0.353 OA
HETATM   20  C   UNL     1      -3.756  -5.019 -33.742  1.00  0.00     0.210 C 
ENDBRANCH  14  19
ENDBRANCH  10  11
ENDBRANCH   9  10
ENDBRANCH   7   9
ENDBRANCH   4   7
BRANCH   3  21
HETATM   21  S   UNL     1      -8.360   4.221 -33.410  1.00  0.00     0.265 S 
HETATM   22  O   UNL     1      -9.237   4.446 -32.278  1.00  0.00    -0.200 OA
HETATM   23  O   UNL     1      -8.048   5.299 -34.327  1.00  0.00    -0.200 OA
BRANCH  21  24
HETATM   24  N   UNL     1      -8.975   2.892 -34.246  1.00  0.00    -0.280 N 
HETATM   25  H   UNL     1      -8.389   2.637 -35.042  1.00  0.00     0.179 HD
BRANCH  24  26
HETATM   26  C   UNL     1     -10.383   2.791 -34.426  1.00  0.00     0.045 A 
HETATM   27  C   UNL     1     -11.098   1.792 -33.762  1.00  0.00     0.066 A 
HETATM   28  C   UNL     1     -12.473   1.671 -33.974  1.00  0.00     0.070 A 
HETATM   29  C   UNL     1     -13.115   2.557 -34.844  1.00  0.00     0.037 A 
HETATM   30  C   UNL     1     -12.397   3.551 -35.508  1.00  0.00     0.005 A 
HETATM   31  C   UNL     1     -11.025   3.662 -35.305  1.00  0.00     0.030 A 
BRANCH  28  32
HETATM   32  O   UNL     1     -13.295   0.738 -33.407  1.00  0.00    -0.356 OA
HETATM   33  C   UNL     1     -14.556   0.520 -34.029  1.00  0.00     0.210 C 
ENDBRANCH  28  32
ENDBRANCH  24  26
ENDBRANCH  21  24
ENDBRANCH   3  21
BRANCH   1  34
HETATM   34  C   UNL     1      -3.160   4.731 -32.971  1.00  0.00     0.253 C 
HETATM   35  N   UNL     1      -3.030   6.095 -32.673  1.00  0.00    -0.345 N 
HETATM   36  C   UNL     1      -1.859   6.761 -33.255  1.00  0.00     0.154 C 
HETATM   37  C   UNL     1      -3.408   6.626 -31.355  1.00  0.00     0.154 C 
HETATM   38  C   UNL     1      -0.636   6.624 -32.332  1.00  0.00     0.254 C 
HETATM   39  N   UNL     1      -0.983   7.193 -30.948  1.00  0.00    -0.072 N 
HETATM   40  C   UNL     1       0.183   7.114 -30.006  1.00  0.00     0.269 C 
HETATM   41  H   UNL     1      -1.201   8.189 -31.080  1.00  0.00     0.279 HD
HETATM   42  C   UNL     1      -2.229   6.528 -30.365  1.00  0.00     0.254 C 
HETATM   43  O   UNL     1      -2.244   4.114 -33.511  1.00  0.00    -0.267 OA
ENDBRANCH   1  34
TORSDOF 11
ENDMDL
MODEL 2
REMARK VINA RESULT:      -8.8      2.043      8.144
REMARK  11 active torsions:
REMARK  status: ('A' for Active; 'I' for Inactive)
REMARK       I    between atoms: N_6  and  C_7 
REMARK    1  A    between atoms: C_7  and  C_8 
REMARK    2  A    between atoms: C_10  and  S_11 
REMARK    3  A    between atoms: S_11  and  N_12 
REMARK    4  A    between atoms: N_12  and  C_13 
REMARK    5  A    between atoms: C_15  and  O_16 
REMARK    6  A    between atoms: C_23  and  N_24 
REMARK    7  A    between atoms: N_24  and  C_25 
REMARK    8  A    between atoms: C_25  and  C_26 
REMARK    9  A    between atoms: C_26  and  C_27 
REMARK   10  A    between atoms: C_29  and  O_30 
REMARK   11  A    between atoms: C_32  and  O_33 
ROOT
HETATM    1  C   UNL     1      -8.740   3.394 -31.618  1.00  0.00     0.033 A 
HETATM    2  C   UNL     1      -7.789   4.333 -32.012  1.00  0.00     0.044 A 
HETATM    3  C   UNL     1      -6.418   4.080 -31.811  1.00  0.00     0.102 A 
HETATM    4  C   UNL     1      -5.958   2.895 -31.196  1.00  0.00     0.031 A 
HETATM    5  C   UNL     1      -6.951   2.021 -30.721  1.00  0.00     0.026 A 
HETATM    6  C   UNL     1      -8.316   2.252 -30.942  1.00  0.00     0.019 A 
ENDROOT
BRANCH   4   7
HETATM    7  N   UNL     1      -4.606   2.678 -30.903  1.00  0.00    -0.291 NA
HETATM    8  H   UNL     1      -4.083   3.562 -30.816  1.00  0.00     0.127 HD
BRANCH   7   9
HETATM    9  C   UNL     1      -3.796   1.730 -31.686  1.00  0.00     0.097 C 
BRANCH   9  10
HETATM   10  C   UNL     1      -3.988   0.296 -31.169  1.00  0.00     0.053 C 
BRANCH  10  11
HETATM   11  C   UNL     1      -4.371  -0.668 -32.266  1.00  0.00    -0.054 A 
HETATM   12  C   UNL     1      -5.369  -0.336 -33.195  1.00  0.00     0.046 A 
HETATM   13  C   UNL     1      -5.721  -1.226 -34.220  1.00  0.00     0.102 A 
HETATM   14  C   UNL     1      -5.069  -2.471 -34.314  1.00  0.00     0.101 A 
HETATM   15  C   UNL     1      -4.077  -2.801 -33.386  1.00  0.00     0.040 A 
HETATM   16  C   UNL     1      -3.730  -1.905 -32.371  1.00  0.00     0.010 A 
BRANCH  13  17
HETATM   17  O   UNL     1      -6.678  -0.976 -35.171  1.00  0.00    -0.353 OA
HETATM   18  C   UNL     1      -7.684  -0.020 -34.871  1.00  0.00     0.210 C 
ENDBRANCH  13  17
BRANCH  14  19
HETATM   19  O   UNL     1      -5.468  -3.286 -35.344  1.00  0.00    -0.353 OA
HETATM   20  C   UNL     1      -6.197  -4.459 -35.016  1.00  0.00     0.210 C 
ENDBRANCH  14  19
ENDBRANCH  10  11
ENDBRANCH   9  10
ENDBRANCH   7   9
ENDBRANCH   4   7
BRANCH   3  21
HETATM   21  S   UNL     1      -5.278   5.266 -32.516  1.00  0.00     0.265 S 
HETATM   22  O   UNL     1      -4.467   4.558 -33.486  1.00  0.00    -0.200 OA
HETATM   23  O   UNL     1      -6.061   6.420 -32.910  1.00  0.00    -0.200 OA
BRANCH  21  24
HETATM   24  N   UNL     1      -4.266   5.651 -31.223  1.00  0.00    -0.280 N 
HETATM   25  H   UNL     1      -4.755   6.183 -30.501  1.00  0.00     0.179 HD
BRANCH  24  26
HETATM   26  C   UNL     1      -2.921   6.024 -31.498  1.00  0.00     0.045 A 
HETATM   27  C   UNL     1      -1.877   5.159 -31.161  1.00  0.00     0.066 A 
HETATM   28  C   UNL     1      -0.557   5.548 -31.394  1.00  0.00     0.070 A 
HETATM   29  C   UNL     1      -0.298   6.797 -31.968  1.00  0.00     0.037 A 
HETATM   30  C   UNL     1      -1.343   7.659 -32.301  1.00  0.00     0.005 A 
HETATM   31  C   UNL     1      -2.657   7.275 -32.056  1.00  0.00     0.030 A 
BRANCH  28  32
HETATM   32  O   UNL     1       0.560   4.816 -31.105  1.00  0.00    -0.356 OA
HETATM   33  C   UNL     1       0.953   4.742 -29.739  1.00  0.00     0.210 C 
ENDBRANCH  28  32
ENDBRANCH  24  26
ENDBRANCH  21  24
ENDBRANCH   3  21
BRANCH   1  34
HETATM   34  C   UNL     1     -10.201   3.595 -31.836  1.00  0.00     0.253 C 
HETATM   35  N   UNL     1     -10.739   3.482 -33.126  1.00  0.00    -0.345 N 
HETATM   36  C   UNL     1     -12.139   3.901 -33.267  1.00  0.00     0.154 C 
HETATM   37  C   UNL     1     -10.372   2.365 -34.010  1.00  0.00     0.154 C 
HETATM   38  C   UNL     1     -13.093   2.734 -32.960  1.00  0.00     0.254 C 
HETATM   39  N   UNL     1     -12.758   1.553 -33.882  1.00  0.00    -0.072 N 
HETATM   40  C   UNL     1     -13.675   0.387 -33.650  1.00  0.00     0.269 C 
HETATM   41  H   UNL     1     -12.912   1.873 -34.846  1.00  0.00     0.279 HD
HETATM   42  C   UNL     1     -11.289   1.148 -33.765  1.00  0.00     0.254 C 
HETATM   43  O   UNL     1     -10.924   3.834 -30.871  1.00  0.00    -0.267 OA
ENDBRANCH   1  34
TORSDOF 11
ENDMDL
MODEL 3
REMARK VINA RESULT:      -8.5      2.636      7.174
REMARK  11 active torsions:
REMARK  status: ('A' for Active; 'I' for Inactive)
REMARK       I    between atoms: N_6  and  C_7 
REMARK    1  A    between atoms: C_7  and  C_8 
REMARK    2  A    between atoms: C_10  and  S_11 
REMARK    3  A    between atoms: S_11  and  N_12 
REMARK    4  A    between atoms: N_12  and  C_13 
REMARK    5  A    between atoms: C_15  and  O_16 
REMARK    6  A    between atoms: C_23  and  N_24 
REMARK    7  A    between atoms: N_24  and  C_25 
REMARK    8  A    between atoms: C_25  and  C_26 
REMARK    9  A    between atoms: C_26  and  C_27 
REMARK   10  A    between atoms: C_29  and  O_30 
REMARK   11  A    between atoms: C_32  and  O_33 
ROOT
HETATM    1  C   UNL     1      -5.350   3.973 -32.490  1.00  0.00     0.033 A 
HETATM    2  C   UNL     1      -5.036   2.736 -31.932  1.00  0.00     0.044 A 
HETATM    3  C   UNL     1      -5.432   1.547 -32.577  1.00  0.00     0.102 A 
HETATM    4  C   UNL     1      -6.167   1.558 -33.782  1.00  0.00     0.031 A 
HETATM    5  C   UNL     1      -6.552   2.823 -34.258  1.00  0.00     0.026 A 
HETATM    6  C   UNL     1      -6.139   4.011 -33.639  1.00  0.00     0.019 A 
ENDROOT
BRANCH   4   7
HETATM    7  N   UNL     1      -6.649   0.386 -34.378  1.00  0.00    -0.291 NA
HETATM    8  H   UNL     1      -6.155   0.167 -35.255  1.00  0.00     0.127 HD
BRANCH   7   9
HETATM    9  C   UNL     1      -8.091   0.171 -34.587  1.00  0.00     0.097 C 
BRANCH   9  10
HETATM   10  C   UNL     1      -8.812  -0.013 -33.242  1.00  0.00     0.053 C 
BRANCH  10  11
HETATM   11  C   UNL     1      -9.578   1.219 -32.824  1.00  0.00    -0.054 A 
HETATM   12  C   UNL     1     -10.723   1.625 -33.528  1.00  0.00     0.046 A 
HETATM   13  C   UNL     1     -11.441   2.763 -33.136  1.00  0.00     0.102 A 
HETATM   14  C   UNL     1     -11.004   3.514 -32.027  1.00  0.00     0.101 A 
HETATM   15  C   UNL     1      -9.863   3.109 -31.328  1.00  0.00     0.040 A 
HETATM   16  C   UNL     1      -9.156   1.970 -31.723  1.00  0.00     0.010 A 
BRANCH  13  17
HETATM   17  O   UNL     1     -12.572   3.222 -33.764  1.00  0.00    -0.353 OA
HETATM   18  C   UNL     1     -12.745   2.912 -35.139  1.00  0.00     0.210 C 
ENDBRANCH  13  17
BRANCH  14  19
HETATM   19  O   UNL     1     -11.761   4.612 -31.705  1.00  0.00    -0.353 OA
HETATM   20  C   UNL     1     -11.216   5.544 -30.783  1.00  0.00     0.210 C 
ENDBRANCH  14  19
ENDBRANCH  10  11
ENDBRANCH   9  10
ENDBRANCH   7   9
ENDBRANCH   4   7
BRANCH   3  21
HETATM   21  S   UNL     1      -4.822   0.019 -31.873  1.00  0.00     0.265 S 
HETATM   22  O   UNL     1      -3.833   0.371 -30.873  1.00  0.00    -0.200 OA
HETATM   23  O   UNL     1      -5.982  -0.773 -31.515  1.00  0.00    -0.200 OA
BRANCH  21  24
HETATM   24  N   UNL     1      -3.989  -0.696 -33.152  1.00  0.00    -0.280 N 
HETATM   25  H   UNL     1      -4.134  -0.195 -34.030  1.00  0.00     0.179 HD
BRANCH  24  26
HETATM   26  C   UNL     1      -3.939  -2.116 -33.224  1.00  0.00     0.045 A 
HETATM   27  C   UNL     1      -4.669  -2.789 -34.207  1.00  0.00     0.066 A 
HETATM   28  C   UNL     1      -4.650  -4.184 -34.246  1.00  0.00     0.070 A 
HETATM   29  C   UNL     1      -3.895  -4.889 -33.304  1.00  0.00     0.037 A 
HETATM   30  C   UNL     1      -3.169  -4.214 -32.322  1.00  0.00     0.005 A 
HETATM   31  C   UNL     1      -3.200  -2.824 -32.277  1.00  0.00     0.030 A 
BRANCH  28  32
HETATM   32  O   UNL     1      -5.322  -4.973 -35.137  1.00  0.00    -0.356 OA
HETATM   33  C   UNL     1      -6.683  -4.648 -35.394  1.00  0.00     0.210 C 
ENDBRANCH  28  32
ENDBRANCH  24  26
ENDBRANCH  21  24
ENDBRANCH   3  21
BRANCH   1  34
HETATM   34  C   UNL     1      -4.928   5.262 -31.870  1.00  0.00     0.253 C 
HETATM   35  N   UNL     1      -5.846   6.012 -31.121  1.00  0.00    -0.345 N 
HETATM   36  C   UNL     1      -5.397   7.355 -30.733  1.00  0.00     0.154 C 
HETATM   37  C   UNL     1      -6.716   5.375 -30.121  1.00  0.00     0.154 C 
HETATM   38  C   UNL     1      -4.621   7.310 -29.406  1.00  0.00     0.254 C 
HETATM   39  N   UNL     1      -5.507   6.672 -28.325  1.00  0.00    -0.072 N 
HETATM   40  C   UNL     1      -4.815   6.625 -26.994  1.00  0.00     0.269 C 
HETATM   41  H   UNL     1      -6.331   7.278 -28.218  1.00  0.00     0.279 HD
HETATM   42  C   UNL     1      -6.008   5.294 -28.752  1.00  0.00     0.254 C 
HETATM   43  O   UNL     1      -3.766   5.639 -32.004  1.00  0.00    -0.267 OA
ENDBRANCH   1  34
TORSDOF 11
ENDMDL
MODEL 4
REMARK VINA RESULT:      -8.4      2.316      7.670
REMARK  11 active torsions:
REMARK  status: ('A' for Active; 'I' for Inactive)
REMARK       I    between atoms: N_6  and  C_7 
REMARK    1  A    between atoms: C_7  and  C_8 
REMARK    2  A    between atoms: C_10  and  S_11 
REMARK    3  A    between atoms: S_11  and  N_12 
REMARK    4  A    between atoms: N_12  and  C_13 
REMARK    5  A    between atoms: C_15  and  O_16 
REMARK    6  A    between atoms: C_23  and  N_24 
REMARK    7  A    between atoms: N_24  and  C_25 
REMARK    8  A    between atoms: C_25  and  C_26 
REMARK    9  A    between atoms: C_26  and  C_27 
REMARK   10  A    between atoms: C_29  and  O_30 
REMARK   11  A    between atoms: C_32  and  O_33 
ROOT
HETATM    1  C   UNL     1      -8.542   3.417 -32.844  1.00  0.00     0.033 A 
HETATM    2  C   UNL     1      -7.584   4.168 -32.165  1.00  0.00     0.044 A 
HETATM    3  C   UNL     1      -6.813   3.576 -31.145  1.00  0.00     0.102 A 
HETATM    4  C   UNL     1      -6.989   2.229 -30.760  1.00  0.00     0.031 A 
HETATM    5  C   UNL     1      -8.032   1.537 -31.396  1.00  0.00     0.026 A 
HETATM    6  C   UNL     1      -8.785   2.109 -32.432  1.00  0.00     0.019 A 
ENDROOT
BRANCH   4   7
HETATM    7  N   UNL     1      -6.298   1.661 -29.682  1.00  0.00    -0.291 NA
HETATM    8  H   UNL     1      -5.625   2.321 -29.265  1.00  0.00     0.127 HD
BRANCH   7   9
HETATM    9  C   UNL     1      -5.652   0.343 -29.796  1.00  0.00     0.097 C 
BRANCH   9  10
HETATM   10  C   UNL     1      -4.482   0.396 -30.790  1.00  0.00     0.053 C 
BRANCH  10  11
HETATM   11  C   UNL     1      -4.671  -0.543 -31.957  1.00  0.00    -0.054 A 
HETATM   12  C   UNL     1      -5.651  -0.290 -32.930  1.00  0.00     0.046 A 
HETATM   13  C   UNL     1      -5.823  -1.155 -34.019  1.00  0.00     0.102 A 
HETATM   14  C   UNL     1      -5.006  -2.297 -34.135  1.00  0.00     0.101 A 
HETATM   15  C   UNL     1      -4.032  -2.549 -33.165  1.00  0.00     0.040 A 
HETATM   16  C   UNL     1      -3.865  -1.677 -32.085  1.00  0.00     0.010 A 
BRANCH  13  17
HETATM   17  O   UNL     1      -6.750  -0.976 -35.014  1.00  0.00    -0.353 OA
HETATM   18  C   UNL     1      -7.137   0.351 -35.336  1.00  0.00     0.210 C 
ENDBRANCH  13  17
BRANCH  14  19
HETATM   19  O   UNL     1      -5.234  -3.093 -35.230  1.00  0.00    -0.353 OA
HETATM   20  C   UNL     1      -5.762  -4.392 -35.004  1.00  0.00     0.210 C 
ENDBRANCH  14  19
ENDBRANCH  10  11
ENDBRANCH   9  10
ENDBRANCH   7   9
ENDBRANCH   4   7
BRANCH   3  21
HETATM   21  S   UNL     1      -5.492   4.574 -30.466  1.00  0.00     0.265 S 
HETATM   22  O   UNL     1      -5.404   5.776 -31.271  1.00  0.00    -0.200 OA
HETATM   23  O   UNL     1      -5.719   4.658 -29.036  1.00  0.00    -0.200 OA
BRANCH  21  24
HETATM   24  N   UNL     1      -4.109   3.666 -30.793  1.00  0.00    -0.280 N 
HETATM   25  H   UNL     1      -3.773   3.171 -29.966  1.00  0.00     0.179 HD
BRANCH  24  26
HETATM   26  C   UNL     1      -3.123   4.215 -31.659  1.00  0.00     0.045 A 
HETATM   27  C   UNL     1      -2.112   5.025 -31.136  1.00  0.00     0.066 A 
HETATM   28  C   UNL     1      -1.171   5.595 -31.996  1.00  0.00     0.070 A 
HETATM   29  C   UNL     1      -1.252   5.342 -33.369  1.00  0.00     0.037 A 
HETATM   30  C   UNL     1      -2.264   4.535 -33.888  1.00  0.00     0.005 A 
HETATM   31  C   UNL     1      -3.208   3.978 -33.031  1.00  0.00     0.030 A 
BRANCH  28  32
HETATM   32  O   UNL     1      -0.141   6.415 -31.631  1.00  0.00    -0.356 OA
HETATM   33  C   UNL     1       0.029   6.665 -30.241  1.00  0.00     0.210 C 
ENDBRANCH  28  32
ENDBRANCH  24  26
ENDBRANCH  21  24
ENDBRANCH   3  21
BRANCH   1  34
HETATM   34  C   UNL     1      -9.362   3.982 -33.954  1.00  0.00     0.253 C 
HETATM   35  N   UNL     1     -10.638   3.462 -34.217  1.00  0.00    -0.345 N 
HETATM   36  C   UNL     1     -11.272   3.938 -35.452  1.00  0.00     0.154 C 
HETATM   37  C   UNL     1     -11.594   3.205 -33.130  1.00  0.00     0.154 C 
HETATM   38  C   UNL     1     -12.050   5.242 -35.200  1.00  0.00     0.254 C 
HETATM   39  N   UNL     1     -13.080   5.007 -34.085  1.00  0.00    -0.072 N 
HETATM   40  C   UNL     1     -13.893   6.238 -33.811  1.00  0.00     0.269 C 
HETATM   41  H   UNL     1     -13.727   4.285 -34.424  1.00  0.00     0.279 HD
HETATM   42  C   UNL     1     -12.421   4.469 -32.816  1.00  0.00     0.254 C 
HETATM   43  O   UNL     1      -8.915   4.917 -34.614  1.00  0.00    -0.267 OA
ENDBRANCH   1  34
TORSDOF 11
ENDMDL
MODEL 5
REMARK VINA RESULT:      -8.4      2.814      9.104
REMARK  11 active torsions:
REMARK  status: ('A' for Active; 'I' for Inactive)
REMARK       I    between atoms: N_6  and  C_7 
REMARK    1  A    between atoms: C_7  and  C_8 
REMARK    2  A    between atoms: C_10  and  S_11 
REMARK    3  A    between atoms: S_11  and  N_12 
REMARK    4  A    between atoms: N_12  and  C_13 
REMARK    5  A    between atoms: C_15  and  O_16 
REMARK    6  A    between atoms: C_23  and  N_24 
REMARK    7  A    between atoms: N_24  and  C_25 
REMARK    8  A    between atoms: C_25  and  C_26 
REMARK    9  A    between atoms: C_26  and  C_27 
REMARK   10  A    between atoms: C_29  and  O_30 
REMARK   11  A    between atoms: C_32  and  O_33 
ROOT
HETATM    1  C   UNL     1      -6.771   3.661 -31.266  1.00  0.00     0.033 A 
HETATM    2  C   UNL     1      -6.090   2.452 -31.398  1.00  0.00     0.044 A 
HETATM    3  C   UNL     1      -4.682   2.424 -31.363  1.00  0.00     0.102 A 
HETATM    4  C   UNL     1      -3.914   3.600 -31.217  1.00  0.00     0.031 A 
HETATM    5  C   UNL     1      -4.633   4.807 -31.190  1.00  0.00     0.026 A 
HETATM    6  C   UNL     1      -6.034   4.842 -31.196  1.00  0.00     0.019 A 
ENDROOT
BRANCH   4   7
HETATM    7  N   UNL     1      -2.515   3.595 -31.280  1.00  0.00    -0.291 NA
HETATM    8  H   UNL     1      -2.088   3.417 -30.360  1.00  0.00     0.127 HD
BRANCH   7   9
HETATM    9  C   UNL     1      -1.775   4.686 -31.937  1.00  0.00     0.097 C 
BRANCH   9  10
HETATM   10  C   UNL     1      -0.472   4.989 -31.181  1.00  0.00     0.053 C 
BRANCH  10  11
HETATM   11  C   UNL     1      -0.575   6.229 -30.326  1.00  0.00    -0.054 A 
HETATM   12  C   UNL     1       0.479   6.605 -29.478  1.00  0.00     0.046 A 
HETATM   13  C   UNL     1       0.390   7.760 -28.689  1.00  0.00     0.102 A 
HETATM   14  C   UNL     1      -0.775   8.551 -28.743  1.00  0.00     0.101 A 
HETATM   15  C   UNL     1      -1.824   8.175 -29.587  1.00  0.00     0.040 A 
HETATM   16  C   UNL     1      -1.724   7.024 -30.373  1.00  0.00     0.010 A 
BRANCH  13  17
HETATM   17  O   UNL     1       1.376   8.200 -27.842  1.00  0.00    -0.353 OA
HETATM   18  C   UNL     1       1.526   7.541 -26.593  1.00  0.00     0.210 C 
ENDBRANCH  13  17
BRANCH  14  19
HETATM   19  O   UNL     1      -0.785   9.667 -27.944  1.00  0.00    -0.353 OA
HETATM   20  C   UNL     1      -2.044  10.245 -27.632  1.00  0.00     0.210 C 
ENDBRANCH  14  19
ENDBRANCH  10  11
ENDBRANCH   9  10
ENDBRANCH   7   9
ENDBRANCH   4   7
BRANCH   3  21
HETATM   21  S   UNL     1      -3.917   0.807 -31.358  1.00  0.00     0.265 S 
HETATM   22  O   UNL     1      -2.569   0.970 -30.851  1.00  0.00    -0.200 OA
HETATM   23  O   UNL     1      -4.846  -0.096 -30.708  1.00  0.00    -0.200 OA
BRANCH  21  24
HETATM   24  N   UNL     1      -3.780   0.435 -32.997  1.00  0.00    -0.280 N 
HETATM   25  H   UNL     1      -3.618   1.267 -33.565  1.00  0.00     0.179 HD
BRANCH  24  26
HETATM   26  C   UNL     1      -4.635  -0.562 -33.544  1.00  0.00     0.045 A 
HETATM   27  C   UNL     1      -4.191  -1.883 -33.639  1.00  0.00     0.066 A 
HETATM   28  C   UNL     1      -5.018  -2.849 -34.215  1.00  0.00     0.070 A 
HETATM   29  C   UNL     1      -6.283  -2.480 -34.684  1.00  0.00     0.037 A 
HETATM   30  C   UNL     1      -6.722  -1.160 -34.589  1.00  0.00     0.005 A 
HETATM   31  C   UNL     1      -5.891  -0.197 -34.026  1.00  0.00     0.030 A 
BRANCH  28  32
HETATM   32  O   UNL     1      -4.713  -4.170 -34.387  1.00  0.00    -0.356 OA
HETATM   33  C   UNL     1      -3.625  -4.689 -33.632  1.00  0.00     0.210 C 
ENDBRANCH  28  32
ENDBRANCH  24  26
ENDBRANCH  21  24
ENDBRANCH   3  21
BRANCH   1  34
HETATM   34  C   UNL     1      -8.259   3.745 -31.261  1.00  0.00     0.253 C 
HETATM   35  N   UNL     1      -8.936   4.248 -32.382  1.00  0.00    -0.345 N 
HETATM   36  C   UNL     1     -10.373   4.484 -32.200  1.00  0.00     0.154 C 
HETATM   37  C   UNL     1      -8.584   3.815 -33.743  1.00  0.00     0.154 C 
HETATM   38  C   UNL     1     -11.180   3.211 -32.505  1.00  0.00     0.254 C 
HETATM   39  N   UNL     1     -10.859   2.740 -33.930  1.00  0.00    -0.072 N 
HETATM   40  C   UNL     1     -11.640   1.512 -34.300  1.00  0.00     0.269 C 
HETATM   41  H   UNL     1     -11.154   3.490 -34.567  1.00  0.00     0.279 HD
HETATM   42  C   UNL     1      -9.357   2.537 -34.129  1.00  0.00     0.254 C 
HETATM   43  O   UNL     1      -8.879   3.347 -30.277  1.00  0.00    -0.267 OA
ENDBRANCH   1  34
TORSDOF 11
ENDMDL
MODEL 6
REMARK VINA RESULT:      -8.3      1.330      2.068
REMARK  11 active torsions:
REMARK  status: ('A' for Active; 'I' for Inactive)
REMARK       I    between atoms: N_6  and  C_7 
REMARK    1  A    between atoms: C_7  and  C_8 
REMARK    2  A    between atoms: C_10  and  S_11 
REMARK    3  A    between atoms: S_11  and  N_12 
REMARK    4  A    between atoms: N_12  and  C_13 
REMARK    5  A    between atoms: C_15  and  O_16 
REMARK    6  A    between atoms: C_23  and  N_24 
REMARK    7  A    between atoms: N_24  and  C_25 
REMARK    8  A    between atoms: C_25  and  C_26 
REMARK    9  A    between atoms: C_26  and  C_27 
REMARK   10  A    between atoms: C_29  and  O_30 
REMARK   11  A    between atoms: C_32  and  O_33 
ROOT
HETATM    1  C   UNL     1      -3.384   4.453 -31.757  1.00  0.00     0.033 A 
HETATM    2  C   UNL     1      -4.572   5.023 -32.209  1.00  0.00     0.044 A 
HETATM    3  C   UNL     1      -5.794   4.342 -32.043  1.00  0.00     0.102 A 
HETATM    4  C   UNL     1      -5.863   3.067 -31.441  1.00  0.00     0.031 A 
HETATM    5  C   UNL     1      -4.634   2.482 -31.092  1.00  0.00     0.026 A 
HETATM    6  C   UNL     1      -3.417   3.165 -31.227  1.00  0.00     0.019 A 
ENDROOT
BRANCH   4   7
HETATM    7  N   UNL     1      -7.057   2.338 -31.361  1.00  0.00    -0.291 NA
HETATM    8  H   UNL     1      -7.589   2.563 -30.507  1.00  0.00     0.127 HD
BRANCH   7   9
HETATM    9  C   UNL     1      -7.078   0.879 -31.556  1.00  0.00     0.097 C 
BRANCH   9  10
HETATM   10  C   UNL     1      -7.034   0.532 -33.051  1.00  0.00     0.053 C 
BRANCH  10  11
HETATM   11  C   UNL     1      -6.105  -0.620 -33.351  1.00  0.00    -0.054 A 
HETATM   12  C   UNL     1      -6.419  -1.553 -34.352  1.00  0.00     0.046 A 
HETATM   13  C   UNL     1      -5.554  -2.618 -34.638  1.00  0.00     0.102 A 
HETATM   14  C   UNL     1      -4.358  -2.758 -33.907  1.00  0.00     0.101 A 
HETATM   15  C   UNL     1      -4.048  -1.830 -32.910  1.00  0.00     0.040 A 
HETATM   16  C   UNL     1      -4.914  -0.768 -32.635  1.00  0.00     0.010 A 
BRANCH  13  17
HETATM   17  O   UNL     1      -5.783  -3.567 -35.603  1.00  0.00    -0.353 OA
HETATM   18  C   UNL     1      -6.758  -4.564 -35.341  1.00  0.00     0.210 C 
ENDBRANCH  13  17
BRANCH  14  19
HETATM   19  O   UNL     1      -3.564  -3.825 -34.248  1.00  0.00    -0.353 OA
HETATM   20  C   UNL     1      -3.505  -4.920 -33.346  1.00  0.00     0.210 C 
ENDBRANCH  14  19
ENDBRANCH  10  11
ENDBRANCH   9  10
ENDBRANCH   7   9
ENDBRANCH   4   7
BRANCH   3  21
HETATM   21  S   UNL     1      -7.274   5.240 -32.494  1.00  0.00     0.265 S 
HETATM   22  O   UNL     1      -8.301   4.885 -31.534  1.00  0.00    -0.200 OA
HETATM   23  O   UNL     1      -6.887   6.624 -32.681  1.00  0.00    -0.200 OA
BRANCH  21  24
HETATM   24  N   UNL     1      -7.720   4.546 -33.965  1.00  0.00    -0.280 N 
HETATM   25  H   UNL     1      -7.177   4.921 -34.744  1.00  0.00     0.179 HD
BRANCH  24  26
HETATM   26  C   UNL     1      -9.098   4.287 -34.206  1.00  0.00     0.045 A 
HETATM   27  C   UNL     1      -9.617   3.012 -33.963  1.00  0.00     0.066 A 
HETATM   28  C   UNL     1     -10.961   2.752 -34.241  1.00  0.00     0.070 A 
HETATM   29  C   UNL     1     -11.768   3.771 -34.754  1.00  0.00     0.037 A 
HETATM   30  C   UNL     1     -11.245   5.041 -34.998  1.00  0.00     0.005 A 
HETATM   31  C   UNL     1      -9.903   5.296 -34.732  1.00  0.00     0.030 A 
BRANCH  28  32
HETATM   32  O   UNL     1     -11.600   1.556 -34.068  1.00  0.00    -0.356 OA
HETATM   33  C   UNL     1     -12.941   1.599 -33.595  1.00  0.00     0.210 C 
ENDBRANCH  28  32
ENDBRANCH  24  26
ENDBRANCH  21  24
ENDBRANCH   3  21
BRANCH   1  34
HETATM   34  C   UNL     1      -2.068   5.144 -31.875  1.00  0.00     0.253 C 
HETATM   35  N   UNL     1      -1.962   6.508 -31.565  1.00  0.00    -0.345 N 
HETATM   36  C   UNL     1      -0.683   7.138 -31.913  1.00  0.00     0.154 C 
HETATM   37  C   UNL     1      -2.575   7.062 -30.348  1.00  0.00     0.154 C 
HETATM   38  C   UNL     1       0.333   6.980 -30.769  1.00  0.00     0.254 C 
HETATM   39  N   UNL     1      -0.260   7.572 -29.482  1.00  0.00    -0.072 N 
HETATM   40  C   UNL     1       0.698   7.474 -28.331  1.00  0.00     0.269 C 
HETATM   41  H   UNL     1      -0.421   8.571 -29.659  1.00  0.00     0.279 HD
HETATM   42  C   UNL     1      -1.613   6.944 -29.148  1.00  0.00     0.254 C 
HETATM   43  O   UNL     1      -1.082   4.499 -32.224  1.00  0.00    -0.267 OA
ENDBRANCH   1  34
TORSDOF 11
ENDMDL
MODEL 7
REMARK VINA RESULT:      -8.2      2.196      7.154
REMARK  11 active torsions:
REMARK  status: ('A' for Active; 'I' for Inactive)
REMARK       I    between atoms: N_6  and  C_7 
REMARK    1  A    between atoms: C_7  and  C_8 
REMARK    2  A    between atoms: C_10  and  S_11 
REMARK    3  A    between atoms: S_11  and  N_12 
REMARK    4  A    between atoms: N_12  and  C_13 
REMARK    5  A    between atoms: C_15  and  O_16 
REMARK    6  A    between atoms: C_23  and  N_24 
REMARK    7  A    between atoms: N_24  and  C_25 
REMARK    8  A    between atoms: C_25  and  C_26 
REMARK    9  A    between atoms: C_26  and  C_27 
REMARK   10  A    between atoms: C_29  and  O_30 
REMARK   11  A    between atoms: C_32  and  O_33 
ROOT
HETATM    1  C   UNL     1      -3.442   4.039 -32.314  1.00  0.00     0.033 A 
HETATM    2  C   UNL     1      -3.424   2.719 -31.868  1.00  0.00     0.044 A 
HETATM    3  C   UNL     1      -4.477   1.844 -32.200  1.00  0.00     0.102 A 
HETATM    4  C   UNL     1      -5.585   2.265 -32.967  1.00  0.00     0.031 A 
HETATM    5  C   UNL     1      -5.616   3.626 -33.311  1.00  0.00     0.026 A 
HETATM    6  C   UNL     1      -4.559   4.497 -33.009  1.00  0.00     0.019 A 
ENDROOT
BRANCH   4   7
HETATM    7  N   UNL     1      -6.683   1.432 -33.218  1.00  0.00    -0.291 NA
HETATM    8  H   UNL     1      -6.409   0.440 -33.277  1.00  0.00     0.127 HD
BRANCH   7   9
HETATM    9  C   UNL     1      -7.630   1.722 -34.308  1.00  0.00     0.097 C 
BRANCH   9  10
HETATM   10  C   UNL     1      -8.887   0.848 -34.181  1.00  0.00     0.053 C 
BRANCH  10  11
HETATM   11  C   UNL     1     -10.127   1.657 -33.888  1.00  0.00    -0.054 A 
HETATM   12  C   UNL     1     -11.353   1.333 -34.492  1.00  0.00     0.046 A 
HETATM   13  C   UNL     1     -12.508   2.077 -34.216  1.00  0.00     0.102 A 
HETATM   14  C   UNL     1     -12.437   3.168 -33.327  1.00  0.00     0.101 A 
HETATM   15  C   UNL     1     -11.216   3.490 -32.729  1.00  0.00     0.040 A 
HETATM   16  C   UNL     1     -10.070   2.740 -33.007  1.00  0.00     0.010 A 
BRANCH  13  17
HETATM   17  O   UNL     1     -13.744   1.822 -34.756  1.00  0.00    -0.353 OA
HETATM   18  C   UNL     1     -14.415   0.637 -34.359  1.00  0.00     0.210 C 
ENDBRANCH  13  17
BRANCH  14  19
HETATM   19  O   UNL     1     -13.610   3.845 -33.107  1.00  0.00    -0.353 OA
HETATM   20  C   UNL     1     -14.275   3.631 -31.871  1.00  0.00     0.210 C 
ENDBRANCH  14  19
ENDBRANCH  10  11
ENDBRANCH   9  10
ENDBRANCH   7   9
ENDBRANCH   4   7
BRANCH   3  21
HETATM   21  S   UNL     1      -4.266   0.130 -31.731  1.00  0.00     0.265 S 
HETATM   22  O   UNL     1      -3.030   0.040 -30.978  1.00  0.00    -0.200 OA
HETATM   23  O   UNL     1      -5.519  -0.304 -31.146  1.00  0.00    -0.200 OA
BRANCH  21  24
HETATM   24  N   UNL     1      -3.998  -0.647 -33.203  1.00  0.00    -0.280 N 
HETATM   25  H   UNL     1      -4.499  -0.197 -33.969  1.00  0.00     0.179 HD
BRANCH  24  26
HETATM   26  C   UNL     1      -3.937  -2.068 -33.221  1.00  0.00     0.045 A 
HETATM   27  C   UNL     1      -4.681  -2.784 -34.163  1.00  0.00     0.066 A 
HETATM   28  C   UNL     1      -4.651  -4.179 -34.150  1.00  0.00     0.070 A 
HETATM   29  C   UNL     1      -3.871  -4.842 -33.198  1.00  0.00     0.037 A 
HETATM   30  C   UNL     1      -3.132  -4.125 -32.257  1.00  0.00     0.005 A 
HETATM   31  C   UNL     1      -3.173  -2.734 -32.264  1.00  0.00     0.030 A 
BRANCH  28  32
HETATM   32  O   UNL     1      -5.334  -5.006 -34.997  1.00  0.00    -0.356 OA
HETATM   33  C   UNL     1      -6.616  -4.571 -35.436  1.00  0.00     0.210 C 
ENDBRANCH  28  32
ENDBRANCH  24  26
ENDBRANCH  21  24
ENDBRANCH   3  21
BRANCH   1  34
HETATM   34  C   UNL     1      -2.338   4.998 -32.022  1.00  0.00     0.253 C 
HETATM   35  N   UNL     1      -2.632   6.345 -31.762  1.00  0.00    -0.345 N 
HETATM   36  C   UNL     1      -1.472   7.242 -31.694  1.00  0.00     0.154 C 
HETATM   37  C   UNL     1      -3.719   6.725 -30.848  1.00  0.00     0.154 C 
HETATM   38  C   UNL     1      -0.890   7.279 -30.271  1.00  0.00     0.254 C 
HETATM   39  N   UNL     1      -1.992   7.698 -29.286  1.00  0.00    -0.072 N 
HETATM   40  C   UNL     1      -1.478   7.780 -27.878  1.00  0.00     0.269 C 
HETATM   41  H   UNL     1      -2.290   8.644 -29.556  1.00  0.00     0.279 HD
HETATM   42  C   UNL     1      -3.214   6.787 -29.391  1.00  0.00     0.254 C 
HETATM   43  O   UNL     1      -1.180   4.588 -31.989  1.00  0.00    -0.267 OA
ENDBRANCH   1  34
TORSDOF 11
ENDMDL
MODEL 8
REMARK VINA RESULT:      -8.2      2.427      3.519
REMARK  11 active torsions:
REMARK  status: ('A' for Active; 'I' for Inactive)
REMARK       I    between atoms: N_6  and  C_7 
REMARK    1  A    between atoms: C_7  and  C_8 
REMARK    2  A    between atoms: C_10  and  S_11 
REMARK    3  A    between atoms: S_11  and  N_12 
REMARK    4  A    between atoms: N_12  and  C_13 
REMARK    5  A    between atoms: C_15  and  O_16 
REMARK    6  A    between atoms: C_23  and  N_24 
REMARK    7  A    between atoms: N_24  and  C_25 
REMARK    8  A    between atoms: C_25  and  C_26 
REMARK    9  A    between atoms: C_26  and  C_27 
REMARK   10  A    between atoms: C_29  and  O_30 
REMARK   11  A    between atoms: C_32  and  O_33 
ROOT
HETATM    1  C   UNL     1      -3.592   6.610 -31.789  1.00  0.00     0.033 A 
HETATM    2  C   UNL     1      -4.674   6.118 -32.515  1.00  0.00     0.044 A 
HETATM    3  C   UNL     1      -4.848   4.729 -32.675  1.00  0.00     0.102 A 
HETATM    4  C   UNL     1      -3.939   3.795 -32.132  1.00  0.00     0.031 A 
HETATM    5  C   UNL     1      -2.808   4.332 -31.495  1.00  0.00     0.026 A 
HETATM    6  C   UNL     1      -2.642   5.712 -31.308  1.00  0.00     0.019 A 
ENDROOT
BRANCH   4   7
HETATM    7  N   UNL     1      -4.048   2.418 -32.368  1.00  0.00    -0.291 NA
HETATM    8  H   UNL     1      -5.028   2.125 -32.491  1.00  0.00     0.127 HD
BRANCH   7   9
HETATM    9  C   UNL     1      -3.370   1.438 -31.504  1.00  0.00     0.097 C 
BRANCH   9  10
HETATM   10  C   UNL     1      -4.337   0.316 -31.095  1.00  0.00     0.053 C 
BRANCH  10  11
HETATM   11  C   UNL     1      -4.606  -0.655 -32.221  1.00  0.00    -0.054 A 
HETATM   12  C   UNL     1      -5.657  -0.430 -33.124  1.00  0.00     0.046 A 
HETATM   13  C   UNL     1      -5.904  -1.324 -34.174  1.00  0.00     0.102 A 
HETATM   14  C   UNL     1      -5.092  -2.466 -34.322  1.00  0.00     0.101 A 
HETATM   15  C   UNL     1      -4.047  -2.689 -33.420  1.00  0.00     0.040 A 
HETATM   16  C   UNL     1      -3.805  -1.789 -32.379  1.00  0.00     0.010 A 
BRANCH  13  17
HETATM   17  O   UNL     1      -6.904  -1.175 -35.103  1.00  0.00    -0.353 OA
HETATM   18  C   UNL     1      -7.414   0.130 -35.330  1.00  0.00     0.210 C 
ENDBRANCH  13  17
BRANCH  14  19
HETATM   19  O   UNL     1      -5.396  -3.292 -35.376  1.00  0.00    -0.353 OA
HETATM   20  C   UNL     1      -6.024  -4.531 -35.084  1.00  0.00     0.210 C 
ENDBRANCH  14  19
ENDBRANCH  10  11
ENDBRANCH   9  10
ENDBRANCH   7   9
ENDBRANCH   4   7
BRANCH   3  21
HETATM   21  S   UNL     1      -6.363   4.202 -33.467  1.00  0.00     0.265 S 
HETATM   22  O   UNL     1      -7.060   5.397 -33.899  1.00  0.00    -0.200 OA
HETATM   23  O   UNL     1      -6.003   3.172 -34.422  1.00  0.00    -0.200 OA
BRANCH  21  24
HETATM   24  N   UNL     1      -7.259   3.545 -32.199  1.00  0.00    -0.280 N 
HETATM   25  H   UNL     1      -6.683   3.369 -31.375  1.00  0.00     0.179 HD
BRANCH  24  26
HETATM   26  C   UNL     1      -8.262   2.582 -32.501  1.00  0.00     0.045 A 
HETATM   27  C   UNL     1      -9.237   2.871 -33.460  1.00  0.00     0.066 A 
HETATM   28  C   UNL     1     -10.243   1.939 -33.722  1.00  0.00     0.070 A 
HETATM   29  C   UNL     1     -10.257   0.727 -33.025  1.00  0.00     0.037 A 
HETATM   30  C   UNL     1      -9.285   0.444 -32.066  1.00  0.00     0.005 A 
HETATM   31  C   UNL     1      -8.290   1.378 -31.797  1.00  0.00     0.030 A 
BRANCH  28  32
HETATM   32  O   UNL     1     -11.264   2.089 -34.617  1.00  0.00    -0.356 OA
HETATM   33  C   UNL     1     -12.414   1.271 -34.435  1.00  0.00     0.210 C 
ENDBRANCH  28  32
ENDBRANCH  24  26
ENDBRANCH  21  24
ENDBRANCH   3  21
BRANCH   1  34
HETATM   34  C   UNL     1      -3.378   8.068 -31.560  1.00  0.00     0.253 C 
HETATM   35  N   UNL     1      -4.217   8.770 -30.682  1.00  0.00    -0.345 N 
HETATM   36  C   UNL     1      -4.058  10.229 -30.687  1.00  0.00     0.154 C 
HETATM   37  C   UNL     1      -4.565   8.225 -29.362  1.00  0.00     0.154 C 
HETATM   38  C   UNL     1      -2.959  10.663 -29.701  1.00  0.00     0.254 C 
HETATM   39  N   UNL     1      -3.300  10.133 -28.301  1.00  0.00    -0.072 N 
HETATM   40  C   UNL     1      -2.277  10.548 -27.284  1.00  0.00     0.269 C 
HETATM   41  H   UNL     1      -4.192  10.564 -28.027  1.00  0.00     0.279 HD
HETATM   42  C   UNL     1      -3.508   8.620 -28.309  1.00  0.00     0.254 C 
HETATM   43  O   UNL     1      -2.448   8.634 -32.130  1.00  0.00    -0.267 OA
ENDBRANCH   1  34
TORSDOF 11
ENDMDL
MODEL 9
REMARK VINA RESULT:      -8.2      2.237      8.401
REMARK  11 active torsions:
REMARK  status: ('A' for Active; 'I' for Inactive)
REMARK       I    between atoms: N_6  and  C_7 
REMARK    1  A    between atoms: C_7  and  C_8 
REMARK    2  A    between atoms: C_10  and  S_11 
REMARK    3  A    between atoms: S_11  and  N_12 
REMARK    4  A    between atoms: N_12  and  C_13 
REMARK    5  A    between atoms: C_15  and  O_16 
REMARK    6  A    between atoms: C_23  and  N_24 
REMARK    7  A    between atoms: N_24  and  C_25 
REMARK    8  A    between atoms: C_25  and  C_26 
REMARK    9  A    between atoms: C_26  and  C_27 
REMARK   10  A    between atoms: C_29  and  O_30 
REMARK   11  A    between atoms: C_32  and  O_33 
ROOT
HETATM    1  C   UNL     1      -6.830   0.731 -32.766  1.00  0.00     0.033 A 
HETATM    2  C   UNL     1      -6.344   1.964 -33.194  1.00  0.00     0.044 A 
HETATM    3  C   UNL     1      -6.802   3.154 -32.594  1.00  0.00     0.102 A 
HETATM    4  C   UNL     1      -7.771   3.148 -31.567  1.00  0.00     0.031 A 
HETATM    5  C   UNL     1      -8.311   1.895 -31.235  1.00  0.00     0.026 A 
HETATM    6  C   UNL     1      -7.841   0.704 -31.807  1.00  0.00     0.019 A 
ENDROOT
BRANCH   4   7
HETATM    7  N   UNL     1      -8.306   4.328 -31.034  1.00  0.00    -0.291 NA
HETATM    8  H   UNL     1      -8.071   4.441 -30.037  1.00  0.00     0.127 HD
BRANCH   7   9
HETATM    9  C   UNL     1      -9.722   4.682 -31.226  1.00  0.00     0.097 C 
BRANCH   9  10
HETATM   10  C   UNL     1     -10.056   4.790 -32.721  1.00  0.00     0.053 C 
BRANCH  10  11
HETATM   11  C   UNL     1     -10.926   3.653 -33.204  1.00  0.00    -0.054 A 
HETATM   12  C   UNL     1     -12.283   3.591 -32.851  1.00  0.00     0.046 A 
HETATM   13  C   UNL     1     -13.095   2.542 -33.304  1.00  0.00     0.102 A 
HETATM   14  C   UNL     1     -12.540   1.534 -34.118  1.00  0.00     0.101 A 
HETATM   15  C   UNL     1     -11.188   1.597 -34.466  1.00  0.00     0.040 A 
HETATM   16  C   UNL     1     -10.388   2.650 -34.014  1.00  0.00     0.010 A 
BRANCH  13  17
HETATM   17  O   UNL     1     -14.430   2.411 -33.012  1.00  0.00    -0.353 OA
HETATM   18  C   UNL     1     -14.937   3.102 -31.880  1.00  0.00     0.210 C 
ENDBRANCH  13  17
BRANCH  14  19
HETATM   19  O   UNL     1     -13.400   0.543 -34.522  1.00  0.00    -0.353 OA
HETATM   20  C   UNL     1     -13.596  -0.559 -33.648  1.00  0.00     0.210 C 
ENDBRANCH  14  19
ENDBRANCH  10  11
ENDBRANCH   9  10
ENDBRANCH   7   9
ENDBRANCH   4   7
BRANCH   3  21
HETATM   21  S   UNL     1      -5.982   4.664 -33.092  1.00  0.00     0.265 S 
HETATM   22  O   UNL     1      -6.774   5.254 -34.153  1.00  0.00    -0.200 OA
HETATM   23  O   UNL     1      -5.698   5.409 -31.881  1.00  0.00    -0.200 OA
BRANCH  21  24
HETATM   24  N   UNL     1      -4.552   4.117 -33.799  1.00  0.00    -0.280 N 
HETATM   25  H   UNL     1      -4.486   3.099 -33.788  1.00  0.00     0.179 HD
BRANCH  24  26
HETATM   26  C   UNL     1      -3.352   4.842 -33.558  1.00  0.00     0.045 A 
HETATM   27  C   UNL     1      -2.415   4.351 -32.645  1.00  0.00     0.066 A 
HETATM   28  C   UNL     1      -1.258   5.087 -32.381  1.00  0.00     0.070 A 
HETATM   29  C   UNL     1      -1.052   6.304 -33.038  1.00  0.00     0.037 A 
HETATM   30  C   UNL     1      -1.991   6.792 -33.946  1.00  0.00     0.005 A 
HETATM   31  C   UNL     1      -3.148   6.063 -34.199  1.00  0.00     0.030 A 
BRANCH  28  32
HETATM   32  O   UNL     1      -0.266   4.740 -31.507  1.00  0.00    -0.356 OA
HETATM   33  C   UNL     1       0.291   5.779 -30.711  1.00  0.00     0.210 C 
ENDBRANCH  28  32
ENDBRANCH  24  26
ENDBRANCH  21  24
ENDBRANCH   3  21
BRANCH   1  34
HETATM   34  C   UNL     1      -6.355  -0.560 -33.341  1.00  0.00     0.253 C 
HETATM   35  N   UNL     1      -5.010  -0.712 -33.706  1.00  0.00    -0.345 N 
HETATM   36  C   UNL     1      -4.691  -1.936 -34.450  1.00  0.00     0.154 C 
HETATM   37  C   UNL     1      -3.925  -0.270 -32.817  1.00  0.00     0.154 C 
HETATM   38  C   UNL     1      -4.377  -3.095 -33.489  1.00  0.00     0.254 C 
HETATM   39  N   UNL     1      -3.228  -2.681 -32.558  1.00  0.00    -0.072 N 
HETATM   40  C   UNL     1      -2.854  -3.784 -31.611  1.00  0.00     0.269 C 
HETATM   41  H   UNL     1      -2.410  -2.502 -33.154  1.00  0.00     0.279 HD
HETATM   42  C   UNL     1      -3.546  -1.383 -31.818  1.00  0.00     0.254 C 
HETATM   43  O   UNL     1      -7.151  -1.489 -33.467  1.00  0.00    -0.267 OA
ENDBRANCH   1  34
TORSDOF 11
ENDMDL
MODEL 10
REMARK VINA RESULT:      -8.1      1.612      2.048
REMARK  11 active torsions:
REMARK  status: ('A' for Active; 'I' for Inactive)
REMARK       I    between atoms: N_6  and  C_7 
REMARK    1  A    between atoms: C_7  and  C_8 
REMARK    2  A    between atoms: C_10  and  S_11 
REMARK    3  A    between atoms: S_11  and  N_12 
REMARK    4  A    between atoms: N_12  and  C_13 
REMARK    5  A    between atoms: C_15  and  O_16 
REMARK    6  A    between atoms: C_23  and  N_24 
REMARK    7  A    between atoms: N_24  and  C_25 
REMARK    8  A    between atoms: C_25  and  C_26 
REMARK    9  A    between atoms: C_26  and  C_27 
REMARK   10  A    between atoms: C_29  and  O_30 
REMARK   11  A    between atoms: C_32  and  O_33 
ROOT
HETATM    1  C   UNL     1      -5.688   5.008 -30.845  1.00  0.00     0.033 A 
HETATM    2  C   UNL     1      -6.395   4.818 -32.030  1.00  0.00     0.044 A 
HETATM    3  C   UNL     1      -7.508   3.954 -32.061  1.00  0.00     0.102 A 
HETATM    4  C   UNL     1      -7.933   3.243 -30.918  1.00  0.00     0.031 A 
HETATM    5  C   UNL     1      -7.134   3.382 -29.771  1.00  0.00     0.026 A 
HETATM    6  C   UNL     1      -6.042   4.261 -29.724  1.00  0.00     0.019 A 
ENDROOT
BRANCH   4   7
HETATM    7  N   UNL     1      -8.976   2.307 -30.961  1.00  0.00    -0.291 NA
HETATM    8  H   UNL     1      -9.485   2.257 -30.067  1.00  0.00     0.127 HD
BRANCH   7   9
HETATM    9  C   UNL     1      -8.754   0.937 -31.453  1.00  0.00     0.097 C 
BRANCH   9  10
HETATM   10  C   UNL     1      -7.300   0.504 -31.214  1.00  0.00     0.053 C 
BRANCH  10  11
HETATM   11  C   UNL     1      -6.783  -0.411 -32.298  1.00  0.00    -0.054 A 
HETATM   12  C   UNL     1      -5.468  -0.901 -32.256  1.00  0.00     0.046 A 
HETATM   13  C   UNL     1      -4.988  -1.758 -33.256  1.00  0.00     0.102 A 
HETATM   14  C   UNL     1      -5.834  -2.127 -34.320  1.00  0.00     0.101 A 
HETATM   15  C   UNL     1      -7.142  -1.637 -34.362  1.00  0.00     0.040 A 
HETATM   16  C   UNL     1      -7.613  -0.787 -33.358  1.00  0.00     0.010 A 
BRANCH  13  17
HETATM   17  O   UNL     1      -3.721  -2.285 -33.284  1.00  0.00    -0.353 OA
HETATM   18  C   UNL     1      -3.268  -2.996 -32.142  1.00  0.00     0.210 C 
ENDBRANCH  13  17
BRANCH  14  19
HETATM   19  O   UNL     1      -5.292  -2.970 -35.258  1.00  0.00    -0.353 OA
HETATM   20  C   UNL     1      -5.637  -4.346 -35.188  1.00  0.00     0.210 C 
ENDBRANCH  14  19
ENDBRANCH  10  11
ENDBRANCH   9  10
ENDBRANCH   7   9
ENDBRANCH   4   7
BRANCH   3  21
HETATM   21  S   UNL     1      -8.450   3.922 -33.581  1.00  0.00     0.265 S 
HETATM   22  O   UNL     1      -8.074   5.097 -34.344  1.00  0.00    -0.200 OA
HETATM   23  O   UNL     1      -8.295   2.596 -34.146  1.00  0.00    -0.200 OA
BRANCH  21  24
HETATM   24  N   UNL     1     -10.036   4.164 -33.064  1.00  0.00    -0.280 N 
HETATM   25  H   UNL     1     -10.113   4.142 -32.046  1.00  0.00     0.179 HD
BRANCH  24  26
HETATM   26  C   UNL     1     -11.093   3.563 -33.802  1.00  0.00     0.045 A 
HETATM   27  C   UNL     1     -11.889   2.582 -33.204  1.00  0.00     0.066 A 
HETATM   28  C   UNL     1     -12.898   1.966 -33.946  1.00  0.00     0.070 A 
HETATM   29  C   UNL     1     -13.101   2.343 -35.277  1.00  0.00     0.037 A 
HETATM   30  C   UNL     1     -12.303   3.320 -35.872  1.00  0.00     0.005 A 
HETATM   31  C   UNL     1     -11.290   3.925 -35.134  1.00  0.00     0.030 A 
BRANCH  28  32
HETATM   32  O   UNL     1     -13.740   0.987 -33.500  1.00  0.00    -0.356 OA
HETATM   33  C   UNL     1     -13.283  -0.357 -33.596  1.00  0.00     0.210 C 
ENDBRANCH  28  32
ENDBRANCH  24  26
ENDBRANCH  21  24
ENDBRANCH   3  21
BRANCH   1  34
HETATM   34  C   UNL     1      -4.524   5.936 -30.748  1.00  0.00     0.253 C 
HETATM   35  N   UNL     1      -3.219   5.424 -30.743  1.00  0.00    -0.345 N 
HETATM   36  C   UNL     1      -2.160   6.393 -30.434  1.00  0.00     0.154 C 
HETATM   37  C   UNL     1      -2.802   4.390 -31.703  1.00  0.00     0.154 C 
HETATM   38  C   UNL     1      -1.685   7.109 -31.709  1.00  0.00     0.254 C 
HETATM   39  N   UNL     1      -1.216   6.062 -32.730  1.00  0.00    -0.072 N 
HETATM   40  C   UNL     1      -0.711   6.701 -33.991  1.00  0.00     0.269 C 
HETATM   41  H   UNL     1      -0.424   5.563 -32.305  1.00  0.00     0.279 HD
HETATM   42  C   UNL     1      -2.305   5.030 -33.016  1.00  0.00     0.254 C 
HETATM   43  O   UNL     1      -4.726   7.147 -30.696  1.00  0.00    -0.267 OA
ENDBRANCH   1  34
TORSDOF 11
ENDMDL
