MODEL 1
REMARK VINA RESULT:      -7.3      0.000      0.000
REMARK  7 active torsions:
REMARK  status: ('A' for Active; 'I' for Inactive)
REMARK    1  A    between atoms: O_2  and  C_3 
REMARK    2  A    between atoms: C_6  and  C_7 
REMARK    3  A    between atoms: C_7  and  N_8 
REMARK    4  A    between atoms: N_8  and  C_11 
REMARK    5  A    between atoms: C_11  and  C_12 
REMARK    6  A    between atoms: C_11  and  C_20 
REMARK       I    between atoms: C_12  and  N_13 
REMARK    7  A    between atoms: N_13  and  C_14 
ROOT
HETATM    1  C   UNL     1      -5.413   1.414 -31.984  1.00  0.00     0.310 C 
ENDROOT
BRANCH   1   2
HETATM    2  N   UNL     1      -6.414   2.472 -31.562  1.00  0.00    -0.054 N 
HETATM    3  H   UNL     1      -6.786   2.865 -32.441  1.00  0.00     0.278 HD
HETATM    4  H   UNL     1      -5.959   3.238 -31.057  1.00  0.00     0.278 HD
BRANCH   2   5
HETATM    5  C   UNL     1      -7.605   2.006 -30.796  1.00  0.00     0.272 C 
BRANCH   5   6
HETATM    6  C   UNL     1      -8.757   1.741 -31.720  1.00  0.00    -0.033 A 
HETATM    7  C   UNL     1      -9.207   0.429 -31.935  1.00  0.00     0.011 A 
HETATM    8  C   UNL     1     -10.263   0.173 -32.816  1.00  0.00     0.037 A 
HETATM    9  C   UNL     1     -10.882   1.222 -33.493  1.00  0.00     0.068 A 
HETATM   10  C   UNL     1     -10.428   2.527 -33.289  1.00  0.00     0.037 A 
HETATM   11  C   UNL     1      -9.374   2.790 -32.413  1.00  0.00     0.011 A 
BRANCH   9  12
HETATM   12  O   UNL     1     -11.920   1.112 -34.373  1.00  0.00    -0.356 OA
HETATM   13  C   UNL     1     -13.093   0.449 -33.914  1.00  0.00     0.210 C 
ENDBRANCH   9  12
ENDBRANCH   5   6
ENDBRANCH   2   5
ENDBRANCH   1   2
BRANCH   1  14
HETATM   14  C   UNL     1      -4.026   2.062 -32.213  1.00  0.00     0.259 C 
HETATM   15  N   UNL     1      -4.010   3.434 -32.281  1.00  0.00    -0.304 N 
HETATM   16  H   UNL     1      -4.843   4.004 -32.196  1.00  0.00     0.171 HD
HETATM   17  O   UNL     1      -3.071   1.296 -32.361  1.00  0.00    -0.270 OA
BRANCH  15  18
HETATM   18  C   UNL     1      -2.835   4.128 -32.384  1.00  0.00     0.172 A 
HETATM   19  S   UNL     1      -2.607   4.911 -33.881  1.00  0.00    -0.062 SA
HETATM   20  C   UNL     1      -1.109   5.521 -33.306  1.00  0.00     0.072 A 
HETATM   21  C   UNL     1      -0.898   5.081 -32.015  1.00  0.00     0.126 A 
HETATM   22  N   UNL     1      -1.898   4.285 -31.488  1.00  0.00    -0.236 NA
ENDBRANCH  15  18
ENDBRANCH   1  14
BRANCH   1  23
HETATM   23  C   UNL     1      -5.935   0.538 -33.104  1.00  0.00    -0.019 A 
HETATM   24  C   UNL     1      -5.920  -0.860 -32.948  1.00  0.00     0.010 A 
HETATM   25  C   UNL     1      -6.426  -1.691 -33.948  1.00  0.00     0.001 A 
HETATM   26  C   UNL     1      -6.960  -1.142 -35.110  1.00  0.00     0.000 A 
HETATM   27  C   UNL     1      -6.991   0.241 -35.276  1.00  0.00     0.001 A 
HETATM   28  C   UNL     1      -6.487   1.077 -34.280  1.00  0.00     0.010 A 
ENDBRANCH   1  23
TORSDOF 7
ENDMDL
MODEL 2
REMARK VINA RESULT:      -7.1      1.533      2.129
REMARK  7 active torsions:
REMARK  status: ('A' for Active; 'I' for Inactive)
REMARK    1  A    between atoms: O_2  and  C_3 
REMARK    2  A    between atoms: C_6  and  C_7 
REMARK    3  A    between atoms: C_7  and  N_8 
REMARK    4  A    between atoms: N_8  and  C_11 
REMARK    5  A    between atoms: C_11  and  C_12 
REMARK    6  A    between atoms: C_11  and  C_20 
REMARK       I    between atoms: C_12  and  N_13 
REMARK    7  A    between atoms: N_13  and  C_14 
ROOT
HETATM    1  C   UNL     1      -5.724   0.015 -31.770  1.00  0.00     0.310 C 
ENDROOT
BRANCH   1   2
HETATM    2  N   UNL     1      -7.126   0.200 -31.222  1.00  0.00    -0.054 N 
HETATM    3  H   UNL     1      -7.051   0.022 -30.209  1.00  0.00     0.278 HD
HETATM    4  H   UNL     1      -7.772  -0.497 -31.604  1.00  0.00     0.278 HD
BRANCH   2   5
HETATM    5  C   UNL     1      -7.726   1.558 -31.348  1.00  0.00     0.272 C 
BRANCH   5   6
HETATM    6  C   UNL     1      -8.817   1.561 -32.379  1.00  0.00    -0.033 A 
HETATM    7  C   UNL     1      -8.935   2.626 -33.285  1.00  0.00     0.011 A 
HETATM    8  C   UNL     1      -9.967   2.647 -34.230  1.00  0.00     0.037 A 
HETATM    9  C   UNL     1     -10.893   1.607 -34.281  1.00  0.00     0.068 A 
HETATM   10  C   UNL     1     -10.784   0.552 -33.372  1.00  0.00     0.037 A 
HETATM   11  C   UNL     1      -9.758   0.524 -32.426  1.00  0.00     0.011 A 
BRANCH   9  12
HETATM   12  O   UNL     1     -11.940   1.502 -35.151  1.00  0.00    -0.356 OA
HETATM   13  C   UNL     1     -13.172   1.019 -34.628  1.00  0.00     0.210 C 
ENDBRANCH   9  12
ENDBRANCH   5   6
ENDBRANCH   2   5
ENDBRANCH   1   2
BRANCH   1  14
HETATM   14  C   UNL     1      -5.098   1.392 -32.093  1.00  0.00     0.259 C 
HETATM   15  N   UNL     1      -4.451   2.015 -31.052  1.00  0.00    -0.304 N 
HETATM   16  H   UNL     1      -4.383   1.616 -30.124  1.00  0.00     0.171 HD
HETATM   17  O   UNL     1      -5.273   1.832 -33.232  1.00  0.00    -0.270 OA
BRANCH  15  18
HETATM   18  C   UNL     1      -3.775   3.190 -31.236  1.00  0.00     0.172 A 
HETATM   19  S   UNL     1      -4.714   4.590 -30.981  1.00  0.00    -0.062 SA
HETATM   20  C   UNL     1      -3.333   5.550 -31.326  1.00  0.00     0.072 A 
HETATM   21  C   UNL     1      -2.261   4.728 -31.607  1.00  0.00     0.126 A 
HETATM   22  N   UNL     1      -2.520   3.371 -31.548  1.00  0.00    -0.236 NA
ENDBRANCH  15  18
ENDBRANCH   1  14
BRANCH   1  23
HETATM   23  C   UNL     1      -5.666  -1.022 -32.873  1.00  0.00    -0.019 A 
HETATM   24  C   UNL     1      -6.824  -1.298 -33.622  1.00  0.00     0.010 A 
HETATM   25  C   UNL     1      -6.791  -2.223 -34.665  1.00  0.00     0.001 A 
HETATM   26  C   UNL     1      -5.605  -2.878 -34.982  1.00  0.00     0.000 A 
HETATM   27  C   UNL     1      -4.446  -2.610 -34.257  1.00  0.00     0.001 A 
HETATM   28  C   UNL     1      -4.473  -1.686 -33.212  1.00  0.00     0.010 A 
ENDBRANCH   1  23
TORSDOF 7
ENDMDL
MODEL 3
REMARK VINA RESULT:      -7.0      2.901      6.889
REMARK  7 active torsions:
REMARK  status: ('A' for Active; 'I' for Inactive)
REMARK    1  A    between atoms: O_2  and  C_3 
REMARK    2  A    between atoms: C_6  and  C_7 
REMARK    3  A    between atoms: C_7  and  N_8 
REMARK    4  A    between atoms: N_8  and  C_11 
REMARK    5  A    between atoms: C_11  and  C_12 
REMARK    6  A    between atoms: C_11  and  C_20 
REMARK       I    between atoms: C_12  and  N_13 
REMARK    7  A    between atoms: N_13  and  C_14 
ROOT
HETATM    1  C   UNL     1      -6.801   0.782 -33.022  1.00  0.00     0.310 C 
ENDROOT
BRANCH   1   2
HETATM    2  N   UNL     1      -6.006   1.208 -31.803  1.00  0.00    -0.054 N 
HETATM    3  H   UNL     1      -5.026   0.963 -32.015  1.00  0.00     0.278 HD
HETATM    4  H   UNL     1      -6.278   0.673 -30.973  1.00  0.00     0.278 HD
BRANCH   2   5
HETATM    5  C   UNL     1      -5.995   2.662 -31.479  1.00  0.00     0.272 C 
BRANCH   5   6
HETATM    6  C   UNL     1      -5.065   3.401 -32.396  1.00  0.00    -0.033 A 
HETATM    7  C   UNL     1      -3.675   3.300 -32.229  1.00  0.00     0.011 A 
HETATM    8  C   UNL     1      -2.803   4.008 -33.064  1.00  0.00     0.037 A 
HETATM    9  C   UNL     1      -3.308   4.825 -34.074  1.00  0.00     0.068 A 
HETATM   10  C   UNL     1      -4.691   4.936 -34.233  1.00  0.00     0.037 A 
HETATM   11  C   UNL     1      -5.567   4.234 -33.404  1.00  0.00     0.011 A 
BRANCH   9  12
HETATM   12  O   UNL     1      -2.572   5.563 -34.956  1.00  0.00    -0.356 OA
HETATM   13  C   UNL     1      -1.160   5.565 -34.781  1.00  0.00     0.210 C 
ENDBRANCH   9  12
ENDBRANCH   5   6
ENDBRANCH   2   5
ENDBRANCH   1   2
BRANCH   1  14
HETATM   14  C   UNL     1      -8.316   0.912 -32.735  1.00  0.00     0.259 C 
HETATM   15  N   UNL     1      -9.038   1.645 -33.647  1.00  0.00    -0.304 N 
HETATM   16  H   UNL     1      -8.622   2.086 -34.458  1.00  0.00     0.171 HD
HETATM   17  O   UNL     1      -8.734   0.392 -31.697  1.00  0.00    -0.270 OA
BRANCH  15  18
HETATM   18  C   UNL     1     -10.399   1.752 -33.556  1.00  0.00     0.172 A 
HETATM   19  S   UNL     1     -10.952   3.268 -33.007  1.00  0.00    -0.062 SA
HETATM   20  C   UNL     1     -12.567   2.710 -33.168  1.00  0.00     0.072 A 
HETATM   21  C   UNL     1     -12.560   1.410 -33.630  1.00  0.00     0.126 A 
HETATM   22  N   UNL     1     -11.310   0.866 -33.857  1.00  0.00    -0.236 NA
ENDBRANCH  15  18
ENDBRANCH   1  14
BRANCH   1  23
HETATM   23  C   UNL     1      -6.337  -0.547 -33.581  1.00  0.00    -0.019 A 
HETATM   24  C   UNL     1      -4.986  -0.914 -33.452  1.00  0.00     0.010 A 
HETATM   25  C   UNL     1      -4.536  -2.147 -33.926  1.00  0.00     0.001 A 
HETATM   26  C   UNL     1      -5.428  -3.031 -34.527  1.00  0.00     0.000 A 
HETATM   27  C   UNL     1      -6.771  -2.687 -34.655  1.00  0.00     0.001 A 
HETATM   28  C   UNL     1      -7.226  -1.456 -34.182  1.00  0.00     0.010 A 
ENDBRANCH   1  23
TORSDOF 7
ENDMDL
MODEL 4
REMARK VINA RESULT:      -7.0      2.982      7.648
REMARK  7 active torsions:
REMARK  status: ('A' for Active; 'I' for Inactive)
REMARK    1  A    between atoms: O_2  and  C_3 
REMARK    2  A    between atoms: C_6  and  C_7 
REMARK    3  A    between atoms: C_7  and  N_8 
REMARK    4  A    between atoms: N_8  and  C_11 
REMARK    5  A    between atoms: C_11  and  C_12 
REMARK    6  A    between atoms: C_11  and  C_20 
REMARK       I    between atoms: C_12  and  N_13 
REMARK    7  A    between atoms: N_13  and  C_14 
ROOT
HETATM    1  C   UNL     1      -7.357   1.988 -34.054  1.00  0.00     0.310 C 
ENDROOT
BRANCH   1   2
HETATM    2  N   UNL     1      -6.585   3.040 -33.280  1.00  0.00    -0.054 N 
HETATM    3  H   UNL     1      -5.885   2.518 -32.729  1.00  0.00     0.278 HD
HETATM    4  H   UNL     1      -7.187   3.532 -32.614  1.00  0.00     0.278 HD
BRANCH   2   5
HETATM    5  C   UNL     1      -5.809   4.031 -34.078  1.00  0.00     0.272 C 
BRANCH   5   6
HETATM    6  C   UNL     1      -4.430   4.201 -33.512  1.00  0.00    -0.033 A 
HETATM    7  C   UNL     1      -4.066   3.552 -32.322  1.00  0.00     0.011 A 
HETATM    8  C   UNL     1      -2.790   3.728 -31.774  1.00  0.00     0.037 A 
HETATM    9  C   UNL     1      -1.864   4.555 -32.407  1.00  0.00     0.068 A 
HETATM   10  C   UNL     1      -2.228   5.211 -33.584  1.00  0.00     0.037 A 
HETATM   11  C   UNL     1      -3.499   5.041 -34.136  1.00  0.00     0.011 A 
BRANCH   9  12
HETATM   12  O   UNL     1      -0.591   4.811 -31.983  1.00  0.00    -0.356 OA
HETATM   13  C   UNL     1      -0.370   6.036 -31.295  1.00  0.00     0.210 C 
ENDBRANCH   9  12
ENDBRANCH   5   6
ENDBRANCH   2   5
ENDBRANCH   1   2
BRANCH   1  14
HETATM   14  C   UNL     1      -8.841   1.995 -33.616  1.00  0.00     0.259 C 
HETATM   15  N   UNL     1      -9.760   1.773 -34.613  1.00  0.00    -0.304 N 
HETATM   16  H   UNL     1      -9.504   1.620 -35.581  1.00  0.00     0.171 HD
HETATM   17  O   UNL     1      -9.072   2.243 -32.430  1.00  0.00    -0.270 OA
BRANCH  15  18
HETATM   18  C   UNL     1     -11.096   1.659 -34.337  1.00  0.00     0.172 A 
HETATM   19  S   UNL     1     -12.052   2.933 -34.944  1.00  0.00    -0.062 SA
HETATM   20  C   UNL     1     -13.445   2.161 -34.302  1.00  0.00     0.072 A 
HETATM   21  C   UNL     1     -13.073   0.990 -33.676  1.00  0.00     0.126 A 
HETATM   22  N   UNL     1     -11.721   0.704 -33.703  1.00  0.00    -0.236 NA
ENDBRANCH  15  18
ENDBRANCH   1  14
BRANCH   1  23
HETATM   23  C   UNL     1      -6.663   0.642 -34.050  1.00  0.00    -0.019 A 
HETATM   24  C   UNL     1      -5.617   0.408 -33.140  1.00  0.00     0.010 A 
HETATM   25  C   UNL     1      -4.982  -0.833 -33.090  1.00  0.00     0.001 A 
HETATM   26  C   UNL     1      -5.387  -1.859 -33.940  1.00  0.00     0.000 A 
HETATM   27  C   UNL     1      -6.428  -1.648 -34.840  1.00  0.00     0.001 A 
HETATM   28  C   UNL     1      -7.066  -0.408 -34.894  1.00  0.00     0.010 A 
ENDBRANCH   1  23
TORSDOF 7
ENDMDL
MODEL 5
REMARK VINA RESULT:      -6.9      2.907      6.336
REMARK  7 active torsions:
REMARK  status: ('A' for Active; 'I' for Inactive)
REMARK    1  A    between atoms: O_2  and  C_3 
REMARK    2  A    between atoms: C_6  and  C_7 
REMARK    3  A    between atoms: C_7  and  N_8 
REMARK    4  A    between atoms: N_8  and  C_11 
REMARK    5  A    between atoms: C_11  and  C_12 
REMARK    6  A    between atoms: C_11  and  C_20 
REMARK       I    between atoms: C_12  and  N_13 
REMARK    7  A    between atoms: N_13  and  C_14 
ROOT
HETATM    1  C   UNL     1      -5.744  -0.585 -33.207  1.00  0.00     0.310 C 
ENDROOT
BRANCH   1   2
HETATM    2  N   UNL     1      -5.562  -0.635 -31.702  1.00  0.00    -0.054 N 
HETATM    3  H   UNL     1      -5.562  -1.638 -31.459  1.00  0.00     0.278 HD
HETATM    4  H   UNL     1      -6.354  -0.206 -31.215  1.00  0.00     0.278 HD
BRANCH   2   5
HETATM    5  C   UNL     1      -4.287  -0.089 -31.158  1.00  0.00     0.272 C 
BRANCH   5   6
HETATM    6  C   UNL     1      -4.336   1.410 -31.101  1.00  0.00    -0.033 A 
HETATM    7  C   UNL     1      -5.338   2.059 -30.364  1.00  0.00     0.011 A 
HETATM    8  C   UNL     1      -5.406   3.456 -30.328  1.00  0.00     0.037 A 
HETATM    9  C   UNL     1      -4.475   4.221 -31.028  1.00  0.00     0.068 A 
HETATM   10  C   UNL     1      -3.484   3.577 -31.772  1.00  0.00     0.037 A 
HETATM   11  C   UNL     1      -3.411   2.184 -31.813  1.00  0.00     0.011 A 
BRANCH   9  12
HETATM   12  O   UNL     1      -4.425   5.585 -31.075  1.00  0.00    -0.356 OA
HETATM   13  C   UNL     1      -3.169   6.198 -30.808  1.00  0.00     0.210 C 
ENDBRANCH   9  12
ENDBRANCH   5   6
ENDBRANCH   2   5
ENDBRANCH   1   2
BRANCH   1  14
HETATM   14  C   UNL     1      -6.965   0.296 -33.562  1.00  0.00     0.259 C 
HETATM   15  N   UNL     1      -8.009   0.261 -32.668  1.00  0.00    -0.304 N 
HETATM   16  H   UNL     1      -8.001  -0.304 -31.827  1.00  0.00     0.171 HD
HETATM   17  O   UNL     1      -6.919   0.910 -34.631  1.00  0.00    -0.270 OA
BRANCH  15  18
HETATM   18  C   UNL     1      -9.104   1.068 -32.820  1.00  0.00     0.172 A 
HETATM   19  S   UNL     1      -8.968   2.591 -32.066  1.00  0.00    -0.062 SA
HETATM   20  C   UNL     1     -10.528   2.995 -32.656  1.00  0.00     0.072 A 
HETATM   21  C   UNL     1     -11.032   1.938 -33.385  1.00  0.00     0.126 A 
HETATM   22  N   UNL     1     -10.206   0.834 -33.481  1.00  0.00    -0.236 NA
ENDBRANCH  15  18
ENDBRANCH   1  14
BRANCH   1  23
HETATM   23  C   UNL     1      -5.703  -1.960 -33.841  1.00  0.00    -0.019 A 
HETATM   24  C   UNL     1      -4.493  -2.676 -33.857  1.00  0.00     0.010 A 
HETATM   25  C   UNL     1      -4.433  -3.958 -34.403  1.00  0.00     0.001 A 
HETATM   26  C   UNL     1      -5.578  -4.546 -34.932  1.00  0.00     0.000 A 
HETATM   27  C   UNL     1      -6.787  -3.855 -34.916  1.00  0.00     0.001 A 
HETATM   28  C   UNL     1      -6.853  -2.573 -34.371  1.00  0.00     0.010 A 
ENDBRANCH   1  23
TORSDOF 7
ENDMDL
MODEL 6
REMARK VINA RESULT:      -6.8      3.833      6.498
REMARK  7 active torsions:
REMARK  status: ('A' for Active; 'I' for Inactive)
REMARK    1  A    between atoms: O_2  and  C_3 
REMARK    2  A    between atoms: C_6  and  C_7 
REMARK    3  A    between atoms: C_7  and  N_8 
REMARK    4  A    between atoms: N_8  and  C_11 
REMARK    5  A    between atoms: C_11  and  C_12 
REMARK    6  A    between atoms: C_11  and  C_20 
REMARK       I    between atoms: C_12  and  N_13 
REMARK    7  A    between atoms: N_13  and  C_14 
ROOT
HETATM    1  C   UNL     1      -9.418   1.793 -34.062  1.00  0.00     0.310 C 
ENDROOT
BRANCH   1   2
HETATM    2  N   UNL     1      -8.533   0.602 -33.750  1.00  0.00    -0.054 N 
HETATM    3  H   UNL     1      -8.768  -0.109 -34.460  1.00  0.00     0.278 HD
HETATM    4  H   UNL     1      -8.756   0.200 -32.835  1.00  0.00     0.278 HD
BRANCH   2   5
HETATM    5  C   UNL     1      -7.061   0.808 -33.859  1.00  0.00     0.272 C 
BRANCH   5   6
HETATM    6  C   UNL     1      -6.353  -0.508 -33.996  1.00  0.00    -0.033 A 
HETATM    7  C   UNL     1      -5.011  -0.636 -33.605  1.00  0.00     0.011 A 
HETATM    8  C   UNL     1      -4.336  -1.853 -33.755  1.00  0.00     0.037 A 
HETATM    9  C   UNL     1      -4.993  -2.955 -34.299  1.00  0.00     0.068 A 
HETATM   10  C   UNL     1      -6.324  -2.827 -34.700  1.00  0.00     0.037 A 
HETATM   11  C   UNL     1      -7.003  -1.616 -34.554  1.00  0.00     0.011 A 
BRANCH   9  12
HETATM   12  O   UNL     1      -4.456  -4.195 -34.497  1.00  0.00    -0.356 OA
HETATM   13  C   UNL     1      -3.522  -4.660 -33.529  1.00  0.00     0.210 C 
ENDBRANCH   9  12
ENDBRANCH   5   6
ENDBRANCH   2   5
ENDBRANCH   1   2
BRANCH   1  14
HETATM   14  C   UNL     1      -9.047   2.982 -33.144  1.00  0.00     0.259 C 
HETATM   15  N   UNL     1      -9.281   2.798 -31.802  1.00  0.00    -0.304 N 
HETATM   16  H   UNL     1      -9.678   1.948 -31.420  1.00  0.00     0.171 HD
HETATM   17  O   UNL     1      -8.622   4.000 -33.694  1.00  0.00    -0.270 OA
BRANCH  15  18
HETATM   18  C   UNL     1      -8.907   3.736 -30.879  1.00  0.00     0.172 A 
HETATM   19  S   UNL     1      -7.385   3.454 -30.164  1.00  0.00    -0.062 SA
HETATM   20  C   UNL     1      -7.575   4.895 -29.251  1.00  0.00     0.072 A 
HETATM   21  C   UNL     1      -8.783   5.482 -29.563  1.00  0.00     0.126 A 
HETATM   22  N   UNL     1      -9.544   4.813 -30.505  1.00  0.00    -0.236 NA
ENDBRANCH  15  18
ENDBRANCH   1  14
BRANCH   1  23
HETATM   23  C   UNL     1     -10.886   1.424 -34.120  1.00  0.00    -0.019 A 
HETATM   24  C   UNL     1     -11.760   2.196 -34.906  1.00  0.00     0.010 A 
HETATM   25  C   UNL     1     -13.110   1.860 -35.006  1.00  0.00     0.001 A 
HETATM   26  C   UNL     1     -13.605   0.747 -34.331  1.00  0.00     0.000 A 
HETATM   27  C   UNL     1     -12.751  -0.033 -33.555  1.00  0.00     0.001 A 
HETATM   28  C   UNL     1     -11.400   0.298 -33.452  1.00  0.00     0.010 A 
ENDBRANCH   1  23
TORSDOF 7
ENDMDL
MODEL 7
REMARK VINA RESULT:      -6.7      2.196      3.199
REMARK  7 active torsions:
REMARK  status: ('A' for Active; 'I' for Inactive)
REMARK    1  A    between atoms: O_2  and  C_3 
REMARK    2  A    between atoms: C_6  and  C_7 
REMARK    3  A    between atoms: C_7  and  N_8 
REMARK    4  A    between atoms: N_8  and  C_11 
REMARK    5  A    between atoms: C_11  and  C_12 
REMARK    6  A    between atoms: C_11  and  C_20 
REMARK       I    between atoms: C_12  and  N_13 
REMARK    7  A    between atoms: N_13  and  C_14 
ROOT
HETATM    1  C   UNL     1      -7.177  -0.201 -33.139  1.00  0.00     0.310 C 
ENDROOT
BRANCH   1   2
HETATM    2  N   UNL     1      -8.521  -0.048 -33.825  1.00  0.00    -0.054 N 
HETATM    3  H   UNL     1      -8.762  -0.989 -34.171  1.00  0.00     0.278 HD
HETATM    4  H   UNL     1      -8.457   0.567 -34.641  1.00  0.00     0.278 HD
BRANCH   2   5
HETATM    5  C   UNL     1      -9.669   0.373 -32.973  1.00  0.00     0.272 C 
BRANCH   5   6
HETATM    6  C   UNL     1     -10.537   1.356 -33.703  1.00  0.00    -0.033 A 
HETATM    7  C   UNL     1     -11.902   1.093 -33.893  1.00  0.00     0.011 A 
HETATM    8  C   UNL     1     -12.710   1.994 -34.596  1.00  0.00     0.037 A 
HETATM    9  C   UNL     1     -12.165   3.165 -35.118  1.00  0.00     0.068 A 
HETATM   10  C   UNL     1     -10.805   3.422 -34.940  1.00  0.00     0.037 A 
HETATM   11  C   UNL     1      -9.992   2.529 -34.240  1.00  0.00     0.011 A 
BRANCH   9  12
HETATM   12  O   UNL     1     -12.839   4.125 -35.818  1.00  0.00    -0.356 OA
HETATM   13  C   UNL     1     -12.872   5.433 -35.258  1.00  0.00     0.210 C 
ENDBRANCH   9  12
ENDBRANCH   5   6
ENDBRANCH   2   5
ENDBRANCH   1   2
BRANCH   1  14
HETATM   14  C   UNL     1      -6.441   1.160 -33.111  1.00  0.00     0.259 C 
HETATM   15  N   UNL     1      -5.988   1.570 -31.879  1.00  0.00    -0.304 N 
HETATM   16  H   UNL     1      -6.123   1.034 -31.031  1.00  0.00     0.171 HD
HETATM   17  O   UNL     1      -6.368   1.777 -34.176  1.00  0.00    -0.270 OA
BRANCH  15  18
HETATM   18  C   UNL     1      -5.240   2.708 -31.740  1.00  0.00     0.172 A 
HETATM   19  S   UNL     1      -3.557   2.442 -31.689  1.00  0.00    -0.062 SA
HETATM   20  C   UNL     1      -3.319   4.137 -31.549  1.00  0.00     0.072 A 
HETATM   21  C   UNL     1      -4.542   4.775 -31.554  1.00  0.00     0.126 A 
HETATM   22  N   UNL     1      -5.644   3.948 -31.669  1.00  0.00    -0.236 NA
ENDBRANCH  15  18
ENDBRANCH   1  14
BRANCH   1  23
HETATM   23  C   UNL     1      -6.387  -1.378 -33.670  1.00  0.00    -0.019 A 
HETATM   24  C   UNL     1      -5.019  -1.487 -33.360  1.00  0.00     0.010 A 
HETATM   25  C   UNL     1      -4.274  -2.578 -33.807  1.00  0.00     0.001 A 
HETATM   26  C   UNL     1      -4.883  -3.578 -34.561  1.00  0.00     0.000 A 
HETATM   27  C   UNL     1      -6.238  -3.491 -34.869  1.00  0.00     0.001 A 
HETATM   28  C   UNL     1      -6.988  -2.402 -34.425  1.00  0.00     0.010 A 
ENDBRANCH   1  23
TORSDOF 7
ENDMDL
MODEL 8
REMARK VINA RESULT:      -6.7     15.564     17.283
REMARK  7 active torsions:
REMARK  status: ('A' for Active; 'I' for Inactive)
REMARK    1  A    between atoms: O_2  and  C_3 
REMARK    2  A    between atoms: C_6  and  C_7 
REMARK    3  A    between atoms: C_7  and  N_8 
REMARK    4  A    between atoms: N_8  and  C_11 
REMARK    5  A    between atoms: C_11  and  C_12 
REMARK    6  A    between atoms: C_11  and  C_20 
REMARK       I    between atoms: C_12  and  N_13 
REMARK    7  A    between atoms: N_13  and  C_14 
ROOT
HETATM    1  C   UNL     1      -3.578 -13.761 -39.352  1.00  0.00     0.310 C 
ENDROOT
BRANCH   1   2
HETATM    2  N   UNL     1      -3.969 -12.910 -40.545  1.00  0.00    -0.054 N 
HETATM    3  H   UNL     1      -3.081 -12.669 -41.013  1.00  0.00     0.278 HD
HETATM    4  H   UNL     1      -4.404 -12.031 -40.252  1.00  0.00     0.278 HD
BRANCH   2   5
HETATM    5  C   UNL     1      -4.810 -13.560 -41.590  1.00  0.00     0.272 C 
BRANCH   5   6
HETATM    6  C   UNL     1      -6.254 -13.559 -41.181  1.00  0.00    -0.033 A 
HETATM    7  C   UNL     1      -6.867 -12.374 -40.744  1.00  0.00     0.011 A 
HETATM    8  C   UNL     1      -8.205 -12.372 -40.336  1.00  0.00     0.037 A 
HETATM    9  C   UNL     1      -8.947 -13.551 -40.358  1.00  0.00     0.068 A 
HETATM   10  C   UNL     1      -8.335 -14.733 -40.781  1.00  0.00     0.037 A 
HETATM   11  C   UNL     1      -7.000 -14.744 -41.189  1.00  0.00     0.011 A 
BRANCH   9  12
HETATM   12  O   UNL     1     -10.255 -13.687 -39.992  1.00  0.00    -0.356 OA
HETATM   13  C   UNL     1     -11.129 -14.314 -40.924  1.00  0.00     0.210 C 
ENDBRANCH   9  12
ENDBRANCH   5   6
ENDBRANCH   2   5
ENDBRANCH   1   2
BRANCH   1  14
HETATM   14  C   UNL     1      -4.216 -13.188 -38.064  1.00  0.00     0.259 C 
HETATM   15  N   UNL     1      -4.870 -14.095 -37.264  1.00  0.00    -0.304 N 
HETATM   16  H   UNL     1      -4.946 -15.079 -37.490  1.00  0.00     0.171 HD
HETATM   17  O   UNL     1      -4.126 -11.970 -37.891  1.00  0.00    -0.270 OA
BRANCH  15  18
HETATM   18  C   UNL     1      -5.392 -13.729 -36.053  1.00  0.00     0.172 A 
HETATM   19  S   UNL     1      -7.096 -13.702 -35.999  1.00  0.00    -0.062 SA
HETATM   20  C   UNL     1      -7.011 -13.239 -34.348  1.00  0.00     0.072 A 
HETATM   21  C   UNL     1      -5.690 -13.144 -33.965  1.00  0.00     0.126 A 
HETATM   22  N   UNL     1      -4.762 -13.432 -34.948  1.00  0.00    -0.236 NA
ENDBRANCH  15  18
ENDBRANCH   1  14
BRANCH   1  23
HETATM   23  C   UNL     1      -2.089 -14.033 -39.297  1.00  0.00    -0.019 A 
HETATM   24  C   UNL     1      -1.457 -14.161 -38.047  1.00  0.00     0.010 A 
HETATM   25  C   UNL     1      -0.094 -14.445 -37.967  1.00  0.00     0.001 A 
HETATM   26  C   UNL     1       0.654 -14.614 -39.128  1.00  0.00     0.000 A 
HETATM   27  C   UNL     1       0.043 -14.501 -40.374  1.00  0.00     0.001 A 
HETATM   28  C   UNL     1      -1.321 -14.216 -40.461  1.00  0.00     0.010 A 
ENDBRANCH   1  23
TORSDOF 7
ENDMDL
MODEL 9
REMARK VINA RESULT:      -6.7      2.913      4.552
REMARK  7 active torsions:
REMARK  status: ('A' for Active; 'I' for Inactive)
REMARK    1  A    between atoms: O_2  and  C_3 
REMARK    2  A    between atoms: C_6  and  C_7 
REMARK    3  A    between atoms: C_7  and  N_8 
REMARK    4  A    between atoms: N_8  and  C_11 
REMARK    5  A    between atoms: C_11  and  C_12 
REMARK    6  A    between atoms: C_11  and  C_20 
REMARK       I    between atoms: C_12  and  N_13 
REMARK    7  A    between atoms: N_13  and  C_14 
ROOT
HETATM    1  C   UNL     1      -4.218   2.540 -32.350  1.00  0.00     0.310 C 
ENDROOT
BRANCH   1   2
HETATM    2  N   UNL     1      -3.820   1.496 -31.323  1.00  0.00    -0.054 N 
HETATM    3  H   UNL     1      -3.642   2.020 -30.453  1.00  0.00     0.278 HD
HETATM    4  H   UNL     1      -2.945   1.032 -31.582  1.00  0.00     0.278 HD
BRANCH   2   5
HETATM    5  C   UNL     1      -4.843   0.471 -30.972  1.00  0.00     0.272 C 
BRANCH   5   6
HETATM    6  C   UNL     1      -5.063  -0.470 -32.120  1.00  0.00    -0.033 A 
HETATM    7  C   UNL     1      -6.339  -0.612 -32.687  1.00  0.00     0.011 A 
HETATM    8  C   UNL     1      -6.557  -1.508 -33.740  1.00  0.00     0.037 A 
HETATM    9  C   UNL     1      -5.504  -2.273 -34.238  1.00  0.00     0.068 A 
HETATM   10  C   UNL     1      -4.236  -2.142 -33.667  1.00  0.00     0.037 A 
HETATM   11  C   UNL     1      -4.012  -1.251 -32.616  1.00  0.00     0.011 A 
BRANCH   9  12
HETATM   12  O   UNL     1      -5.578  -3.178 -35.258  1.00  0.00    -0.356 OA
HETATM   13  C   UNL     1      -6.544  -4.215 -35.137  1.00  0.00     0.210 C 
ENDBRANCH   9  12
ENDBRANCH   5   6
ENDBRANCH   2   5
ENDBRANCH   1   2
BRANCH   1  14
HETATM   14  C   UNL     1      -3.159   3.667 -32.394  1.00  0.00     0.259 C 
HETATM   15  N   UNL     1      -2.566   3.979 -31.194  1.00  0.00    -0.304 N 
HETATM   16  H   UNL     1      -2.798   3.517 -30.323  1.00  0.00     0.171 HD
HETATM   17  O   UNL     1      -2.975   4.217 -33.482  1.00  0.00    -0.270 OA
BRANCH  15  18
HETATM   18  C   UNL     1      -1.548   4.890 -31.119  1.00  0.00     0.172 A 
HETATM   19  S   UNL     1      -2.038   6.460 -30.668  1.00  0.00    -0.062 SA
HETATM   20  C   UNL     1      -0.400   6.968 -30.749  1.00  0.00     0.072 A 
HETATM   21  C   UNL     1       0.395   5.900 -31.113  1.00  0.00     0.126 A 
HETATM   22  N   UNL     1      -0.271   4.706 -31.319  1.00  0.00    -0.236 NA
ENDBRANCH  15  18
ENDBRANCH   1  14
BRANCH   1  23
HETATM   23  C   UNL     1      -5.659   2.980 -32.197  1.00  0.00    -0.019 A 
HETATM   24  C   UNL     1      -6.087   3.527 -30.974  1.00  0.00     0.010 A 
HETATM   25  C   UNL     1      -7.400   3.973 -30.816  1.00  0.00     0.001 A 
HETATM   26  C   UNL     1      -8.299   3.888 -31.875  1.00  0.00     0.000 A 
HETATM   27  C   UNL     1      -7.889   3.359 -33.096  1.00  0.00     0.001 A 
HETATM   28  C   UNL     1      -6.578   2.911 -33.260  1.00  0.00     0.010 A 
ENDBRANCH   1  23
TORSDOF 7
ENDMDL
MODEL 10
REMARK VINA RESULT:      -6.6      3.030      6.478
REMARK  7 active torsions:
REMARK  status: ('A' for Active; 'I' for Inactive)
REMARK    1  A    between atoms: O_2  and  C_3 
REMARK    2  A    between atoms: C_6  and  C_7 
REMARK    3  A    between atoms: C_7  and  N_8 
REMARK    4  A    between atoms: N_8  and  C_11 
REMARK    5  A    between atoms: C_11  and  C_12 
REMARK    6  A    between atoms: C_11  and  C_20 
REMARK       I    between atoms: C_12  and  N_13 
REMARK    7  A    between atoms: N_13  and  C_14 
ROOT
HETATM    1  C   UNL     1      -9.285   1.091 -33.387  1.00  0.00     0.310 C 
ENDROOT
BRANCH   1   2
HETATM    2  N   UNL     1      -8.775   2.520 -33.411  1.00  0.00    -0.054 N 
HETATM    3  H   UNL     1      -9.596   3.101 -33.639  1.00  0.00     0.278 HD
HETATM    4  H   UNL     1      -8.089   2.660 -34.159  1.00  0.00     0.278 HD
BRANCH   2   5
HETATM    5  C   UNL     1      -8.239   3.065 -32.133  1.00  0.00     0.272 C 
BRANCH   5   6
HETATM    6  C   UNL     1      -6.858   2.539 -31.872  1.00  0.00    -0.033 A 
HETATM    7  C   UNL     1      -6.612   1.707 -30.769  1.00  0.00     0.011 A 
HETATM    8  C   UNL     1      -5.322   1.234 -30.505  1.00  0.00     0.037 A 
HETATM    9  C   UNL     1      -4.262   1.587 -31.338  1.00  0.00     0.068 A 
HETATM   10  C   UNL     1      -4.502   2.425 -32.429  1.00  0.00     0.037 A 
HETATM   11  C   UNL     1      -5.786   2.901 -32.698  1.00  0.00     0.011 A 
BRANCH   9  12
HETATM   12  O   UNL     1      -2.961   1.196 -31.196  1.00  0.00    -0.356 OA
HETATM   13  C   UNL     1      -2.704  -0.204 -31.167  1.00  0.00     0.210 C 
ENDBRANCH   9  12
ENDBRANCH   5   6
ENDBRANCH   2   5
ENDBRANCH   1   2
BRANCH   1  14
HETATM   14  C   UNL     1      -8.291   0.164 -34.125  1.00  0.00     0.259 C 
HETATM   15  N   UNL     1      -7.619  -0.741 -33.338  1.00  0.00    -0.304 N 
HETATM   16  H   UNL     1      -7.748  -0.808 -32.336  1.00  0.00     0.171 HD
HETATM   17  O   UNL     1      -8.151   0.346 -35.337  1.00  0.00    -0.270 OA
BRANCH  15  18
HETATM   18  C   UNL     1      -6.786  -1.679 -33.884  1.00  0.00     0.172 A 
HETATM   19  S   UNL     1      -5.128  -1.298 -33.775  1.00  0.00    -0.062 SA
HETATM   20  C   UNL     1      -4.760  -2.783 -34.554  1.00  0.00     0.072 A 
HETATM   21  C   UNL     1      -5.930  -3.456 -34.835  1.00  0.00     0.126 A 
HETATM   22  N   UNL     1      -7.093  -2.819 -34.443  1.00  0.00    -0.236 NA
ENDBRANCH  15  18
ENDBRANCH   1  14
BRANCH   1  23
HETATM   23  C   UNL     1     -10.736   0.988 -33.809  1.00  0.00    -0.019 A 
HETATM   24  C   UNL     1     -11.540  -0.032 -33.269  1.00  0.00     0.010 A 
HETATM   25  C   UNL     1     -12.888  -0.131 -33.613  1.00  0.00     0.001 A 
HETATM   26  C   UNL     1     -13.455   0.789 -34.491  1.00  0.00     0.000 A 
HETATM   27  C   UNL     1     -12.676   1.810 -35.028  1.00  0.00     0.001 A 
HETATM   28  C   UNL     1     -11.326   1.914 -34.688  1.00  0.00     0.010 A 
ENDBRANCH   1  23
TORSDOF 7
ENDMDL
