MODEL 1
REMARK VINA RESULT:     -10.1      0.000      0.000
REMARK  5 active torsions:
REMARK  status: ('A' for Active; 'I' for Inactive)
REMARK    1  A    between atoms: C_5  and  C_6 
REMARK    2  A    between atoms: C_6  and  O_7 
REMARK    3  A    between atoms: O_7  and  C_8 
REMARK    4  A    between atoms: C_12  and  C_13 
REMARK    5  A    between atoms: C_30  and  O_31 
ROOT
HETATM    1  C   UNL     1      -5.257   2.171 -32.095  1.00  0.00     0.130 A 
HETATM    2  C   UNL     1      -5.788   3.450 -31.865  1.00  0.00     0.048 A 
HETATM    3 BR   UNL     1      -7.651   3.802 -31.987  1.00  0.00    -0.048 Br
HETATM    4  C   UNL     1      -4.944   4.517 -31.546  1.00  0.00     0.033 A 
HETATM    5  C   UNL     1      -3.554   4.334 -31.488  1.00  0.00    -0.012 A 
HETATM    6  C   UNL     1      -3.039   3.051 -31.746  1.00  0.00     0.050 A 
HETATM    7  C   UNL     1      -3.871   1.971 -32.071  1.00  0.00     0.104 A 
ENDROOT
BRANCH   5   8
HETATM    8  C   UNL     1      -2.614   5.454 -31.099  1.00  0.00     0.219 C 
HETATM    9  N   UNL     1      -1.371   4.918 -30.611  1.00  0.00    -0.332 N 
HETATM   10  C   UNL     1      -0.459   5.690 -29.942  1.00  0.00     0.256 C 
HETATM   11  H   UNL     1      -0.972   4.131 -31.102  1.00  0.00     0.165 HD
HETATM   12  O   UNL     1       0.724   5.385 -29.864  1.00  0.00    -0.267 OA
HETATM   13  C   UNL     1      -1.010   6.872 -29.300  1.00  0.00     0.073 A 
HETATM   14  C   UNL     1      -2.362   7.110 -29.390  1.00  0.00     0.088 A 
HETATM   15  C   UNL     1      -0.345   7.868 -28.517  1.00  0.00    -0.023 A 
HETATM   16  S   UNL     1      -2.844   8.488 -28.518  1.00  0.00    -0.074 SA
HETATM   17  N   UNL     1      -3.202   6.314 -30.085  1.00  0.00    -0.358 N 
HETATM   18  C   UNL     1      -1.246   8.784 -28.006  1.00  0.00     0.018 A 
HETATM   19  C   UNL     1      -0.895   9.926 -27.115  1.00  0.00     0.281 C 
HETATM   20  N   UNL     1       0.505   9.762 -26.530  1.00  0.00    -0.070 N 
HETATM   21  C   UNL     1       1.503   9.299 -27.590  1.00  0.00     0.239 C 
HETATM   22  H   UNL     1       0.801  10.700 -26.236  1.00  0.00     0.279 HD
HETATM   23  C   UNL     1       0.520   8.910 -25.293  1.00  0.00     0.270 C 
HETATM   24  C   UNL     1       1.119   7.938 -28.198  1.00  0.00     0.068 C 
HETATM   25  H   UNL     1      -4.132   6.658 -30.312  1.00  0.00     0.162 HD
ENDBRANCH   5   8
BRANCH   7  26
HETATM   26  O   UNL     1      -3.184   0.810 -32.288  1.00  0.00    -0.353 OA
HETATM   27  C   UNL     1      -2.944  -0.035 -31.171  1.00  0.00     0.210 C 
ENDBRANCH   7  26
BRANCH   1  28
HETATM   28  O   UNL     1      -6.128   1.112 -32.365  1.00  0.00    -0.271 OA
BRANCH  28  29
HETATM   29  C   UNL     1      -6.266   0.878 -33.723  1.00  0.00     0.298 C 
HETATM   30  O   UNL     1      -6.453   1.711 -34.597  1.00  0.00    -0.259 OA
BRANCH  29  31
HETATM   31  C   UNL     1      -6.084  -0.574 -33.994  1.00  0.00     0.040 A 
HETATM   32  C   UNL     1      -7.226  -1.346 -34.236  1.00  0.00     0.018 A 
HETATM   33  C   UNL     1      -7.108  -2.709 -34.519  1.00  0.00     0.007 A 
HETATM   34  C   UNL     1      -5.848  -3.316 -34.566  1.00  0.00    -0.062 A 
HETATM   35  C   UNL     1      -5.720  -4.785 -34.845  1.00  0.00     0.048 C 
HETATM   36  C   UNL     1      -4.709  -2.548 -34.296  1.00  0.00     0.007 A 
HETATM   37  C   UNL     1      -4.823  -1.183 -34.017  1.00  0.00     0.018 A 
ENDBRANCH  29  31
ENDBRANCH  28  29
ENDBRANCH   1  28
TORSDOF 5
ENDMDL
MODEL 2
REMARK VINA RESULT:      -9.8      1.200      2.106
REMARK  5 active torsions:
REMARK  status: ('A' for Active; 'I' for Inactive)
REMARK    1  A    between atoms: C_5  and  C_6 
REMARK    2  A    between atoms: C_6  and  O_7 
REMARK    3  A    between atoms: O_7  and  C_8 
REMARK    4  A    between atoms: C_12  and  C_13 
REMARK    5  A    between atoms: C_30  and  O_31 
ROOT
HETATM    1  C   UNL     1      -5.452   2.073 -32.136  1.00  0.00     0.130 A 
HETATM    2  C   UNL     1      -4.201   1.762 -31.582  1.00  0.00     0.048 A 
HETATM    3 BR   UNL     1      -3.663  -0.031 -31.257  1.00  0.00    -0.048 Br
HETATM    4  C   UNL     1      -3.308   2.780 -31.240  1.00  0.00     0.033 A 
HETATM    5  C   UNL     1      -3.664   4.127 -31.409  1.00  0.00    -0.012 A 
HETATM    6  C   UNL     1      -4.931   4.419 -31.943  1.00  0.00     0.050 A 
HETATM    7  C   UNL     1      -5.840   3.410 -32.288  1.00  0.00     0.104 A 
ENDROOT
BRANCH   5   8
HETATM    8  C   UNL     1      -2.705   5.254 -31.095  1.00  0.00     0.219 C 
HETATM    9  N   UNL     1      -1.447   4.728 -30.636  1.00  0.00    -0.332 N 
HETATM   10  C   UNL     1      -0.506   5.517 -30.029  1.00  0.00     0.256 C 
HETATM   11  H   UNL     1      -1.070   3.921 -31.113  1.00  0.00     0.165 HD
HETATM   12  O   UNL     1       0.678   5.208 -29.985  1.00  0.00    -0.267 OA
HETATM   13  C   UNL     1      -1.026   6.725 -29.409  1.00  0.00     0.073 A 
HETATM   14  C   UNL     1      -2.380   6.968 -29.457  1.00  0.00     0.088 A 
HETATM   15  C   UNL     1      -0.327   7.743 -28.687  1.00  0.00    -0.023 A 
HETATM   16  S   UNL     1      -2.821   8.379 -28.617  1.00  0.00    -0.074 SA
HETATM   17  N   UNL     1      -3.249   6.153 -30.091  1.00  0.00    -0.358 N 
HETATM   18  C   UNL     1      -1.204   8.682 -28.176  1.00  0.00     0.018 A 
HETATM   19  C   UNL     1      -0.813   9.852 -27.340  1.00  0.00     0.281 C 
HETATM   20  N   UNL     1       0.607   9.700 -26.802  1.00  0.00    -0.070 N 
HETATM   21  C   UNL     1       1.562   9.194 -27.882  1.00  0.00     0.239 C 
HETATM   22  H   UNL     1       0.918  10.646 -26.553  1.00  0.00     0.279 HD
HETATM   23  C   UNL     1       0.663   8.893 -25.537  1.00  0.00     0.270 C 
HETATM   24  C   UNL     1       1.148   7.815 -28.426  1.00  0.00     0.068 C 
HETATM   25  H   UNL     1      -4.185   6.495 -30.296  1.00  0.00     0.162 HD
ENDBRANCH   5   8
BRANCH   7  26
HETATM   26  O   UNL     1      -7.017   3.893 -32.786  1.00  0.00    -0.353 OA
HETATM   27  C   UNL     1      -6.957   5.035 -33.630  1.00  0.00     0.210 C 
ENDBRANCH   7  26
BRANCH   1  28
HETATM   28  O   UNL     1      -6.306   1.033 -32.513  1.00  0.00    -0.271 OA
BRANCH  28  29
HETATM   29  C   UNL     1      -6.281   0.801 -33.878  1.00  0.00     0.298 C 
HETATM   30  O   UNL     1      -6.337   1.637 -34.767  1.00  0.00    -0.259 OA
BRANCH  29  31
HETATM   31  C   UNL     1      -6.102  -0.655 -34.127  1.00  0.00     0.040 A 
HETATM   32  C   UNL     1      -4.801  -1.171 -34.113  1.00  0.00     0.018 A 
HETATM   33  C   UNL     1      -4.581  -2.535 -34.316  1.00  0.00     0.007 A 
HETATM   34  C   UNL     1      -5.658  -3.402 -34.535  1.00  0.00    -0.062 A 
HETATM   35  C   UNL     1      -5.423  -4.864 -34.778  1.00  0.00     0.048 C 
HETATM   36  C   UNL     1      -6.957  -2.880 -34.576  1.00  0.00     0.007 A 
HETATM   37  C   UNL     1      -7.181  -1.516 -34.368  1.00  0.00     0.018 A 
ENDBRANCH  29  31
ENDBRANCH  28  29
ENDBRANCH   1  28
TORSDOF 5
ENDMDL
MODEL 3
REMARK VINA RESULT:      -9.3      1.272      1.712
REMARK  5 active torsions:
REMARK  status: ('A' for Active; 'I' for Inactive)
REMARK    1  A    between atoms: C_5  and  C_6 
REMARK    2  A    between atoms: C_6  and  O_7 
REMARK    3  A    between atoms: O_7  and  C_8 
REMARK    4  A    between atoms: C_12  and  C_13 
REMARK    5  A    between atoms: C_30  and  O_31 
ROOT
HETATM    1  C   UNL     1      -5.786   1.839 -31.887  1.00  0.00     0.130 A 
HETATM    2  C   UNL     1      -6.707   2.855 -31.587  1.00  0.00     0.048 A 
HETATM    3 BR   UNL     1      -8.582   2.591 -31.742  1.00  0.00    -0.048 Br
HETATM    4  C   UNL     1      -6.260   4.112 -31.171  1.00  0.00     0.033 A 
HETATM    5  C   UNL     1      -4.886   4.387 -31.083  1.00  0.00    -0.012 A 
HETATM    6  C   UNL     1      -3.979   3.363 -31.411  1.00  0.00     0.050 A 
HETATM    7  C   UNL     1      -4.412   2.099 -31.834  1.00  0.00     0.104 A 
ENDROOT
BRANCH   5   8
HETATM    8  C   UNL     1      -4.367   5.719 -30.590  1.00  0.00     0.219 C 
HETATM    9  N   UNL     1      -2.941   5.796 -30.764  1.00  0.00    -0.332 N 
HETATM   10  C   UNL     1      -2.185   6.765 -30.160  1.00  0.00     0.256 C 
HETATM   11  H   UNL     1      -2.551   5.439 -31.625  1.00  0.00     0.165 HD
HETATM   12  O   UNL     1      -1.081   7.090 -30.578  1.00  0.00    -0.267 OA
HETATM   13  C   UNL     1      -2.774   7.346 -28.965  1.00  0.00     0.073 A 
HETATM   14  C   UNL     1      -3.995   6.882 -28.531  1.00  0.00     0.088 A 
HETATM   15  C   UNL     1      -2.248   8.354 -28.097  1.00  0.00    -0.023 A 
HETATM   16  S   UNL     1      -4.496   7.614 -27.081  1.00  0.00    -0.074 SA
HETATM   17  N   UNL     1      -4.695   5.934 -29.190  1.00  0.00    -0.358 N 
HETATM   18  C   UNL     1      -3.082   8.562 -27.013  1.00  0.00     0.018 A 
HETATM   19  C   UNL     1      -2.814   9.513 -25.897  1.00  0.00     0.281 C 
HETATM   20  N   UNL     1      -1.356   9.960 -25.888  1.00  0.00    -0.070 N 
HETATM   21  C   UNL     1      -0.865  10.295 -27.295  1.00  0.00     0.239 C 
HETATM   22  H   UNL     1      -1.331  10.836 -25.352  1.00  0.00     0.279 HD
HETATM   23  C   UNL     1      -0.459   8.998 -25.162  1.00  0.00     0.270 C 
HETATM   24  C   UNL     1      -0.948   9.086 -28.245  1.00  0.00     0.068 C 
HETATM   25  H   UNL     1      -5.677   5.801 -28.963  1.00  0.00     0.162 HD
ENDBRANCH   5   8
BRANCH   7  26
HETATM   26  O   UNL     1      -3.382   1.243 -32.108  1.00  0.00    -0.353 OA
HETATM   27  C   UNL     1      -3.044   0.278 -31.121  1.00  0.00     0.210 C 
ENDBRANCH   7  26
BRANCH   1  28
HETATM   28  O   UNL     1      -6.262   0.578 -32.255  1.00  0.00    -0.271 OA
BRANCH  28  29
HETATM   29  C   UNL     1      -6.315   0.415 -33.629  1.00  0.00     0.298 C 
HETATM   30  O   UNL     1      -6.485   1.289 -34.465  1.00  0.00    -0.259 OA
BRANCH  29  31
HETATM   31  C   UNL     1      -6.060  -1.011 -33.966  1.00  0.00     0.040 A 
HETATM   32  C   UNL     1      -4.761  -1.506 -33.798  1.00  0.00     0.018 A 
HETATM   33  C   UNL     1      -4.475  -2.844 -34.077  1.00  0.00     0.007 A 
HETATM   34  C   UNL     1      -5.482  -3.705 -34.526  1.00  0.00    -0.062 A 
HETATM   35  C   UNL     1      -5.172  -5.137 -34.851  1.00  0.00     0.048 C 
HETATM   36  C   UNL     1      -6.775  -3.202 -34.720  1.00  0.00     0.007 A 
HETATM   37  C   UNL     1      -7.066  -1.864 -34.438  1.00  0.00     0.018 A 
ENDBRANCH  29  31
ENDBRANCH  28  29
ENDBRANCH   1  28
TORSDOF 5
ENDMDL
MODEL 4
REMARK VINA RESULT:      -9.0      1.758      2.734
REMARK  5 active torsions:
REMARK  status: ('A' for Active; 'I' for Inactive)
REMARK    1  A    between atoms: C_5  and  C_6 
REMARK    2  A    between atoms: C_6  and  O_7 
REMARK    3  A    between atoms: O_7  and  C_8 
REMARK    4  A    between atoms: C_12  and  C_13 
REMARK    5  A    between atoms: C_30  and  O_31 
ROOT
HETATM    1  C   UNL     1      -4.001   3.991 -32.180  1.00  0.00     0.130 A 
HETATM    2  C   UNL     1      -4.582   4.535 -31.023  1.00  0.00     0.048 A 
HETATM    3 BR   UNL     1      -6.147   3.794 -30.241  1.00  0.00    -0.048 Br
HETATM    4  C   UNL     1      -4.021   5.660 -30.414  1.00  0.00     0.033 A 
HETATM    5  C   UNL     1      -2.893   6.284 -30.970  1.00  0.00    -0.012 A 
HETATM    6  C   UNL     1      -2.340   5.738 -32.142  1.00  0.00     0.050 A 
HETATM    7  C   UNL     1      -2.893   4.612 -32.767  1.00  0.00     0.104 A 
ENDROOT
BRANCH   5   8
HETATM    8  C   UNL     1      -2.231   7.473 -30.311  1.00  0.00     0.219 C 
HETATM    9  N   UNL     1      -0.909   7.125 -29.861  1.00  0.00    -0.332 N 
HETATM   10  C   UNL     1      -0.202   7.919 -28.999  1.00  0.00     0.256 C 
HETATM   11  H   UNL     1      -0.337   6.557 -30.471  1.00  0.00     0.165 HD
HETATM   12  O   UNL     1       1.019   7.863 -28.908  1.00  0.00    -0.267 OA
HETATM   13  C   UNL     1      -1.010   8.801 -28.174  1.00  0.00     0.073 A 
HETATM   14  C   UNL     1      -2.380   8.761 -28.299  1.00  0.00     0.088 A 
HETATM   15  C   UNL     1      -0.594   9.733 -27.171  1.00  0.00    -0.023 A 
HETATM   16  S   UNL     1      -3.168   9.797 -27.206  1.00  0.00    -0.074 SA
HETATM   17  N   UNL     1      -3.011   7.964 -29.187  1.00  0.00    -0.358 N 
HETATM   18  C   UNL     1      -1.685  10.314 -26.548  1.00  0.00     0.018 A 
HETATM   19  C   UNL     1      -1.609  11.297 -25.432  1.00  0.00     0.281 C 
HETATM   20  N   UNL     1      -0.218  11.318 -24.804  1.00  0.00    -0.070 N 
HETATM   21  C   UNL     1       0.876  11.303 -25.869  1.00  0.00     0.239 C 
HETATM   22  H   UNL     1      -0.141  12.217 -24.314  1.00  0.00     0.279 HD
HETATM   23  C   UNL     1      -0.039  10.254 -23.758  1.00  0.00     0.270 C 
HETATM   24  C   UNL     1       0.812  10.045 -26.755  1.00  0.00     0.068 C 
HETATM   25  H   UNL     1      -3.989   8.142 -29.401  1.00  0.00     0.162 HD
ENDBRANCH   5   8
BRANCH   7  26
HETATM   26  O   UNL     1      -2.216   4.237 -33.894  1.00  0.00    -0.353 OA
HETATM   27  C   UNL     1      -1.565   5.254 -34.643  1.00  0.00     0.210 C 
ENDBRANCH   7  26
BRANCH   1  28
HETATM   28  O   UNL     1      -4.555   2.837 -32.740  1.00  0.00    -0.271 OA
BRANCH  28  29
HETATM   29  C   UNL     1      -3.967   1.681 -32.253  1.00  0.00     0.298 C 
HETATM   30  O   UNL     1      -3.097   1.603 -31.400  1.00  0.00    -0.259 OA
BRANCH  29  31
HETATM   31  C   UNL     1      -4.609   0.498 -32.887  1.00  0.00     0.040 A 
HETATM   32  C   UNL     1      -3.799  -0.597 -33.209  1.00  0.00     0.018 A 
HETATM   33  C   UNL     1      -4.356  -1.743 -33.782  1.00  0.00     0.007 A 
HETATM   34  C   UNL     1      -5.730  -1.809 -34.040  1.00  0.00    -0.062 A 
HETATM   35  C   UNL     1      -6.328  -3.028 -34.680  1.00  0.00     0.048 C 
HETATM   36  C   UNL     1      -6.535  -0.702 -33.743  1.00  0.00     0.007 A 
HETATM   37  C   UNL     1      -5.981   0.444 -33.165  1.00  0.00     0.018 A 
ENDBRANCH  29  31
ENDBRANCH  28  29
ENDBRANCH   1  28
TORSDOF 5
ENDMDL
MODEL 5
REMARK VINA RESULT:      -8.9      2.524      3.557
REMARK  5 active torsions:
REMARK  status: ('A' for Active; 'I' for Inactive)
REMARK    1  A    between atoms: C_5  and  C_6 
REMARK    2  A    between atoms: C_6  and  O_7 
REMARK    3  A    between atoms: O_7  and  C_8 
REMARK    4  A    between atoms: C_12  and  C_13 
REMARK    5  A    between atoms: C_30  and  O_31 
ROOT
HETATM    1  C   UNL     1      -5.450   2.698 -32.750  1.00  0.00     0.130 A 
HETATM    2  C   UNL     1      -4.184   2.233 -32.361  1.00  0.00     0.048 A 
HETATM    3 BR   UNL     1      -3.728   0.390 -32.419  1.00  0.00    -0.048 Br
HETATM    4  C   UNL     1      -3.214   3.128 -31.903  1.00  0.00     0.033 A 
HETATM    5  C   UNL     1      -3.504   4.497 -31.790  1.00  0.00    -0.012 A 
HETATM    6  C   UNL     1      -4.786   4.940 -32.162  1.00  0.00     0.050 A 
HETATM    7  C   UNL     1      -5.771   4.054 -32.619  1.00  0.00     0.104 A 
ENDROOT
BRANCH   5   8
HETATM    8  C   UNL     1      -2.464   5.501 -31.345  1.00  0.00     0.219 C 
HETATM    9  N   UNL     1      -1.396   4.839 -30.644  1.00  0.00    -0.332 N 
HETATM   10  C   UNL     1      -0.475   5.530 -29.903  1.00  0.00     0.256 C 
HETATM   11  H   UNL     1      -1.061   3.962 -31.015  1.00  0.00     0.165 HD
HETATM   12  O   UNL     1       0.626   5.066 -29.630  1.00  0.00    -0.267 OA
HETATM   13  C   UNL     1      -0.917   6.831 -29.432  1.00  0.00     0.073 A 
HETATM   14  C   UNL     1      -2.192   7.252 -29.736  1.00  0.00     0.088 A 
HETATM   15  C   UNL     1      -0.218   7.788 -28.630  1.00  0.00    -0.023 A 
HETATM   16  S   UNL     1      -2.568   8.757 -29.041  1.00  0.00    -0.074 SA
HETATM   17  N   UNL     1      -3.043   6.525 -30.491  1.00  0.00    -0.358 N 
HETATM   18  C   UNL     1      -1.028   8.866 -28.321  1.00  0.00     0.018 A 
HETATM   19  C   UNL     1      -0.627  10.021 -27.470  1.00  0.00     0.281 C 
HETATM   20  N   UNL     1       0.638   9.712 -26.675  1.00  0.00    -0.070 N 
HETATM   21  C   UNL     1       1.686   9.017 -27.542  1.00  0.00     0.239 C 
HETATM   22  H   UNL     1       1.033  10.621 -26.406  1.00  0.00     0.279 HD
HETATM   23  C   UNL     1       0.353   8.982 -25.393  1.00  0.00     0.270 C 
HETATM   24  C   UNL     1       1.182   7.676 -28.105  1.00  0.00     0.068 C 
HETATM   25  H   UNL     1      -3.869   6.976 -30.875  1.00  0.00     0.162 HD
ENDBRANCH   5   8
BRANCH   7  26
HETATM   26  O   UNL     1      -6.950   4.674 -32.928  1.00  0.00    -0.353 OA
HETATM   27  C   UNL     1      -7.570   5.454 -31.915  1.00  0.00     0.210 C 
ENDBRANCH   7  26
BRANCH   1  28
HETATM   28  O   UNL     1      -6.384   1.786 -33.249  1.00  0.00    -0.271 OA
BRANCH  28  29
HETATM   29  C   UNL     1      -7.338   1.440 -32.306  1.00  0.00     0.298 C 
HETATM   30  O   UNL     1      -7.153   1.235 -31.117  1.00  0.00    -0.259 OA
BRANCH  29  31
HETATM   31  C   UNL     1      -8.680   1.416 -32.948  1.00  0.00     0.040 A 
HETATM   32  C   UNL     1      -8.989   2.429 -33.864  1.00  0.00     0.018 A 
HETATM   33  C   UNL     1     -10.226   2.438 -34.513  1.00  0.00     0.007 A 
HETATM   34  C   UNL     1     -11.168   1.435 -34.257  1.00  0.00    -0.062 A 
HETATM   35  C   UNL     1     -12.508   1.456 -34.934  1.00  0.00     0.048 C 
HETATM   36  C   UNL     1     -10.867   0.439 -33.320  1.00  0.00     0.007 A 
HETATM   37  C   UNL     1      -9.629   0.424 -32.672  1.00  0.00     0.018 A 
ENDBRANCH  29  31
ENDBRANCH  28  29
ENDBRANCH   1  28
TORSDOF 5
ENDMDL
MODEL 6
REMARK VINA RESULT:      -8.9      2.182      2.865
REMARK  5 active torsions:
REMARK  status: ('A' for Active; 'I' for Inactive)
REMARK    1  A    between atoms: C_5  and  C_6 
REMARK    2  A    between atoms: C_6  and  O_7 
REMARK    3  A    between atoms: O_7  and  C_8 
REMARK    4  A    between atoms: C_12  and  C_13 
REMARK    5  A    between atoms: C_30  and  O_31 
ROOT
HETATM    1  C   UNL     1      -5.167   3.087 -32.798  1.00  0.00     0.130 A 
HETATM    2  C   UNL     1      -5.428   4.465 -32.752  1.00  0.00     0.048 A 
HETATM    3 BR   UNL     1      -7.088   5.193 -33.322  1.00  0.00    -0.048 Br
HETATM    4  C   UNL     1      -4.454   5.353 -32.288  1.00  0.00     0.033 A 
HETATM    5  C   UNL     1      -3.190   4.884 -31.898  1.00  0.00    -0.012 A 
HETATM    6  C   UNL     1      -2.939   3.503 -31.975  1.00  0.00     0.050 A 
HETATM    7  C   UNL     1      -3.904   2.599 -32.441  1.00  0.00     0.104 A 
ENDROOT
BRANCH   5   8
HETATM    8  C   UNL     1      -2.129   5.809 -31.346  1.00  0.00     0.219 C 
HETATM    9  N   UNL     1      -1.216   5.080 -30.507  1.00  0.00    -0.332 N 
HETATM   10  C   UNL     1      -0.334   5.711 -29.670  1.00  0.00     0.256 C 
HETATM   11  H   UNL     1      -0.915   4.167 -30.818  1.00  0.00     0.165 HD
HETATM   12  O   UNL     1       0.681   5.165 -29.255  1.00  0.00    -0.267 OA
HETATM   13  C   UNL     1      -0.716   7.058 -29.280  1.00  0.00     0.073 A 
HETATM   14  C   UNL     1      -1.902   7.576 -29.747  1.00  0.00     0.088 A 
HETATM   15  C   UNL     1      -0.039   7.974 -28.415  1.00  0.00    -0.023 A 
HETATM   16  S   UNL     1      -2.228   9.126 -29.130  1.00  0.00    -0.074 SA
HETATM   17  N   UNL     1      -2.716   6.902 -30.587  1.00  0.00    -0.358 N 
HETATM   18  C   UNL     1      -0.783   9.125 -28.228  1.00  0.00     0.018 A 
HETATM   19  C   UNL     1      -0.390  10.266 -27.354  1.00  0.00     0.281 C 
HETATM   20  N   UNL     1       0.738   9.874 -26.404  1.00  0.00    -0.070 N 
HETATM   21  C   UNL     1       1.819   9.069 -27.122  1.00  0.00     0.239 C 
HETATM   22  H   UNL     1       1.175  10.754 -26.104  1.00  0.00     0.279 HD
HETATM   23  C   UNL     1       0.237   9.208 -25.154  1.00  0.00     0.270 C 
HETATM   24  C   UNL     1       1.273   7.760 -27.719  1.00  0.00     0.068 C 
HETATM   25  H   UNL     1      -3.446   7.410 -31.079  1.00  0.00     0.162 HD
ENDBRANCH   5   8
BRANCH   7  26
HETATM   26  O   UNL     1      -3.470   1.303 -32.443  1.00  0.00    -0.353 OA
HETATM   27  C   UNL     1      -3.308   0.659 -31.187  1.00  0.00     0.210 C 
ENDBRANCH   7  26
BRANCH   1  28
HETATM   28  O   UNL     1      -6.176   2.218 -33.221  1.00  0.00    -0.271 OA
BRANCH  28  29
HETATM   29  C   UNL     1      -6.962   1.773 -32.171  1.00  0.00     0.298 C 
HETATM   30  O   UNL     1      -6.629   1.662 -31.001  1.00  0.00    -0.259 OA
BRANCH  29  31
HETATM   31  C   UNL     1      -8.338   1.501 -32.666  1.00  0.00     0.040 A 
HETATM   32  C   UNL     1      -8.891   0.240 -32.414  1.00  0.00     0.018 A 
HETATM   33  C   UNL     1     -10.189  -0.058 -32.836  1.00  0.00     0.007 A 
HETATM   34  C   UNL     1     -10.951   0.901 -33.514  1.00  0.00    -0.062 A 
HETATM   35  C   UNL     1     -12.336   0.575 -33.991  1.00  0.00     0.048 C 
HETATM   36  C   UNL     1     -10.386   2.152 -33.789  1.00  0.00     0.007 A 
HETATM   37  C   UNL     1      -9.089   2.455 -33.364  1.00  0.00     0.018 A 
ENDBRANCH  29  31
ENDBRANCH  28  29
ENDBRANCH   1  28
TORSDOF 5
ENDMDL
MODEL 7
REMARK VINA RESULT:      -8.9      3.604     10.881
REMARK  5 active torsions:
REMARK  status: ('A' for Active; 'I' for Inactive)
REMARK    1  A    between atoms: C_5  and  C_6 
REMARK    2  A    between atoms: C_6  and  O_7 
REMARK    3  A    between atoms: O_7  and  C_8 
REMARK    4  A    between atoms: C_12  and  C_13 
REMARK    5  A    between atoms: C_30  and  O_31 
ROOT
HETATM    1  C   UNL     1      -1.127   7.178 -30.530  1.00  0.00     0.130 A 
HETATM    2  C   UNL     1      -0.817   5.809 -30.522  1.00  0.00     0.048 A 
HETATM    3 BR   UNL     1       0.636   5.113 -29.515  1.00  0.00    -0.048 Br
HETATM    4  C   UNL     1      -1.574   4.909 -31.277  1.00  0.00     0.033 A 
HETATM    5  C   UNL     1      -2.631   5.365 -32.081  1.00  0.00    -0.012 A 
HETATM    6  C   UNL     1      -2.911   6.743 -32.094  1.00  0.00     0.050 A 
HETATM    7  C   UNL     1      -2.158   7.659 -31.346  1.00  0.00     0.104 A 
ENDROOT
BRANCH   5   8
HETATM    8  C   UNL     1      -3.502   4.416 -32.872  1.00  0.00     0.219 C 
HETATM    9  N   UNL     1      -4.774   5.025 -33.159  1.00  0.00    -0.332 N 
HETATM   10  C   UNL     1      -5.841   4.298 -33.617  1.00  0.00     0.256 C 
HETATM   11  H   UNL     1      -4.780   5.996 -33.436  1.00  0.00     0.165 HD
HETATM   12  O   UNL     1      -6.773   4.814 -34.221  1.00  0.00    -0.267 OA
HETATM   13  C   UNL     1      -5.802   2.882 -33.295  1.00  0.00     0.073 A 
HETATM   14  C   UNL     1      -4.744   2.394 -32.562  1.00  0.00     0.088 A 
HETATM   15  C   UNL     1      -6.753   1.859 -33.603  1.00  0.00    -0.023 A 
HETATM   16  S   UNL     1      -4.900   0.738 -32.211  1.00  0.00    -0.074 SA
HETATM   17  N   UNL     1      -3.713   3.167 -32.160  1.00  0.00    -0.358 N 
HETATM   18  C   UNL     1      -6.388   0.651 -33.035  1.00  0.00     0.018 A 
HETATM   19  C   UNL     1      -7.176  -0.610 -33.124  1.00  0.00     0.281 C 
HETATM   20  N   UNL     1      -8.603  -0.340 -33.594  1.00  0.00    -0.070 N 
HETATM   21  C   UNL     1      -8.631   0.648 -34.757  1.00  0.00     0.239 C 
HETATM   22  H   UNL     1      -8.955  -1.234 -33.957  1.00  0.00     0.279 HD
HETATM   23  C   UNL     1      -9.520   0.045 -32.468  1.00  0.00     0.270 C 
HETATM   24  C   UNL     1      -8.028   2.013 -34.378  1.00  0.00     0.068 C 
HETATM   25  H   UNL     1      -2.860   2.719 -31.833  1.00  0.00     0.162 HD
ENDBRANCH   5   8
BRANCH   7  26
HETATM   26  O   UNL     1      -2.582   8.950 -31.493  1.00  0.00    -0.353 OA
HETATM   27  C   UNL     1      -3.877   9.279 -31.008  1.00  0.00     0.210 C 
ENDBRANCH   7  26
BRANCH   1  28
HETATM   28  O   UNL     1      -0.383   8.048 -29.729  1.00  0.00    -0.271 OA
BRANCH  28  29
HETATM   29  C   UNL     1      -0.975   8.263 -28.495  1.00  0.00     0.298 C 
HETATM   30  O   UNL     1      -2.161   8.158 -28.222  1.00  0.00    -0.259 OA
BRANCH  29  31
HETATM   31  C   UNL     1       0.077   8.588 -27.494  1.00  0.00     0.040 A 
HETATM   32  C   UNL     1       0.912   7.553 -27.058  1.00  0.00     0.018 A 
HETATM   33  C   UNL     1       1.931   7.809 -26.137  1.00  0.00     0.007 A 
HETATM   34  C   UNL     1       2.129   9.104 -25.643  1.00  0.00    -0.062 A 
HETATM   35  C   UNL     1       3.207   9.378 -24.635  1.00  0.00     0.048 C 
HETATM   36  C   UNL     1       1.276  10.133 -26.060  1.00  0.00     0.007 A 
HETATM   37  C   UNL     1       0.258   9.880 -26.985  1.00  0.00     0.018 A 
ENDBRANCH  29  31
ENDBRANCH  28  29
ENDBRANCH   1  28
TORSDOF 5
ENDMDL
MODEL 8
REMARK VINA RESULT:      -8.8      4.062     10.435
REMARK  5 active torsions:
REMARK  status: ('A' for Active; 'I' for Inactive)
REMARK    1  A    between atoms: C_5  and  C_6 
REMARK    2  A    between atoms: C_6  and  O_7 
REMARK    3  A    between atoms: O_7  and  C_8 
REMARK    4  A    between atoms: C_12  and  C_13 
REMARK    5  A    between atoms: C_30  and  O_31 
ROOT
HETATM    1  C   UNL     1      -2.412   5.927 -31.643  1.00  0.00     0.130 A 
HETATM    2  C   UNL     1      -2.809   5.215 -32.786  1.00  0.00     0.048 A 
HETATM    3 BR   UNL     1      -1.759   5.187 -34.369  1.00  0.00    -0.048 Br
HETATM    4  C   UNL     1      -4.012   4.505 -32.792  1.00  0.00     0.033 A 
HETATM    5  C   UNL     1      -4.858   4.524 -31.672  1.00  0.00    -0.012 A 
HETATM    6  C   UNL     1      -4.454   5.263 -30.546  1.00  0.00     0.050 A 
HETATM    7  C   UNL     1      -3.252   5.984 -30.525  1.00  0.00     0.104 A 
ENDROOT
BRANCH   5   8
HETATM    8  C   UNL     1      -6.143   3.729 -31.625  1.00  0.00     0.219 C 
HETATM    9  N   UNL     1      -6.086   2.629 -32.551  1.00  0.00    -0.332 N 
HETATM   10  C   UNL     1      -7.202   1.921 -32.909  1.00  0.00     0.256 C 
HETATM   11  H   UNL     1      -5.223   2.108 -32.612  1.00  0.00     0.165 HD
HETATM   12  O   UNL     1      -7.138   0.785 -33.363  1.00  0.00    -0.267 OA
HETATM   13  C   UNL     1      -8.458   2.633 -32.749  1.00  0.00     0.073 A 
HETATM   14  C   UNL     1      -8.435   3.928 -32.285  1.00  0.00     0.088 A 
HETATM   15  C   UNL     1      -9.789   2.196 -33.041  1.00  0.00    -0.023 A 
HETATM   16  S   UNL     1      -9.982   4.633 -32.234  1.00  0.00    -0.074 SA
HETATM   17  N   UNL     1      -7.296   4.560 -31.932  1.00  0.00    -0.358 N 
HETATM   18  C   UNL     1     -10.704   3.212 -32.834  1.00  0.00     0.018 A 
HETATM   19  C   UNL     1     -12.170   3.108 -33.082  1.00  0.00     0.281 C 
HETATM   20  N   UNL     1     -12.502   1.887 -33.935  1.00  0.00    -0.070 N 
HETATM   21  C   UNL     1     -11.728   0.654 -33.472  1.00  0.00     0.239 C 
HETATM   22  H   UNL     1     -13.497   1.689 -33.771  1.00  0.00     0.279 HD
HETATM   23  C   UNL     1     -12.365   2.154 -35.406  1.00  0.00     0.270 C 
HETATM   24  C   UNL     1     -10.204   0.853 -33.565  1.00  0.00     0.068 C 
HETATM   25  H   UNL     1      -7.356   5.414 -31.383  1.00  0.00     0.162 HD
ENDBRANCH   5   8
BRANCH   7  26
HETATM   26  O   UNL     1      -3.038   6.638 -29.344  1.00  0.00    -0.353 OA
HETATM   27  C   UNL     1      -3.947   7.671 -28.987  1.00  0.00     0.210 C 
ENDBRANCH   7  26
BRANCH   1  28
HETATM   28  O   UNL     1      -1.181   6.588 -31.648  1.00  0.00    -0.271 OA
BRANCH  28  29
HETATM   29  C   UNL     1      -0.168   5.819 -31.101  1.00  0.00     0.298 C 
HETATM   30  O   UNL     1       0.352   4.830 -31.595  1.00  0.00    -0.259 OA
BRANCH  29  31
HETATM   31  C   UNL     1       0.265   6.420 -29.811  1.00  0.00     0.040 A 
HETATM   32  C   UNL     1       0.360   5.582 -28.693  1.00  0.00     0.018 A 
HETATM   33  C   UNL     1       0.785   6.092 -27.464  1.00  0.00     0.007 A 
HETATM   34  C   UNL     1       1.122   7.444 -27.337  1.00  0.00    -0.062 A 
HETATM   35  C   UNL     1       1.555   8.000 -26.012  1.00  0.00     0.048 C 
HETATM   36  C   UNL     1       1.000   8.286 -28.449  1.00  0.00     0.007 A 
HETATM   37  C   UNL     1       0.579   7.778 -29.681  1.00  0.00     0.018 A 
ENDBRANCH  29  31
ENDBRANCH  28  29
ENDBRANCH   1  28
TORSDOF 5
ENDMDL
MODEL 9
REMARK VINA RESULT:      -8.7      7.017     10.134
REMARK  5 active torsions:
REMARK  status: ('A' for Active; 'I' for Inactive)
REMARK    1  A    between atoms: C_5  and  C_6 
REMARK    2  A    between atoms: C_6  and  O_7 
REMARK    3  A    between atoms: O_7  and  C_8 
REMARK    4  A    between atoms: C_12  and  C_13 
REMARK    5  A    between atoms: C_30  and  O_31 
ROOT
HETATM    1  C   UNL     1      -7.894   2.205 -33.635  1.00  0.00     0.130 A 
HETATM    2  C   UNL     1      -7.298   3.477 -33.614  1.00  0.00     0.048 A 
HETATM    3 BR   UNL     1      -5.446   3.714 -33.265  1.00  0.00    -0.048 Br
HETATM    4  C   UNL     1      -8.068   4.620 -33.843  1.00  0.00     0.033 A 
HETATM    5  C   UNL     1      -9.451   4.517 -34.059  1.00  0.00    -0.012 A 
HETATM    6  C   UNL     1     -10.033   3.237 -34.052  1.00  0.00     0.050 A 
HETATM    7  C   UNL     1      -9.276   2.080 -33.820  1.00  0.00     0.104 A 
ENDROOT
BRANCH   5   8
HETATM    8  C   UNL     1     -10.308   5.727 -34.358  1.00  0.00     0.219 C 
HETATM    9  N   UNL     1     -11.669   5.330 -34.600  1.00  0.00    -0.332 N 
HETATM   10  C   UNL     1     -12.586   6.181 -35.157  1.00  0.00     0.256 C 
HETATM   11  H   UNL     1     -12.067   4.620 -34.002  1.00  0.00     0.165 HD
HETATM   12  O   UNL     1     -13.794   6.023 -35.020  1.00  0.00    -0.267 OA
HETATM   13  C   UNL     1     -12.021   7.257 -35.953  1.00  0.00     0.073 A 
HETATM   14  C   UNL     1     -10.655   7.329 -36.102  1.00  0.00     0.088 A 
HETATM   15  C   UNL     1     -12.691   8.294 -36.677  1.00  0.00    -0.023 A 
HETATM   16  S   UNL     1     -10.174   8.598 -37.126  1.00  0.00    -0.074 SA
HETATM   17  N   UNL     1      -9.807   6.464 -35.506  1.00  0.00    -0.358 N 
HETATM   18  C   UNL     1     -11.790   9.069 -37.385  1.00  0.00     0.018 A 
HETATM   19  C   UNL     1     -12.154  10.206 -38.276  1.00  0.00     0.281 C 
HETATM   20  N   UNL     1     -13.643  10.193 -38.611  1.00  0.00    -0.070 N 
HETATM   21  C   UNL     1     -14.492   9.904 -37.375  1.00  0.00     0.239 C 
HETATM   22  H   UNL     1     -13.874  11.148 -38.910  1.00  0.00     0.279 HD
HETATM   23  C   UNL     1     -13.967   9.299 -39.774  1.00  0.00     0.270 C 
HETATM   24  C   UNL     1     -14.169   8.532 -36.754  1.00  0.00     0.068 C 
HETATM   25  H   UNL     1      -8.818   6.699 -35.457  1.00  0.00     0.162 HD
ENDBRANCH   5   8
BRANCH   7  26
HETATM   26  O   UNL     1     -10.021   0.935 -33.849  1.00  0.00    -0.353 OA
HETATM   27  C   UNL     1     -11.417   1.049 -33.609  1.00  0.00     0.210 C 
ENDBRANCH   7  26
BRANCH   1  28
HETATM   28  O   UNL     1      -7.091   1.077 -33.451  1.00  0.00    -0.271 OA
BRANCH  28  29
HETATM   29  C   UNL     1      -6.807   0.433 -34.643  1.00  0.00     0.298 C 
HETATM   30  O   UNL     1      -7.105   0.805 -35.768  1.00  0.00    -0.259 OA
BRANCH  29  31
HETATM   31  C   UNL     1      -6.001  -0.787 -34.365  1.00  0.00     0.040 A 
HETATM   32  C   UNL     1      -6.386  -1.985 -34.978  1.00  0.00     0.018 A 
HETATM   33  C   UNL     1      -5.649  -3.153 -34.769  1.00  0.00     0.007 A 
HETATM   34  C   UNL     1      -4.516  -3.138 -33.946  1.00  0.00    -0.062 A 
HETATM   35  C   UNL     1      -3.737  -4.396 -33.700  1.00  0.00     0.048 C 
HETATM   36  C   UNL     1      -4.149  -1.945 -33.312  1.00  0.00     0.007 A 
HETATM   37  C   UNL     1      -4.882  -0.773 -33.522  1.00  0.00     0.018 A 
ENDBRANCH  29  31
ENDBRANCH  28  29
ENDBRANCH   1  28
TORSDOF 5
ENDMDL
MODEL 10
REMARK VINA RESULT:      -8.7      4.938     10.960
REMARK  5 active torsions:
REMARK  status: ('A' for Active; 'I' for Inactive)
REMARK    1  A    between atoms: C_5  and  C_6 
REMARK    2  A    between atoms: C_6  and  O_7 
REMARK    3  A    between atoms: O_7  and  C_8 
REMARK    4  A    between atoms: C_12  and  C_13 
REMARK    5  A    between atoms: C_30  and  O_31 
ROOT
HETATM    1  C   UNL     1      -3.136   5.678 -31.762  1.00  0.00     0.130 A 
HETATM    2  C   UNL     1      -3.054   5.340 -33.122  1.00  0.00     0.048 A 
HETATM    3 BR   UNL     1      -1.438   5.512 -34.106  1.00  0.00    -0.048 Br
HETATM    4  C   UNL     1      -4.182   4.871 -33.801  1.00  0.00     0.033 A 
HETATM    5  C   UNL     1      -5.418   4.767 -33.145  1.00  0.00    -0.012 A 
HETATM    6  C   UNL     1      -5.485   5.133 -31.789  1.00  0.00     0.050 A 
HETATM    7  C   UNL     1      -4.365   5.609 -31.094  1.00  0.00     0.104 A 
ENDROOT
BRANCH   5   8
HETATM    8  C   UNL     1      -6.647   4.218 -33.835  1.00  0.00     0.219 C 
HETATM    9  N   UNL     1      -7.609   5.265 -34.053  1.00  0.00    -0.332 N 
HETATM   10  C   UNL     1      -8.905   5.000 -34.405  1.00  0.00     0.256 C 
HETATM   11  H   UNL     1      -7.266   6.162 -34.366  1.00  0.00     0.165 HD
HETATM   12  O   UNL     1      -9.616   5.830 -34.960  1.00  0.00    -0.267 OA
HETATM   13  C   UNL     1      -9.385   3.680 -34.032  1.00  0.00     0.073 A 
HETATM   14  C   UNL     1      -8.538   2.829 -33.359  1.00  0.00     0.088 A 
HETATM   15  C   UNL     1     -10.676   3.098 -34.231  1.00  0.00    -0.023 A 
HETATM   16  S   UNL     1      -9.285   1.363 -32.933  1.00  0.00    -0.074 SA
HETATM   17  N   UNL     1      -7.261   3.151 -33.061  1.00  0.00    -0.358 N 
HETATM   18  C   UNL     1     -10.755   1.847 -33.644  1.00  0.00     0.018 A 
HETATM   19  C   UNL     1     -11.969   0.984 -33.629  1.00  0.00     0.281 C 
HETATM   20  N   UNL     1     -13.218   1.777 -34.005  1.00  0.00    -0.070 N 
HETATM   21  C   UNL     1     -12.960   2.691 -35.201  1.00  0.00     0.239 C 
HETATM   22  H   UNL     1     -13.912   1.084 -34.307  1.00  0.00     0.279 HD
HETATM   23  C   UNL     1     -13.824   2.494 -32.832  1.00  0.00     0.270 C 
HETATM   24  C   UNL     1     -11.853   3.723 -34.919  1.00  0.00     0.068 C 
HETATM   25  H   UNL     1      -6.620   2.413 -32.780  1.00  0.00     0.162 HD
ENDBRANCH   5   8
BRANCH   7  26
HETATM   26  O   UNL     1      -4.632   5.915 -29.789  1.00  0.00    -0.353 OA
HETATM   27  C   UNL     1      -5.191   7.191 -29.511  1.00  0.00     0.210 C 
ENDBRANCH   7  26
BRANCH   1  28
HETATM   28  O   UNL     1      -1.982   6.099 -31.096  1.00  0.00    -0.271 OA
BRANCH  28  29
HETATM   29  C   UNL     1      -1.868   7.478 -31.061  1.00  0.00     0.298 C 
HETATM   30  O   UNL     1      -2.389   8.278 -31.825  1.00  0.00    -0.259 OA
BRANCH  29  31
HETATM   31  C   UNL     1      -1.050   7.875 -29.884  1.00  0.00     0.040 A 
HETATM   32  C   UNL     1       0.208   7.282 -29.727  1.00  0.00     0.018 A 
HETATM   33  C   UNL     1       1.026   7.638 -28.652  1.00  0.00     0.007 A 
HETATM   34  C   UNL     1       0.599   8.592 -27.722  1.00  0.00    -0.062 A 
HETATM   35  C   UNL     1       1.465   8.958 -26.552  1.00  0.00     0.048 C 
HETATM   36  C   UNL     1      -0.672   9.164 -27.865  1.00  0.00     0.007 A 
HETATM   37  C   UNL     1      -1.491   8.813 -28.942  1.00  0.00     0.018 A 
ENDBRANCH  29  31
ENDBRANCH  28  29
ENDBRANCH   1  28
TORSDOF 5
ENDMDL
