MODEL 1
REMARK VINA RESULT:      -8.5      0.000      0.000
REMARK  7 active torsions:
REMARK  status: ('A' for Active; 'I' for Inactive)
REMARK       I    between atoms: C_2  and  N_3 
REMARK    1  A    between atoms: N_3  and  C_4 
REMARK    2  A    between atoms: C_7  and  C_8 
REMARK    3  A    between atoms: C_13  and  C_14 
REMARK    4  A    between atoms: C_14  and  C_15 
REMARK    5  A    between atoms: C_15  and  C_16 
REMARK    6  A    between atoms: C_16  and  O_17 
REMARK    7  A    between atoms: C_19  and  C_20 
ROOT
HETATM    1  C   UNL     1      -5.976   2.832 -32.692  1.00  0.00     0.058 A 
HETATM    2  N   UNL     1      -6.356   3.097 -31.396  1.00  0.00    -0.188 N 
HETATM    3  C   UNL     1      -6.164   4.295 -30.812  1.00  0.00     0.726 A 
HETATM    4  N   UNL     1      -5.547   5.295 -31.518  1.00  0.00    -0.084 N 
HETATM    5  N   UNL     1      -5.461   6.430 -30.790  1.00  0.00    -0.140 NA
HETATM    6  C   UNL     1      -6.003   6.025 -29.632  1.00  0.00     0.166 A 
HETATM    7  N   UNL     1      -6.460   4.728 -29.614  1.00  0.00    -0.046 NA
HETATM    8  C   UNL     1      -5.072   5.149 -32.901  1.00  0.00     0.187 A 
HETATM    9  C   UNL     1      -5.381   3.765 -33.459  1.00  0.00     0.036 A 
HETATM   10  H   UNL     1      -6.790   2.345 -30.869  1.00  0.00     0.184 HD
ENDROOT
BRANCH   1  11
HETATM   11  C   UNL     1      -6.208   1.479 -33.203  1.00  0.00    -0.009 A 
HETATM   12  C   UNL     1      -6.695   1.302 -34.501  1.00  0.00     0.016 A 
HETATM   13  C   UNL     1      -6.905   0.017 -35.013  1.00  0.00     0.030 A 
HETATM   14  C   UNL     1      -6.629  -1.108 -34.236  1.00  0.00     0.034 A 
HETATM   15  C   UNL     1      -6.147  -0.928 -32.932  1.00  0.00     0.030 A 
HETATM   16  C   UNL     1      -5.938   0.356 -32.418  1.00  0.00     0.016 A 
BRANCH  14  17
HETATM   17  N   UNL     1      -6.802  -2.435 -34.683  1.00  0.00    -0.328 N 
HETATM   18  C   UNL     1      -5.816  -3.355 -34.987  1.00  0.00     0.218 C 
HETATM   19  C   UNL     1      -6.382  -4.688 -35.410  1.00  0.00     0.117 C 
HETATM   20  O   UNL     1      -4.603  -3.190 -34.912  1.00  0.00    -0.274 OA
HETATM   21  H   UNL     1      -7.760  -2.748 -34.774  1.00  0.00     0.169 HD
ENDBRANCH  14  17
ENDBRANCH   1  11
BRANCH   8  22
HETATM   22  C   UNL     1      -3.584   5.454 -33.034  1.00  0.00    -0.028 A 
HETATM   23  C   UNL     1      -2.728   5.221 -31.942  1.00  0.00     0.028 A 
HETATM   24  C   UNL     1      -1.372   5.542 -32.028  1.00  0.00     0.011 A 
HETATM   25 BR   UNL     1      -0.242   5.229 -30.546  1.00  0.00    -0.051 Br
HETATM   26  C   UNL     1      -0.847   6.098 -33.191  1.00  0.00     0.019 A 
HETATM   27  C   UNL     1      -1.685   6.341 -34.278  1.00  0.00     0.002 A 
HETATM   28  C   UNL     1      -3.044   6.030 -34.198  1.00  0.00     0.010 A 
ENDBRANCH   8  22
BRANCH   6  29
HETATM   29  C   UNL     1      -6.065   6.894 -28.430  1.00  0.00     0.085 C 
BRANCH  29  30
HETATM   30  C   UNL     1      -4.689   7.194 -27.836  1.00  0.00     0.034 C 
BRANCH  30  31
HETATM   31  C   UNL     1      -4.414   6.422 -26.550  1.00  0.00     0.164 C 
BRANCH  31  32
HETATM   32  O   UNL     1      -4.892   5.086 -26.679  1.00  0.00    -0.401 OA
HETATM   33  H   UNL     1      -5.366   4.863 -25.860  1.00  0.00     0.209 HD
ENDBRANCH  31  32
ENDBRANCH  30  31
ENDBRANCH  29  30
ENDBRANCH   6  29
TORSDOF 7
ENDMDL
MODEL 2
REMARK VINA RESULT:      -8.4      2.672      4.110
REMARK  7 active torsions:
REMARK  status: ('A' for Active; 'I' for Inactive)
REMARK       I    between atoms: C_2  and  N_3 
REMARK    1  A    between atoms: N_3  and  C_4 
REMARK    2  A    between atoms: C_7  and  C_8 
REMARK    3  A    between atoms: C_13  and  C_14 
REMARK    4  A    between atoms: C_14  and  C_15 
REMARK    5  A    between atoms: C_15  and  C_16 
REMARK    6  A    between atoms: C_16  and  O_17 
REMARK    7  A    between atoms: C_19  and  C_20 
ROOT
HETATM    1  C   UNL     1      -4.578   2.461 -32.038  1.00  0.00     0.058 A 
HETATM    2  N   UNL     1      -3.320   2.861 -32.429  1.00  0.00    -0.188 N 
HETATM    3  C   UNL     1      -2.746   3.993 -31.983  1.00  0.00     0.726 A 
HETATM    4  N   UNL     1      -3.437   4.801 -31.118  1.00  0.00    -0.084 N 
HETATM    5  N   UNL     1      -2.702   5.875 -30.755  1.00  0.00    -0.140 NA
HETATM    6  C   UNL     1      -1.593   5.676 -31.482  1.00  0.00     0.166 A 
HETATM    7  N   UNL     1      -1.577   4.524 -32.234  1.00  0.00    -0.046 NA
HETATM    8  C   UNL     1      -4.793   4.510 -30.631  1.00  0.00     0.187 A 
HETATM    9  C   UNL     1      -5.315   3.187 -31.178  1.00  0.00     0.036 A 
HETATM   10  H   UNL     1      -2.823   2.271 -33.090  1.00  0.00     0.184 HD
ENDROOT
BRANCH   1  11
HETATM   11  C   UNL     1      -5.108   1.226 -32.621  1.00  0.00    -0.009 A 
HETATM   12  C   UNL     1      -6.002   1.293 -33.694  1.00  0.00     0.016 A 
HETATM   13  C   UNL     1      -6.505   0.124 -34.276  1.00  0.00     0.030 A 
HETATM   14  C   UNL     1      -6.120  -1.127 -33.795  1.00  0.00     0.034 A 
HETATM   15  C   UNL     1      -5.230  -1.192 -32.714  1.00  0.00     0.030 A 
HETATM   16  C   UNL     1      -4.727  -0.024 -32.130  1.00  0.00     0.016 A 
BRANCH  14  17
HETATM   17  N   UNL     1      -6.572  -2.350 -34.333  1.00  0.00    -0.328 N 
HETATM   18  C   UNL     1      -5.805  -3.362 -34.881  1.00  0.00     0.218 C 
HETATM   19  C   UNL     1      -6.638  -4.536 -35.333  1.00  0.00     0.117 C 
HETATM   20  O   UNL     1      -4.584  -3.387 -34.989  1.00  0.00    -0.274 OA
HETATM   21  H   UNL     1      -7.571  -2.506 -34.297  1.00  0.00     0.169 HD
ENDBRANCH  14  17
ENDBRANCH   1  11
BRANCH   8  22
HETATM   22  C   UNL     1      -5.771   5.637 -30.944  1.00  0.00    -0.028 A 
HETATM   23  C   UNL     1      -6.184   6.504 -29.915  1.00  0.00     0.028 A 
HETATM   24  C   UNL     1      -7.118   7.508 -30.173  1.00  0.00     0.011 A 
HETATM   25 BR   UNL     1      -7.666   8.656 -28.773  1.00  0.00    -0.051 Br
HETATM   26  C   UNL     1      -7.655   7.668 -31.447  1.00  0.00     0.019 A 
HETATM   27  C   UNL     1      -7.260   6.812 -32.473  1.00  0.00     0.002 A 
HETATM   28  C   UNL     1      -6.333   5.799 -32.223  1.00  0.00     0.010 A 
ENDBRANCH   8  22
BRANCH   6  29
HETATM   29  C   UNL     1      -0.473   6.650 -31.518  1.00  0.00     0.085 C 
BRANCH  29  30
HETATM   30  C   UNL     1       0.777   6.151 -30.793  1.00  0.00     0.034 C 
BRANCH  30  31
HETATM   31  C   UNL     1       0.456   5.362 -29.528  1.00  0.00     0.164 C 
BRANCH  31  32
HETATM   32  O   UNL     1       0.890   4.014 -29.679  1.00  0.00    -0.401 OA
HETATM   33  H   UNL     1       0.098   3.453 -29.727  1.00  0.00     0.209 HD
ENDBRANCH  31  32
ENDBRANCH  30  31
ENDBRANCH  29  30
ENDBRANCH   6  29
TORSDOF 7
ENDMDL
MODEL 3
REMARK VINA RESULT:      -8.4      4.745      7.863
REMARK  7 active torsions:
REMARK  status: ('A' for Active; 'I' for Inactive)
REMARK       I    between atoms: C_2  and  N_3 
REMARK    1  A    between atoms: N_3  and  C_4 
REMARK    2  A    between atoms: C_7  and  C_8 
REMARK    3  A    between atoms: C_13  and  C_14 
REMARK    4  A    between atoms: C_14  and  C_15 
REMARK    5  A    between atoms: C_15  and  C_16 
REMARK    6  A    between atoms: C_16  and  O_17 
REMARK    7  A    between atoms: C_19  and  C_20 
ROOT
HETATM    1  C   UNL     1      -9.145   1.286 -32.919  1.00  0.00     0.058 A 
HETATM    2  N   UNL     1      -8.847   0.110 -33.569  1.00  0.00    -0.188 N 
HETATM    3  C   UNL     1      -7.605  -0.408 -33.602  1.00  0.00     0.726 A 
HETATM    4  N   UNL     1      -6.582   0.261 -32.984  1.00  0.00    -0.084 N 
HETATM    5  N   UNL     1      -5.416  -0.414 -33.094  1.00  0.00    -0.140 NA
HETATM    6  C   UNL     1      -5.803  -1.460 -33.839  1.00  0.00     0.166 A 
HETATM    7  N   UNL     1      -7.141  -1.499 -34.155  1.00  0.00    -0.046 NA
HETATM    8  C   UNL     1      -6.749   1.533 -32.267  1.00  0.00     0.187 A 
HETATM    9  C   UNL     1      -8.201   1.994 -32.271  1.00  0.00     0.036 A 
HETATM   10  H   UNL     1      -9.605  -0.368 -34.048  1.00  0.00     0.184 HD
ENDROOT
BRANCH   1  11
HETATM   11  C   UNL     1     -10.528   1.766 -32.984  1.00  0.00    -0.009 A 
HETATM   12  C   UNL     1     -11.509   0.974 -33.588  1.00  0.00     0.016 A 
HETATM   13  C   UNL     1     -12.838   1.407 -33.643  1.00  0.00     0.030 A 
HETATM   14  C   UNL     1     -13.205   2.636 -33.094  1.00  0.00     0.034 A 
HETATM   15  C   UNL     1     -12.218   3.431 -32.496  1.00  0.00     0.030 A 
HETATM   16  C   UNL     1     -10.888   3.000 -32.441  1.00  0.00     0.016 A 
BRANCH  14  17
HETATM   17  N   UNL     1     -14.523   3.137 -33.098  1.00  0.00    -0.328 N 
HETATM   18  C   UNL     1     -15.581   2.730 -32.306  1.00  0.00     0.218 C 
HETATM   19  C   UNL     1     -16.840   3.516 -32.575  1.00  0.00     0.117 C 
HETATM   20  O   UNL     1     -15.563   1.861 -31.441  1.00  0.00    -0.274 OA
HETATM   21  H   UNL     1     -14.706   3.893 -33.747  1.00  0.00     0.169 HD
ENDBRANCH  14  17
ENDBRANCH   1  11
BRANCH   8  22
HETATM   22  C   UNL     1      -5.843   2.628 -32.821  1.00  0.00    -0.028 A 
HETATM   23  C   UNL     1      -4.648   2.946 -32.151  1.00  0.00     0.028 A 
HETATM   24  C   UNL     1      -3.833   3.979 -32.615  1.00  0.00     0.011 A 
HETATM   25 BR   UNL     1      -2.236   4.395 -31.693  1.00  0.00    -0.051 Br
HETATM   26  C   UNL     1      -4.189   4.712 -33.744  1.00  0.00     0.019 A 
HETATM   27  C   UNL     1      -5.374   4.412 -34.414  1.00  0.00     0.002 A 
HETATM   28  C   UNL     1      -6.200   3.385 -33.952  1.00  0.00     0.010 A 
ENDBRANCH   8  22
BRANCH   6  29
HETATM   29  C   UNL     1      -4.851  -2.485 -34.334  1.00  0.00     0.085 C 
BRANCH  29  30
HETATM   30  C   UNL     1      -5.489  -3.471 -35.313  1.00  0.00     0.034 C 
BRANCH  30  31
HETATM   31  C   UNL     1      -5.642  -4.873 -34.732  1.00  0.00     0.164 C 
BRANCH  31  32
HETATM   32  O   UNL     1      -4.365  -5.381 -34.359  1.00  0.00    -0.401 OA
HETATM   33  H   UNL     1      -4.412  -5.639 -33.423  1.00  0.00     0.209 HD
ENDBRANCH  31  32
ENDBRANCH  30  31
ENDBRANCH  29  30
ENDBRANCH   6  29
TORSDOF 7
ENDMDL
MODEL 4
REMARK VINA RESULT:      -8.3      6.523      8.650
REMARK  7 active torsions:
REMARK  status: ('A' for Active; 'I' for Inactive)
REMARK       I    between atoms: C_2  and  N_3 
REMARK    1  A    between atoms: N_3  and  C_4 
REMARK    2  A    between atoms: C_7  and  C_8 
REMARK    3  A    between atoms: C_13  and  C_14 
REMARK    4  A    between atoms: C_14  and  C_15 
REMARK    5  A    between atoms: C_15  and  C_16 
REMARK    6  A    between atoms: C_16  and  O_17 
REMARK    7  A    between atoms: C_19  and  C_20 
ROOT
HETATM    1  C   UNL     1      -9.159   1.965 -33.741  1.00  0.00     0.058 A 
HETATM    2  N   UNL     1      -9.001   3.065 -34.553  1.00  0.00    -0.188 N 
HETATM    3  C   UNL     1      -9.912   4.053 -34.622  1.00  0.00     0.726 A 
HETATM    4  N   UNL     1     -11.057   3.965 -33.876  1.00  0.00    -0.084 N 
HETATM    5  N   UNL     1     -11.841   5.052 -34.048  1.00  0.00    -0.140 NA
HETATM    6  C   UNL     1     -11.127   5.734 -34.956  1.00  0.00     0.166 A 
HETATM    7  N   UNL     1      -9.931   5.161 -35.319  1.00  0.00    -0.046 NA
HETATM    8  C   UNL     1     -11.368   2.842 -32.980  1.00  0.00     0.187 A 
HETATM    9  C   UNL     1     -10.245   1.811 -32.962  1.00  0.00     0.036 A 
HETATM   10  H   UNL     1      -8.162   3.112 -35.124  1.00  0.00     0.184 HD
ENDROOT
BRANCH   1  11
HETATM   11  C   UNL     1      -8.114   0.938 -33.779  1.00  0.00    -0.009 A 
HETATM   12  C   UNL     1      -7.542   0.486 -32.586  1.00  0.00     0.016 A 
HETATM   13  C   UNL     1      -6.557  -0.507 -32.601  1.00  0.00     0.030 A 
HETATM   14  C   UNL     1      -6.130  -1.062 -33.808  1.00  0.00     0.034 A 
HETATM   15  C   UNL     1      -6.699  -0.600 -35.003  1.00  0.00     0.030 A 
HETATM   16  C   UNL     1      -7.684   0.393 -34.990  1.00  0.00     0.016 A 
BRANCH  14  17
HETATM   17  N   UNL     1      -5.152  -2.073 -33.906  1.00  0.00    -0.328 N 
HETATM   18  C   UNL     1      -5.322  -3.366 -34.365  1.00  0.00     0.218 C 
HETATM   19  C   UNL     1      -4.037  -4.158 -34.348  1.00  0.00     0.117 C 
HETATM   20  O   UNL     1      -6.358  -3.871 -34.782  1.00  0.00    -0.274 OA
HETATM   21  H   UNL     1      -4.216  -1.811 -33.623  1.00  0.00     0.169 HD
ENDBRANCH  14  17
ENDBRANCH   1  11
BRANCH   8  22
HETATM   22  C   UNL     1     -12.694   2.177 -33.331  1.00  0.00    -0.028 A 
HETATM   23  C   UNL     1     -13.875   2.610 -32.701  1.00  0.00     0.028 A 
HETATM   24  C   UNL     1     -15.090   1.978 -32.972  1.00  0.00     0.011 A 
HETATM   25 BR   UNL     1     -16.664   2.571 -32.108  1.00  0.00    -0.051 Br
HETATM   26  C   UNL     1     -15.152   0.912 -33.865  1.00  0.00     0.019 A 
HETATM   27  C   UNL     1     -13.989   0.469 -34.490  1.00  0.00     0.002 A 
HETATM   28  C   UNL     1     -12.767   1.089 -34.220  1.00  0.00     0.010 A 
ENDBRANCH   8  22
BRANCH   6  29
HETATM   29  C   UNL     1     -11.608   6.997 -35.569  1.00  0.00     0.085 C 
BRANCH  29  30
HETATM   30  C   UNL     1     -13.079   6.939 -35.983  1.00  0.00     0.034 C 
BRANCH  30  31
HETATM   31  C   UNL     1     -13.379   7.762 -37.231  1.00  0.00     0.164 C 
BRANCH  31  32
HETATM   32  O   UNL     1     -14.194   7.007 -38.122  1.00  0.00    -0.401 OA
HETATM   33  H   UNL     1     -14.559   6.257 -37.623  1.00  0.00     0.209 HD
ENDBRANCH  31  32
ENDBRANCH  30  31
ENDBRANCH  29  30
ENDBRANCH   6  29
TORSDOF 7
ENDMDL
MODEL 5
REMARK VINA RESULT:      -8.3      3.782      8.242
REMARK  7 active torsions:
REMARK  status: ('A' for Active; 'I' for Inactive)
REMARK       I    between atoms: C_2  and  N_3 
REMARK    1  A    between atoms: N_3  and  C_4 
REMARK    2  A    between atoms: C_7  and  C_8 
REMARK    3  A    between atoms: C_13  and  C_14 
REMARK    4  A    between atoms: C_14  and  C_15 
REMARK    5  A    between atoms: C_15  and  C_16 
REMARK    6  A    between atoms: C_16  and  O_17 
REMARK    7  A    between atoms: C_19  and  C_20 
ROOT
HETATM    1  C   UNL     1      -5.927   2.764 -32.036  1.00  0.00     0.058 A 
HETATM    2  N   UNL     1      -7.099   3.371 -32.424  1.00  0.00    -0.188 N 
HETATM    3  C   UNL     1      -8.243   2.688 -32.614  1.00  0.00     0.726 A 
HETATM    4  N   UNL     1      -8.252   1.330 -32.437  1.00  0.00    -0.084 N 
HETATM    5  N   UNL     1      -9.485   0.815 -32.644  1.00  0.00    -0.140 NA
HETATM    6  C   UNL     1     -10.161   1.920 -32.993  1.00  0.00     0.166 A 
HETATM    7  N   UNL     1      -9.437   3.089 -32.970  1.00  0.00    -0.046 NA
HETATM    8  C   UNL     1      -7.073   0.546 -32.043  1.00  0.00     0.187 A 
HETATM    9  C   UNL     1      -5.855   1.437 -31.823  1.00  0.00     0.036 A 
HETATM   10  H   UNL     1      -7.080   4.375 -32.578  1.00  0.00     0.184 HD
ENDROOT
BRANCH   1  11
HETATM   11  C   UNL     1      -4.739   3.609 -31.895  1.00  0.00    -0.009 A 
HETATM   12  C   UNL     1      -3.609   3.353 -32.678  1.00  0.00     0.016 A 
HETATM   13  C   UNL     1      -2.472   4.162 -32.571  1.00  0.00     0.030 A 
HETATM   14  C   UNL     1      -2.449   5.237 -31.683  1.00  0.00     0.034 A 
HETATM   15  C   UNL     1      -3.581   5.487 -30.894  1.00  0.00     0.030 A 
HETATM   16  C   UNL     1      -4.718   4.679 -30.998  1.00  0.00     0.016 A 
BRANCH  14  17
HETATM   17  N   UNL     1      -1.348   6.104 -31.525  1.00  0.00    -0.328 N 
HETATM   18  C   UNL     1      -0.116   5.808 -30.972  1.00  0.00     0.218 C 
HETATM   19  C   UNL     1       0.826   6.986 -30.996  1.00  0.00     0.117 C 
HETATM   20  O   UNL     1       0.251   4.727 -30.524  1.00  0.00    -0.274 OA
HETATM   21  H   UNL     1      -1.475   7.046 -31.874  1.00  0.00     0.169 HD
ENDBRANCH  14  17
ENDBRANCH   1  11
BRANCH   8  22
HETATM   22  C   UNL     1      -6.751  -0.555 -33.047  1.00  0.00    -0.028 A 
HETATM   23  C   UNL     1      -5.634  -1.383 -32.835  1.00  0.00     0.028 A 
HETATM   24  C   UNL     1      -5.295  -2.362 -33.770  1.00  0.00     0.011 A 
HETATM   25 BR   UNL     1      -3.784  -3.457 -33.470  1.00  0.00    -0.051 Br
HETATM   26  C   UNL     1      -6.054  -2.534 -34.925  1.00  0.00     0.019 A 
HETATM   27  C   UNL     1      -7.159  -1.716 -35.151  1.00  0.00     0.002 A 
HETATM   28  C   UNL     1      -7.501  -0.728 -34.225  1.00  0.00     0.010 A 
ENDBRANCH   8  22
BRANCH   6  29
HETATM   29  C   UNL     1     -11.581   1.886 -33.424  1.00  0.00     0.085 C 
BRANCH  29  30
HETATM   30  C   UNL     1     -11.747   1.589 -34.915  1.00  0.00     0.034 C 
BRANCH  30  31
HETATM   31  C   UNL     1     -12.319   2.768 -35.696  1.00  0.00     0.164 C 
BRANCH  31  32
HETATM   32  O   UNL     1     -12.268   2.491 -37.092  1.00  0.00    -0.401 OA
HETATM   33  H   UNL     1     -13.108   2.067 -37.339  1.00  0.00     0.209 HD
ENDBRANCH  31  32
ENDBRANCH  30  31
ENDBRANCH  29  30
ENDBRANCH   6  29
TORSDOF 7
ENDMDL
MODEL 6
REMARK VINA RESULT:      -8.2      3.611      8.947
REMARK  7 active torsions:
REMARK  status: ('A' for Active; 'I' for Inactive)
REMARK       I    between atoms: C_2  and  N_3 
REMARK    1  A    between atoms: N_3  and  C_4 
REMARK    2  A    between atoms: C_7  and  C_8 
REMARK    3  A    between atoms: C_13  and  C_14 
REMARK    4  A    between atoms: C_14  and  C_15 
REMARK    5  A    between atoms: C_15  and  C_16 
REMARK    6  A    between atoms: C_16  and  O_17 
REMARK    7  A    between atoms: C_19  and  C_20 
ROOT
HETATM    1  C   UNL     1      -4.923   3.041 -32.864  1.00  0.00     0.058 A 
HETATM    2  N   UNL     1      -4.619   1.699 -32.836  1.00  0.00    -0.188 N 
HETATM    3  C   UNL     1      -5.410   0.762 -33.391  1.00  0.00     0.726 A 
HETATM    4  N   UNL     1      -6.580   1.143 -33.994  1.00  0.00    -0.084 N 
HETATM    5  N   UNL     1      -7.232   0.081 -34.517  1.00  0.00    -0.140 NA
HETATM    6  C   UNL     1      -6.419  -0.919 -34.144  1.00  0.00     0.166 A 
HETATM    7  N   UNL     1      -5.284  -0.538 -33.467  1.00  0.00    -0.046 NA
HETATM    8  C   UNL     1      -7.041   2.536 -34.083  1.00  0.00     0.187 A 
HETATM    9  C   UNL     1      -6.043   3.500 -33.453  1.00  0.00     0.036 A 
HETATM   10  H   UNL     1      -3.763   1.420 -32.365  1.00  0.00     0.184 HD
ENDROOT
BRANCH   1  11
HETATM   11  C   UNL     1      -3.999   3.960 -32.195  1.00  0.00    -0.009 A 
HETATM   12  C   UNL     1      -2.625   3.862 -32.438  1.00  0.00     0.016 A 
HETATM   13  C   UNL     1      -1.729   4.743 -31.823  1.00  0.00     0.030 A 
HETATM   14  C   UNL     1      -2.193   5.735 -30.958  1.00  0.00     0.034 A 
HETATM   15  C   UNL     1      -3.570   5.826 -30.711  1.00  0.00     0.030 A 
HETATM   16  C   UNL     1      -4.468   4.945 -31.324  1.00  0.00     0.016 A 
BRANCH  14  17
HETATM   17  N   UNL     1      -1.357   6.667 -30.310  1.00  0.00    -0.328 N 
HETATM   18  C   UNL     1      -0.237   6.402 -29.544  1.00  0.00     0.218 C 
HETATM   19  C   UNL     1       0.421   7.659 -29.030  1.00  0.00     0.117 C 
HETATM   20  O   UNL     1       0.244   5.302 -29.295  1.00  0.00    -0.274 OA
HETATM   21  H   UNL     1      -1.600   7.642 -30.437  1.00  0.00     0.169 HD
ENDBRANCH  14  17
ENDBRANCH   1  11
BRANCH   8  22
HETATM   22  C   UNL     1      -8.423   2.725 -33.466  1.00  0.00    -0.028 A 
HETATM   23  C   UNL     1      -9.557   2.750 -34.298  1.00  0.00     0.028 A 
HETATM   24  C   UNL     1     -10.823   2.973 -33.756  1.00  0.00     0.011 A 
HETATM   25 BR   UNL     1     -12.333   3.013 -34.894  1.00  0.00    -0.051 Br
HETATM   26  C   UNL     1     -10.985   3.175 -32.388  1.00  0.00     0.019 A 
HETATM   27  C   UNL     1      -9.869   3.159 -31.554  1.00  0.00     0.002 A 
HETATM   28  C   UNL     1      -8.597   2.945 -32.088  1.00  0.00     0.010 A 
ENDBRANCH   8  22
BRANCH   6  29
HETATM   29  C   UNL     1      -6.737  -2.346 -34.398  1.00  0.00     0.085 C 
BRANCH  29  30
HETATM   30  C   UNL     1      -5.551  -3.134 -34.954  1.00  0.00     0.034 C 
BRANCH  30  31
HETATM   31  C   UNL     1      -5.719  -4.643 -34.807  1.00  0.00     0.164 C 
BRANCH  31  32
HETATM   32  O   UNL     1      -6.940  -5.053 -35.414  1.00  0.00    -0.401 OA
HETATM   33  H   UNL     1      -6.867  -6.003 -35.610  1.00  0.00     0.209 HD
ENDBRANCH  31  32
ENDBRANCH  30  31
ENDBRANCH  29  30
ENDBRANCH   6  29
TORSDOF 7
ENDMDL
MODEL 7
REMARK VINA RESULT:      -8.0      3.508      9.215
REMARK  7 active torsions:
REMARK  status: ('A' for Active; 'I' for Inactive)
REMARK       I    between atoms: C_2  and  N_3 
REMARK    1  A    between atoms: N_3  and  C_4 
REMARK    2  A    between atoms: C_7  and  C_8 
REMARK    3  A    between atoms: C_13  and  C_14 
REMARK    4  A    between atoms: C_14  and  C_15 
REMARK    5  A    between atoms: C_15  and  C_16 
REMARK    6  A    between atoms: C_16  and  O_17 
REMARK    7  A    between atoms: C_19  and  C_20 
ROOT
HETATM    1  C   UNL     1      -5.271   2.494 -32.895  1.00  0.00     0.058 A 
HETATM    2  N   UNL     1      -4.572   1.317 -32.753  1.00  0.00    -0.188 N 
HETATM    3  C   UNL     1      -4.936   0.176 -33.367  1.00  0.00     0.726 A 
HETATM    4  N   UNL     1      -6.058   0.165 -34.155  1.00  0.00    -0.084 N 
HETATM    5  N   UNL     1      -6.257  -1.050 -34.711  1.00  0.00    -0.140 NA
HETATM    6  C   UNL     1      -5.241  -1.740 -34.171  1.00  0.00     0.166 A 
HETATM    7  N   UNL     1      -4.401  -1.018 -33.357  1.00  0.00    -0.046 NA
HETATM    8  C   UNL     1      -6.910   1.341 -34.383  1.00  0.00     0.187 A 
HETATM    9  C   UNL     1      -6.372   2.573 -33.665  1.00  0.00     0.036 A 
HETATM   10  H   UNL     1      -3.756   1.324 -32.147  1.00  0.00     0.184 HD
ENDROOT
BRANCH   1  11
HETATM   11  C   UNL     1      -4.795   3.660 -32.147  1.00  0.00    -0.009 A 
HETATM   12  C   UNL     1      -3.429   3.955 -32.118  1.00  0.00     0.016 A 
HETATM   13  C   UNL     1      -2.958   5.076 -31.425  1.00  0.00     0.030 A 
HETATM   14  C   UNL     1      -3.846   5.916 -30.752  1.00  0.00     0.034 A 
HETATM   15  C   UNL     1      -5.214   5.613 -30.776  1.00  0.00     0.030 A 
HETATM   16  C   UNL     1      -5.687   4.493 -31.468  1.00  0.00     0.016 A 
BRANCH  14  17
HETATM   17  N   UNL     1      -3.452   7.069 -30.042  1.00  0.00    -0.328 N 
HETATM   18  C   UNL     1      -3.102   8.300 -30.565  1.00  0.00     0.218 C 
HETATM   19  C   UNL     1      -2.761   9.306 -29.493  1.00  0.00     0.117 C 
HETATM   20  O   UNL     1      -3.080   8.621 -31.748  1.00  0.00    -0.274 OA
HETATM   21  H   UNL     1      -3.443   6.984 -29.033  1.00  0.00     0.169 HD
ENDBRANCH  14  17
ENDBRANCH   1  11
BRANCH   8  22
HETATM   22  C   UNL     1      -8.360   1.085 -33.986  1.00  0.00    -0.028 A 
HETATM   23  C   UNL     1      -9.375   1.917 -34.493  1.00  0.00     0.028 A 
HETATM   24  C   UNL     1     -10.701   1.730 -34.100  1.00  0.00     0.011 A 
HETATM   25 BR   UNL     1     -12.048   2.865 -34.786  1.00  0.00    -0.051 Br
HETATM   26  C   UNL     1     -11.040   0.722 -33.201  1.00  0.00     0.019 A 
HETATM   27  C   UNL     1     -10.043  -0.105 -32.686  1.00  0.00     0.002 A 
HETATM   28  C   UNL     1      -8.713   0.080 -33.067  1.00  0.00     0.010 A 
ENDBRANCH   8  22
BRANCH   6  29
HETATM   29  C   UNL     1      -5.055  -3.196 -34.394  1.00  0.00     0.085 C 
BRANCH  29  30
HETATM   30  C   UNL     1      -3.826  -3.759 -33.680  1.00  0.00     0.034 C 
BRANCH  30  31
HETATM   31  C   UNL     1      -3.851  -5.280 -33.563  1.00  0.00     0.164 C 
BRANCH  31  32
HETATM   32  O   UNL     1      -4.676  -5.828 -34.586  1.00  0.00    -0.401 OA
HETATM   33  H   UNL     1      -5.576  -5.908 -34.227  1.00  0.00     0.209 HD
ENDBRANCH  31  32
ENDBRANCH  30  31
ENDBRANCH  29  30
ENDBRANCH   6  29
TORSDOF 7
ENDMDL
MODEL 8
REMARK VINA RESULT:      -8.0      4.769      8.339
REMARK  7 active torsions:
REMARK  status: ('A' for Active; 'I' for Inactive)
REMARK       I    between atoms: C_2  and  N_3 
REMARK    1  A    between atoms: N_3  and  C_4 
REMARK    2  A    between atoms: C_7  and  C_8 
REMARK    3  A    between atoms: C_13  and  C_14 
REMARK    4  A    between atoms: C_14  and  C_15 
REMARK    5  A    between atoms: C_15  and  C_16 
REMARK    6  A    between atoms: C_16  and  O_17 
REMARK    7  A    between atoms: C_19  and  C_20 
ROOT
HETATM    1  C   UNL     1      -9.122   2.207 -34.020  1.00  0.00     0.058 A 
HETATM    2  N   UNL     1      -8.898   1.062 -34.749  1.00  0.00    -0.188 N 
HETATM    3  C   UNL     1      -7.946   0.168 -34.423  1.00  0.00     0.726 A 
HETATM    4  N   UNL     1      -7.146   0.404 -33.335  1.00  0.00    -0.084 N 
HETATM    5  N   UNL     1      -6.268  -0.605 -33.142  1.00  0.00    -0.140 NA
HETATM    6  C   UNL     1      -6.562  -1.395 -34.186  1.00  0.00     0.166 A 
HETATM    7  N   UNL     1      -7.596  -0.962 -34.983  1.00  0.00    -0.046 NA
HETATM    8  C   UNL     1      -7.260   1.591 -32.477  1.00  0.00     0.187 A 
HETATM    9  C   UNL     1      -8.394   2.504 -32.927  1.00  0.00     0.036 A 
HETATM   10  H   UNL     1      -9.476   0.905 -35.569  1.00  0.00     0.184 HD
ENDROOT
BRANCH   1  11
HETATM   11  C   UNL     1     -10.165   3.120 -34.495  1.00  0.00    -0.009 A 
HETATM   12  C   UNL     1      -9.900   4.490 -34.582  1.00  0.00     0.016 A 
HETATM   13  C   UNL     1     -10.877   5.375 -35.052  1.00  0.00     0.030 A 
HETATM   14  C   UNL     1     -12.131   4.903 -35.442  1.00  0.00     0.034 A 
HETATM   15  C   UNL     1     -12.396   3.530 -35.346  1.00  0.00     0.030 A 
HETATM   16  C   UNL     1     -11.421   2.643 -34.876  1.00  0.00     0.016 A 
BRANCH  14  17
HETATM   17  N   UNL     1     -13.163   5.727 -35.936  1.00  0.00    -0.328 N 
HETATM   18  C   UNL     1     -13.994   6.561 -35.210  1.00  0.00     0.218 C 
HETATM   19  C   UNL     1     -14.967   7.310 -36.087  1.00  0.00     0.117 C 
HETATM   20  O   UNL     1     -13.978   6.745 -33.998  1.00  0.00    -0.274 OA
HETATM   21  H   UNL     1     -13.294   5.716 -36.940  1.00  0.00     0.169 HD
ENDBRANCH  14  17
ENDBRANCH   1  11
BRANCH   8  22
HETATM   22  C   UNL     1      -5.952   2.370 -32.397  1.00  0.00    -0.028 A 
HETATM   23  C   UNL     1      -5.621   3.278 -33.420  1.00  0.00     0.028 A 
HETATM   24  C   UNL     1      -4.405   3.962 -33.389  1.00  0.00     0.011 A 
HETATM   25 BR   UNL     1      -3.977   5.170 -34.779  1.00  0.00    -0.051 Br
HETATM   26  C   UNL     1      -3.501   3.756 -32.351  1.00  0.00     0.019 A 
HETATM   27  C   UNL     1      -3.813   2.854 -31.335  1.00  0.00     0.002 A 
HETATM   28  C   UNL     1      -5.024   2.160 -31.361  1.00  0.00     0.010 A 
ENDBRANCH   8  22
BRANCH   6  29
HETATM   29  C   UNL     1      -5.798  -2.629 -34.496  1.00  0.00     0.085 C 
BRANCH  29  30
HETATM   30  C   UNL     1      -6.695  -3.823 -34.819  1.00  0.00     0.034 C 
BRANCH  30  31
HETATM   31  C   UNL     1      -5.938  -4.980 -35.464  1.00  0.00     0.164 C 
BRANCH  31  32
HETATM   32  O   UNL     1      -4.971  -5.490 -34.551  1.00  0.00    -0.401 OA
HETATM   33  H   UNL     1      -5.296  -6.348 -34.227  1.00  0.00     0.209 HD
ENDBRANCH  31  32
ENDBRANCH  30  31
ENDBRANCH  29  30
ENDBRANCH   6  29
TORSDOF 7
ENDMDL
MODEL 9
REMARK VINA RESULT:      -7.9      4.968      6.980
REMARK  7 active torsions:
REMARK  status: ('A' for Active; 'I' for Inactive)
REMARK       I    between atoms: C_2  and  N_3 
REMARK    1  A    between atoms: N_3  and  C_4 
REMARK    2  A    between atoms: C_7  and  C_8 
REMARK    3  A    between atoms: C_13  and  C_14 
REMARK    4  A    between atoms: C_14  and  C_15 
REMARK    5  A    between atoms: C_15  and  C_16 
REMARK    6  A    between atoms: C_16  and  O_17 
REMARK    7  A    between atoms: C_19  and  C_20 
ROOT
HETATM    1  C   UNL     1      -9.067   2.289 -33.519  1.00  0.00     0.058 A 
HETATM    2  N   UNL     1      -8.475   3.069 -32.552  1.00  0.00    -0.188 N 
HETATM    3  C   UNL     1      -7.139   3.175 -32.420  1.00  0.00     0.726 A 
HETATM    4  N   UNL     1      -6.323   2.466 -33.262  1.00  0.00    -0.084 N 
HETATM    5  N   UNL     1      -5.019   2.711 -33.004  1.00  0.00    -0.140 NA
HETATM    6  C   UNL     1      -5.124   3.541 -31.955  1.00  0.00     0.166 A 
HETATM    7  N   UNL     1      -6.407   3.861 -31.580  1.00  0.00    -0.046 NA
HETATM    8  C   UNL     1      -6.814   1.580 -34.327  1.00  0.00     0.187 A 
HETATM    9  C   UNL     1      -8.337   1.577 -34.397  1.00  0.00     0.036 A 
HETATM   10  H   UNL     1      -9.085   3.572 -31.914  1.00  0.00     0.184 HD
ENDROOT
BRANCH   1  11
HETATM   11  C   UNL     1     -10.530   2.229 -33.539  1.00  0.00    -0.009 A 
HETATM   12  C   UNL     1     -11.171   1.006 -33.762  1.00  0.00     0.016 A 
HETATM   13  C   UNL     1     -12.568   0.926 -33.766  1.00  0.00     0.030 A 
HETATM   14  C   UNL     1     -13.343   2.065 -33.547  1.00  0.00     0.034 A 
HETATM   15  C   UNL     1     -12.698   3.290 -33.332  1.00  0.00     0.030 A 
HETATM   16  C   UNL     1     -11.301   3.373 -33.328  1.00  0.00     0.016 A 
BRANCH  14  17
HETATM   17  N   UNL     1     -14.753   2.064 -33.524  1.00  0.00    -0.328 N 
HETATM   18  C   UNL     1     -15.577   2.339 -32.448  1.00  0.00     0.218 C 
HETATM   19  C   UNL     1     -17.040   2.266 -32.809  1.00  0.00     0.117 C 
HETATM   20  O   UNL     1     -15.231   2.646 -31.313  1.00  0.00    -0.274 OA
HETATM   21  H   UNL     1     -15.209   1.854 -34.404  1.00  0.00     0.169 HD
ENDBRANCH  14  17
ENDBRANCH   1  11
BRANCH   8  22
HETATM   22  C   UNL     1      -6.286   0.157 -34.181  1.00  0.00    -0.028 A 
HETATM   23  C   UNL     1      -5.206  -0.097 -33.316  1.00  0.00     0.028 A 
HETATM   24  C   UNL     1      -4.677  -1.384 -33.208  1.00  0.00     0.011 A 
HETATM   25 BR   UNL     1      -3.220  -1.701 -32.046  1.00  0.00    -0.051 Br
HETATM   26  C   UNL     1      -5.206  -2.433 -33.954  1.00  0.00     0.019 A 
HETATM   27  C   UNL     1      -6.272  -2.194 -34.820  1.00  0.00     0.002 A 
HETATM   28  C   UNL     1      -6.802  -0.908 -34.940  1.00  0.00     0.010 A 
ENDBRANCH   8  22
BRANCH   6  29
HETATM   29  C   UNL     1      -3.942   4.046 -31.214  1.00  0.00     0.085 C 
BRANCH  29  30
HETATM   30  C   UNL     1      -2.616   3.672 -31.875  1.00  0.00     0.034 C 
BRANCH  30  31
HETATM   31  C   UNL     1      -1.813   4.888 -32.328  1.00  0.00     0.164 C 
BRANCH  31  32
HETATM   32  O   UNL     1      -0.491   4.815 -31.802  1.00  0.00    -0.401 OA
HETATM   33  H   UNL     1      -0.451   5.395 -31.023  1.00  0.00     0.209 HD
ENDBRANCH  31  32
ENDBRANCH  30  31
ENDBRANCH  29  30
ENDBRANCH   6  29
TORSDOF 7
ENDMDL
MODEL 10
REMARK VINA RESULT:      -7.7      3.447      9.384
REMARK  7 active torsions:
REMARK  status: ('A' for Active; 'I' for Inactive)
REMARK       I    between atoms: C_2  and  N_3 
REMARK    1  A    between atoms: N_3  and  C_4 
REMARK    2  A    between atoms: C_7  and  C_8 
REMARK    3  A    between atoms: C_13  and  C_14 
REMARK    4  A    between atoms: C_14  and  C_15 
REMARK    5  A    between atoms: C_15  and  C_16 
REMARK    6  A    between atoms: C_16  and  O_17 
REMARK    7  A    between atoms: C_19  and  C_20 
ROOT
HETATM    1  C   UNL     1      -6.067   3.206 -32.151  1.00  0.00     0.058 A 
HETATM    2  N   UNL     1      -5.260   2.096 -32.047  1.00  0.00    -0.188 N 
HETATM    3  C   UNL     1      -5.390   1.025 -32.851  1.00  0.00     0.726 A 
HETATM    4  N   UNL     1      -6.374   1.016 -33.805  1.00  0.00    -0.084 N 
HETATM    5  N   UNL     1      -6.341  -0.121 -34.534  1.00  0.00    -0.140 NA
HETATM    6  C   UNL     1      -5.340  -0.777 -33.929  1.00  0.00     0.166 A 
HETATM    7  N   UNL     1      -4.722  -0.099 -32.904  1.00  0.00    -0.046 NA
HETATM    8  C   UNL     1      -7.318   2.122 -34.018  1.00  0.00     0.187 A 
HETATM    9  C   UNL     1      -7.044   3.285 -33.073  1.00  0.00     0.036 A 
HETATM   10  H   UNL     1      -4.549   2.098 -31.321  1.00  0.00     0.184 HD
ENDROOT
BRANCH   1  11
HETATM   11  C   UNL     1      -5.850   4.295 -31.195  1.00  0.00    -0.009 A 
HETATM   12  C   UNL     1      -5.915   4.036 -29.823  1.00  0.00     0.016 A 
HETATM   13  C   UNL     1      -5.692   5.059 -28.894  1.00  0.00     0.030 A 
HETATM   14  C   UNL     1      -5.400   6.353 -29.324  1.00  0.00     0.034 A 
HETATM   15  C   UNL     1      -5.344   6.612 -30.701  1.00  0.00     0.030 A 
HETATM   16  C   UNL     1      -5.567   5.591 -31.631  1.00  0.00     0.016 A 
BRANCH  14  17
HETATM   17  N   UNL     1      -5.152   7.434 -28.454  1.00  0.00    -0.328 N 
HETATM   18  C   UNL     1      -6.062   8.087 -27.642  1.00  0.00     0.218 C 
HETATM   19  C   UNL     1      -5.423   9.184 -26.827  1.00  0.00     0.117 C 
HETATM   20  O   UNL     1      -7.256   7.837 -27.522  1.00  0.00    -0.274 OA
HETATM   21  H   UNL     1      -4.192   7.754 -28.409  1.00  0.00     0.169 HD
ENDBRANCH  14  17
ENDBRANCH   1  11
BRANCH   8  22
HETATM   22  C   UNL     1      -8.769   1.670 -33.897  1.00  0.00    -0.028 A 
HETATM   23  C   UNL     1      -9.784   2.418 -34.520  1.00  0.00     0.028 A 
HETATM   24  C   UNL     1     -11.122   2.048 -34.377  1.00  0.00     0.011 A 
HETATM   25 BR   UNL     1     -12.470   3.074 -35.216  1.00  0.00    -0.051 Br
HETATM   26  C   UNL     1     -11.474   0.937 -33.616  1.00  0.00     0.019 A 
HETATM   27  C   UNL     1     -10.479   0.190 -32.986  1.00  0.00     0.002 A 
HETATM   28  C   UNL     1      -9.138   0.558 -33.118  1.00  0.00     0.010 A 
ENDBRANCH   8  22
BRANCH   6  29
HETATM   29  C   UNL     1      -4.949  -2.160 -34.300  1.00  0.00     0.085 C 
BRANCH  29  30
HETATM   30  C   UNL     1      -6.148  -3.086 -34.504  1.00  0.00     0.034 C 
BRANCH  30  31
HETATM   31  C   UNL     1      -5.745  -4.503 -34.900  1.00  0.00     0.164 C 
BRANCH  31  32
HETATM   32  O   UNL     1      -6.832  -5.146 -35.558  1.00  0.00    -0.401 OA
HETATM   33  H   UNL     1      -6.713  -6.105 -35.454  1.00  0.00     0.209 HD
ENDBRANCH  31  32
ENDBRANCH  30  31
ENDBRANCH  29  30
ENDBRANCH   6  29
TORSDOF 7
ENDMDL
