MODEL 1
REMARK VINA RESULT:      -9.1      0.000      0.000
REMARK  6 active torsions:
REMARK  status: ('A' for Active; 'I' for Inactive)
REMARK    1  A    between atoms: O_2  and  C_3 
REMARK    2  A    between atoms: C_4  and  C_5 
REMARK    3  A    between atoms: C_5  and  N_6 
REMARK       I    between atoms: N_6  and  C_7 
REMARK    4  A    between atoms: C_7  and  C_8 
REMARK    5  A    between atoms: C_8  and  O_9 
REMARK    6  A    between atoms: N_10  and  C_11 
ROOT
HETATM    1  C   UNL     1      -6.611   2.296 -31.878  1.00  0.00     0.256 C 
HETATM    2  N   UNL     1      -6.092   3.461 -32.621  1.00  0.00    -0.254 N 
HETATM    3  C   UNL     1      -6.874   4.106 -33.568  1.00  0.00     0.330 C 
HETATM    4  O   UNL     1      -6.609   5.187 -34.097  1.00  0.00    -0.246 OA
HETATM    5  N   UNL     1      -8.051   3.529 -33.932  1.00  0.00    -0.308 N 
HETATM    6  C   UNL     1      -8.557   2.336 -33.451  1.00  0.00     0.048 A 
HETATM    7  C   UNL     1      -7.878   1.679 -32.438  1.00  0.00     0.034 A 
HETATM    8  C   UNL     1      -9.745   1.829 -33.985  1.00  0.00     0.030 A 
HETATM    9  C   UNL     1     -10.266   0.632 -33.499  1.00  0.00     0.002 A 
HETATM   10  C   UNL     1      -9.607  -0.042 -32.476  1.00  0.00     0.001 A 
HETATM   11  C   UNL     1      -8.428   0.481 -31.942  1.00  0.00     0.015 A 
HETATM   12  H   UNL     1      -8.552   4.037 -34.648  1.00  0.00     0.170 HD
ENDROOT
BRANCH   1  13
HETATM   13  C   UNL     1      -5.499   1.156 -31.820  1.00  0.00     0.279 C 
HETATM   14  N   UNL     1      -5.325   0.503 -33.034  1.00  0.00    -0.352 N 
HETATM   15  H   UNL     1      -6.014   0.697 -33.755  1.00  0.00     0.162 HD
HETATM   16  O   UNL     1      -4.842   0.892 -30.814  1.00  0.00    -0.268 OA
BRANCH  14  17
HETATM   17  C   UNL     1      -4.451  -0.641 -33.181  1.00  0.00     0.164 C 
BRANCH  17  18
HETATM   18  C   UNL     1      -5.113  -1.866 -33.776  1.00  0.00    -0.007 A 
HETATM   19  C   UNL     1      -4.415  -3.092 -33.748  1.00  0.00     0.076 A 
HETATM   20  C   UNL     1      -4.992  -4.239 -34.305  1.00  0.00     0.037 A 
HETATM   21  C   UNL     1      -6.253  -4.179 -34.897  1.00  0.00     0.003 A 
HETATM   22  C   UNL     1      -6.950  -2.976 -34.928  1.00  0.00     0.001 A 
HETATM   23  C   UNL     1      -6.387  -1.828 -34.370  1.00  0.00     0.011 A 
BRANCH  19  24
HETATM   24  O   UNL     1      -3.188  -3.063 -33.136  1.00  0.00    -0.355 OA
HETATM   25  C   UNL     1      -3.073  -3.719 -31.878  1.00  0.00     0.210 C 
ENDBRANCH  19  24
ENDBRANCH  17  18
ENDBRANCH  14  17
ENDBRANCH   1  13
BRANCH   1  26
HETATM   26  O   UNL     1      -6.970   2.765 -30.574  1.00  0.00    -0.359 OA
HETATM   27  H   UNL     1      -6.795   3.721 -30.628  1.00  0.00     0.213 HD
ENDBRANCH   1  26
BRANCH   2  28
HETATM   28  C   UNL     1      -4.743   3.932 -32.366  1.00  0.00     0.043 A 
HETATM   29  C   UNL     1      -3.670   3.648 -33.229  1.00  0.00     0.031 A 
HETATM   30  C   UNL     1      -2.383   4.147 -32.985  1.00  0.00     0.026 A 
HETATM   31  C   UNL     1      -2.146   4.945 -31.873  1.00  0.00     0.034 A 
HETATM   32 CL   UNL     1      -0.568   5.563 -31.579  1.00  0.00    -0.084 Cl
HETATM   33  C   UNL     1      -3.184   5.246 -31.004  1.00  0.00     0.026 A 
HETATM   34  C   UNL     1      -4.468   4.744 -31.250  1.00  0.00     0.031 A 
ENDBRANCH   2  28
TORSDOF 6
ENDMDL
MODEL 2
REMARK VINA RESULT:      -9.0      2.315      3.430
REMARK  6 active torsions:
REMARK  status: ('A' for Active; 'I' for Inactive)
REMARK    1  A    between atoms: O_2  and  C_3 
REMARK    2  A    between atoms: C_4  and  C_5 
REMARK    3  A    between atoms: C_5  and  N_6 
REMARK       I    between atoms: N_6  and  C_7 
REMARK    4  A    between atoms: C_7  and  C_8 
REMARK    5  A    between atoms: C_8  and  O_9 
REMARK    6  A    between atoms: N_10  and  C_11 
ROOT
HETATM    1  C   UNL     1      -9.619   1.486 -32.601  1.00  0.00     0.256 C 
HETATM    2  N   UNL     1      -8.943   2.738 -32.208  1.00  0.00    -0.254 N 
HETATM    3  C   UNL     1      -9.666   3.908 -32.025  1.00  0.00     0.330 C 
HETATM    4  O   UNL     1      -9.230   4.944 -31.519  1.00  0.00    -0.246 OA
HETATM    5  N   UNL     1     -10.973   3.923 -32.399  1.00  0.00    -0.308 N 
HETATM    6  C   UNL     1     -11.672   2.872 -32.962  1.00  0.00     0.048 A 
HETATM    7  C   UNL     1     -11.045   1.643 -33.092  1.00  0.00     0.034 A 
HETATM    8  C   UNL     1     -12.994   3.066 -33.371  1.00  0.00     0.030 A 
HETATM    9  C   UNL     1     -13.707   2.009 -33.930  1.00  0.00     0.002 A 
HETATM   10  C   UNL     1     -13.103   0.763 -34.065  1.00  0.00     0.001 A 
HETATM   11  C   UNL     1     -11.785   0.579 -33.640  1.00  0.00     0.015 A 
HETATM   12  H   UNL     1     -11.427   4.817 -32.266  1.00  0.00     0.170 HD
ENDROOT
BRANCH   1  13
HETATM   13  C   UNL     1      -8.784   0.762 -33.749  1.00  0.00     0.279 C 
HETATM   14  N   UNL     1      -8.201  -0.427 -33.330  1.00  0.00    -0.352 N 
HETATM   15  H   UNL     1      -8.226  -0.617 -32.333  1.00  0.00     0.162 HD
HETATM   16  O   UNL     1      -8.681   1.195 -34.896  1.00  0.00    -0.268 OA
BRANCH  14  17
HETATM   17  C   UNL     1      -7.306  -1.190 -34.173  1.00  0.00     0.164 C 
BRANCH  17  18
HETATM   18  C   UNL     1      -5.955  -1.482 -33.553  1.00  0.00    -0.007 A 
HETATM   19  C   UNL     1      -5.177  -2.530 -34.091  1.00  0.00     0.076 A 
HETATM   20  C   UNL     1      -3.932  -2.837 -33.530  1.00  0.00     0.037 A 
HETATM   21  C   UNL     1      -3.455  -2.118 -32.434  1.00  0.00     0.003 A 
HETATM   22  C   UNL     1      -4.213  -1.083 -31.898  1.00  0.00     0.001 A 
HETATM   23  C   UNL     1      -5.452  -0.765 -32.454  1.00  0.00     0.011 A 
BRANCH  19  24
HETATM   24  O   UNL     1      -5.718  -3.175 -35.174  1.00  0.00    -0.355 OA
HETATM   25  C   UNL     1      -6.055  -4.548 -35.010  1.00  0.00     0.210 C 
ENDBRANCH  19  24
ENDBRANCH  17  18
ENDBRANCH  14  17
ENDBRANCH   1  13
BRANCH   1  26
HETATM   26  O   UNL     1      -9.719   0.684 -31.420  1.00  0.00    -0.359 OA
HETATM   27  H   UNL     1      -9.219   1.196 -30.761  1.00  0.00     0.213 HD
ENDBRANCH   1  26
BRANCH   2  28
HETATM   28  C   UNL     1      -7.503   2.749 -32.020  1.00  0.00     0.043 A 
HETATM   29  C   UNL     1      -6.616   3.170 -33.026  1.00  0.00     0.031 A 
HETATM   30  C   UNL     1      -5.232   3.209 -32.810  1.00  0.00     0.026 A 
HETATM   31  C   UNL     1      -4.709   2.834 -31.579  1.00  0.00     0.034 A 
HETATM   32 CL   UNL     1      -3.011   2.891 -31.313  1.00  0.00    -0.084 Cl
HETATM   33  C   UNL     1      -5.558   2.417 -30.565  1.00  0.00     0.026 A 
HETATM   34  C   UNL     1      -6.941   2.376 -30.786  1.00  0.00     0.031 A 
ENDBRANCH   2  28
TORSDOF 6
ENDMDL
MODEL 3
REMARK VINA RESULT:      -8.9      2.252      5.938
REMARK  6 active torsions:
REMARK  status: ('A' for Active; 'I' for Inactive)
REMARK    1  A    between atoms: O_2  and  C_3 
REMARK    2  A    between atoms: C_4  and  C_5 
REMARK    3  A    between atoms: C_5  and  N_6 
REMARK       I    between atoms: N_6  and  C_7 
REMARK    4  A    between atoms: C_7  and  C_8 
REMARK    5  A    between atoms: C_8  and  O_9 
REMARK    6  A    between atoms: N_10  and  C_11 
ROOT
HETATM    1  C   UNL     1      -6.206  -0.141 -33.678  1.00  0.00     0.256 C 
HETATM    2  N   UNL     1      -5.078   0.527 -33.000  1.00  0.00    -0.254 N 
HETATM    3  C   UNL     1      -3.823  -0.065 -32.958  1.00  0.00     0.330 C 
HETATM    4  O   UNL     1      -2.785   0.487 -32.590  1.00  0.00    -0.246 OA
HETATM    5  N   UNL     1      -3.703  -1.351 -33.386  1.00  0.00    -0.308 N 
HETATM    6  C   UNL     1      -4.725  -2.151 -33.861  1.00  0.00     0.048 A 
HETATM    7  C   UNL     1      -5.988  -1.603 -34.018  1.00  0.00     0.034 A 
HETATM    8  C   UNL     1      -4.460  -3.483 -34.187  1.00  0.00     0.030 A 
HETATM    9  C   UNL     1      -5.483  -4.293 -34.676  1.00  0.00     0.002 A 
HETATM   10  C   UNL     1      -6.758  -3.764 -34.850  1.00  0.00     0.001 A 
HETATM   11  C   UNL     1      -7.007  -2.427 -34.533  1.00  0.00     0.015 A 
HETATM   12  H   UNL     1      -2.769  -1.726 -33.297  1.00  0.00     0.170 HD
ENDROOT
BRANCH   1  13
HETATM   13  C   UNL     1      -7.513  -0.042 -32.771  1.00  0.00     0.279 C 
HETATM   14  N   UNL     1      -8.617   0.446 -33.460  1.00  0.00    -0.352 N 
HETATM   15  H   UNL     1      -8.441   0.831 -34.383  1.00  0.00     0.162 HD
HETATM   16  O   UNL     1      -7.553  -0.381 -31.589  1.00  0.00    -0.268 OA
BRANCH  14  17
HETATM   17  C   UNL     1      -9.876   0.727 -32.805  1.00  0.00     0.164 C 
BRANCH  17  18
HETATM   18  C   UNL     1     -10.907   1.399 -33.687  1.00  0.00    -0.007 A 
HETATM   19  C   UNL     1     -10.577   2.627 -34.298  1.00  0.00     0.076 A 
HETATM   20  C   UNL     1     -11.513   3.283 -35.106  1.00  0.00     0.037 A 
HETATM   21  C   UNL     1     -12.779   2.733 -35.307  1.00  0.00     0.003 A 
HETATM   22  C   UNL     1     -13.114   1.523 -34.711  1.00  0.00     0.001 A 
HETATM   23  C   UNL     1     -12.186   0.859 -33.909  1.00  0.00     0.011 A 
BRANCH  19  24
HETATM   24  O   UNL     1      -9.307   3.088 -34.057  1.00  0.00    -0.355 OA
HETATM   25  C   UNL     1      -9.119   4.499 -34.048  1.00  0.00     0.210 C 
ENDBRANCH  19  24
ENDBRANCH  17  18
ENDBRANCH  14  17
ENDBRANCH   1  13
BRANCH   1  26
HETATM   26  O   UNL     1      -6.374   0.513 -34.940  1.00  0.00    -0.359 OA
HETATM   27  H   UNL     1      -5.686   1.201 -34.925  1.00  0.00     0.213 HD
ENDBRANCH   1  26
BRANCH   2  28
HETATM   28  C   UNL     1      -5.284   1.813 -32.360  1.00  0.00     0.043 A 
HETATM   29  C   UNL     1      -5.238   1.975 -30.964  1.00  0.00     0.031 A 
HETATM   30  C   UNL     1      -5.401   3.233 -30.368  1.00  0.00     0.026 A 
HETATM   31  C   UNL     1      -5.607   4.356 -31.160  1.00  0.00     0.034 A 
HETATM   32 CL   UNL     1      -5.797   5.901 -30.428  1.00  0.00    -0.084 Cl
HETATM   33  C   UNL     1      -5.654   4.230 -32.540  1.00  0.00     0.026 A 
HETATM   34  C   UNL     1      -5.494   2.970 -33.131  1.00  0.00     0.031 A 
ENDBRANCH   2  28
TORSDOF 6
ENDMDL
MODEL 4
REMARK VINA RESULT:      -8.6      2.189      3.480
REMARK  6 active torsions:
REMARK  status: ('A' for Active; 'I' for Inactive)
REMARK    1  A    between atoms: O_2  and  C_3 
REMARK    2  A    between atoms: C_4  and  C_5 
REMARK    3  A    between atoms: C_5  and  N_6 
REMARK       I    between atoms: N_6  and  C_7 
REMARK    4  A    between atoms: C_7  and  C_8 
REMARK    5  A    between atoms: C_8  and  O_9 
REMARK    6  A    between atoms: N_10  and  C_11 
ROOT
HETATM    1  C   UNL     1      -9.545   2.238 -33.079  1.00  0.00     0.256 C 
HETATM    2  N   UNL     1      -8.738   3.410 -33.469  1.00  0.00    -0.254 N 
HETATM    3  C   UNL     1      -9.295   4.438 -34.218  1.00  0.00     0.330 C 
HETATM    4  O   UNL     1      -8.770   5.532 -34.429  1.00  0.00    -0.246 OA
HETATM    5  N   UNL     1     -10.536   4.253 -34.742  1.00  0.00    -0.308 N 
HETATM    6  C   UNL     1     -11.316   3.120 -34.612  1.00  0.00     0.048 A 
HETATM    7  C   UNL     1     -10.868   2.086 -33.804  1.00  0.00     0.034 A 
HETATM    8  C   UNL     1     -12.540   3.047 -35.281  1.00  0.00     0.030 A 
HETATM    9  C   UNL     1     -13.336   1.912 -35.146  1.00  0.00     0.002 A 
HETATM   10  C   UNL     1     -12.912   0.864 -34.334  1.00  0.00     0.001 A 
HETATM   11  C   UNL     1     -11.692   0.954 -33.661  1.00  0.00     0.015 A 
HETATM   12  H   UNL     1     -10.864   5.029 -35.301  1.00  0.00     0.170 HD
ENDROOT
BRANCH   1  13
HETATM   13  C   UNL     1      -8.704   0.905 -33.315  1.00  0.00     0.279 C 
HETATM   14  N   UNL     1      -8.203   0.361 -32.139  1.00  0.00    -0.352 N 
HETATM   15  H   UNL     1      -8.278   0.937 -31.306  1.00  0.00     0.162 HD
HETATM   16  O   UNL     1      -8.532   0.392 -34.420  1.00  0.00    -0.268 OA
BRANCH  14  17
HETATM   17  C   UNL     1      -7.316  -0.782 -32.129  1.00  0.00     0.164 C 
BRANCH  17  18
HETATM   18  C   UNL     1      -5.843  -0.435 -32.072  1.00  0.00    -0.007 A 
HETATM   19  C   UNL     1      -5.019  -0.805 -33.156  1.00  0.00     0.076 A 
HETATM   20  C   UNL     1      -3.650  -0.515 -33.127  1.00  0.00     0.037 A 
HETATM   21  C   UNL     1      -3.090   0.134 -32.026  1.00  0.00     0.003 A 
HETATM   22  C   UNL     1      -3.894   0.505 -30.954  1.00  0.00     0.001 A 
HETATM   23  C   UNL     1      -5.260   0.225 -30.976  1.00  0.00     0.011 A 
BRANCH  19  24
HETATM   24  O   UNL     1      -5.655  -1.428 -34.200  1.00  0.00    -0.355 OA
HETATM   25  C   UNL     1      -5.094  -2.650 -34.666  1.00  0.00     0.210 C 
ENDBRANCH  19  24
ENDBRANCH  17  18
ENDBRANCH  14  17
ENDBRANCH   1  13
BRANCH   1  26
HETATM   26  O   UNL     1      -9.894   2.417 -31.702  1.00  0.00    -0.359 OA
HETATM   27  H   UNL     1     -10.011   1.505 -31.384  1.00  0.00     0.213 HD
ENDBRANCH   1  26
BRANCH   2  28
HETATM   28  C   UNL     1      -7.343   3.486 -33.075  1.00  0.00     0.043 A 
HETATM   29  C   UNL     1      -6.294   3.170 -33.956  1.00  0.00     0.031 A 
HETATM   30  C   UNL     1      -4.952   3.288 -33.567  1.00  0.00     0.026 A 
HETATM   31  C   UNL     1      -4.635   3.732 -32.290  1.00  0.00     0.034 A 
HETATM   32 CL   UNL     1      -2.988   3.885 -31.817  1.00  0.00    -0.084 Cl
HETATM   33  C   UNL     1      -5.647   4.055 -31.398  1.00  0.00     0.026 A 
HETATM   34  C   UNL     1      -6.986   3.933 -31.790  1.00  0.00     0.031 A 
ENDBRANCH   2  28
TORSDOF 6
ENDMDL
MODEL 5
REMARK VINA RESULT:      -8.5      2.556      6.257
REMARK  6 active torsions:
REMARK  status: ('A' for Active; 'I' for Inactive)
REMARK    1  A    between atoms: O_2  and  C_3 
REMARK    2  A    between atoms: C_4  and  C_5 
REMARK    3  A    between atoms: C_5  and  N_6 
REMARK       I    between atoms: N_6  and  C_7 
REMARK    4  A    between atoms: C_7  and  C_8 
REMARK    5  A    between atoms: C_8  and  O_9 
REMARK    6  A    between atoms: N_10  and  C_11 
ROOT
HETATM    1  C   UNL     1      -6.312   0.431 -33.589  1.00  0.00     0.256 C 
HETATM    2  N   UNL     1      -5.246   1.100 -32.816  1.00  0.00    -0.254 N 
HETATM    3  C   UNL     1      -3.991   0.521 -32.690  1.00  0.00     0.330 C 
HETATM    4  O   UNL     1      -2.991   1.079 -32.235  1.00  0.00    -0.246 OA
HETATM    5  N   UNL     1      -3.824  -0.755 -33.128  1.00  0.00    -0.308 N 
HETATM    6  C   UNL     1      -4.796  -1.558 -33.692  1.00  0.00     0.048 A 
HETATM    7  C   UNL     1      -6.051  -1.022 -33.935  1.00  0.00     0.034 A 
HETATM    8  C   UNL     1      -4.491  -2.882 -34.018  1.00  0.00     0.030 A 
HETATM    9  C   UNL     1      -5.464  -3.694 -34.596  1.00  0.00     0.002 A 
HETATM   10  C   UNL     1      -6.728  -3.177 -34.858  1.00  0.00     0.001 A 
HETATM   11  C   UNL     1      -7.017  -1.849 -34.539  1.00  0.00     0.015 A 
HETATM   12  H   UNL     1      -2.894  -1.122 -32.974  1.00  0.00     0.170 HD
ENDROOT
BRANCH   1  13
HETATM   13  C   UNL     1      -7.684   0.500 -32.782  1.00  0.00     0.279 C 
HETATM   14  N   UNL     1      -8.670   1.222 -33.445  1.00  0.00    -0.352 N 
HETATM   15  H   UNL     1      -8.373   1.750 -34.260  1.00  0.00     0.162 HD
HETATM   16  O   UNL     1      -7.867  -0.045 -31.695  1.00  0.00    -0.268 OA
BRANCH  14  17
HETATM   17  C   UNL     1      -9.955   1.510 -32.846  1.00  0.00     0.164 C 
BRANCH  17  18
HETATM   18  C   UNL     1     -10.046   2.865 -32.175  1.00  0.00    -0.007 A 
HETATM   19  C   UNL     1     -10.539   3.956 -32.922  1.00  0.00     0.076 A 
HETATM   20  C   UNL     1     -10.620   5.226 -32.337  1.00  0.00     0.037 A 
HETATM   21  C   UNL     1     -10.209   5.423 -31.019  1.00  0.00     0.003 A 
HETATM   22  C   UNL     1      -9.723   4.354 -30.274  1.00  0.00     0.001 A 
HETATM   23  C   UNL     1      -9.644   3.084 -30.846  1.00  0.00     0.011 A 
BRANCH  19  24
HETATM   24  O   UNL     1     -10.932   3.670 -34.205  1.00  0.00    -0.355 OA
HETATM   25  C   UNL     1     -10.491   4.552 -35.231  1.00  0.00     0.210 C 
ENDBRANCH  19  24
ENDBRANCH  17  18
ENDBRANCH  14  17
ENDBRANCH   1  13
BRANCH   1  26
HETATM   26  O   UNL     1      -6.393   1.105 -34.849  1.00  0.00    -0.359 OA
HETATM   27  H   UNL     1      -5.732   1.814 -34.762  1.00  0.00     0.213 HD
ENDBRANCH   1  26
BRANCH   2  28
HETATM   28  C   UNL     1      -5.516   2.372 -32.173  1.00  0.00     0.043 A 
HETATM   29  C   UNL     1      -5.759   3.549 -32.904  1.00  0.00     0.031 A 
HETATM   30  C   UNL     1      -6.056   4.760 -32.262  1.00  0.00     0.026 A 
HETATM   31  C   UNL     1      -6.123   4.814 -30.876  1.00  0.00     0.034 A 
HETATM   32 CL   UNL     1      -6.496   6.298 -30.091  1.00  0.00    -0.084 Cl
HETATM   33  C   UNL     1      -5.891   3.670 -30.126  1.00  0.00     0.026 A 
HETATM   34  C   UNL     1      -5.592   2.463 -30.771  1.00  0.00     0.031 A 
ENDBRANCH   2  28
TORSDOF 6
ENDMDL
MODEL 6
REMARK VINA RESULT:      -8.4      2.956      6.555
REMARK  6 active torsions:
REMARK  status: ('A' for Active; 'I' for Inactive)
REMARK    1  A    between atoms: O_2  and  C_3 
REMARK    2  A    between atoms: C_4  and  C_5 
REMARK    3  A    between atoms: C_5  and  N_6 
REMARK       I    between atoms: N_6  and  C_7 
REMARK    4  A    between atoms: C_7  and  C_8 
REMARK    5  A    between atoms: C_8  and  O_9 
REMARK    6  A    between atoms: N_10  and  C_11 
ROOT
HETATM    1  C   UNL     1      -6.861   0.635 -33.813  1.00  0.00     0.256 C 
HETATM    2  N   UNL     1      -6.072   1.592 -33.014  1.00  0.00    -0.254 N 
HETATM    3  C   UNL     1      -4.741   1.337 -32.713  1.00  0.00     0.330 C 
HETATM    4  O   UNL     1      -3.953   2.148 -32.223  1.00  0.00    -0.246 OA
HETATM    5  N   UNL     1      -4.239   0.108 -33.003  1.00  0.00    -0.308 N 
HETATM    6  C   UNL     1      -4.933  -0.943 -33.574  1.00  0.00     0.048 A 
HETATM    7  C   UNL     1      -6.240  -0.737 -33.987  1.00  0.00     0.034 A 
HETATM    8  C   UNL     1      -4.300  -2.178 -33.736  1.00  0.00     0.030 A 
HETATM    9  C   UNL     1      -4.990  -3.238 -34.319  1.00  0.00     0.002 A 
HETATM   10  C   UNL     1      -6.300  -3.054 -34.750  1.00  0.00     0.001 A 
HETATM   11  C   UNL     1      -6.917  -1.812 -34.594  1.00  0.00     0.015 A 
HETATM   12  H   UNL     1      -3.274  -0.017 -32.727  1.00  0.00     0.170 HD
ENDROOT
BRANCH   1  13
HETATM   13  C   UNL     1      -8.298   0.438 -33.151  1.00  0.00     0.279 C 
HETATM   14  N   UNL     1      -9.341   0.780 -34.003  1.00  0.00    -0.352 N 
HETATM   15  H   UNL     1      -9.086   1.259 -34.861  1.00  0.00     0.162 HD
HETATM   16  O   UNL     1      -8.473   0.008 -32.012  1.00  0.00    -0.268 OA
BRANCH  14  17
HETATM   17  C   UNL     1     -10.722   0.789 -33.571  1.00  0.00     0.164 C 
BRANCH  17  18
HETATM   18  C   UNL     1     -11.329   2.170 -33.435  1.00  0.00    -0.007 A 
HETATM   19  C   UNL     1     -12.562   2.432 -34.069  1.00  0.00     0.076 A 
HETATM   20  C   UNL     1     -13.141   3.703 -33.977  1.00  0.00     0.037 A 
HETATM   21  C   UNL     1     -12.503   4.720 -33.267  1.00  0.00     0.003 A 
HETATM   22  C   UNL     1     -11.289   4.472 -32.637  1.00  0.00     0.001 A 
HETATM   23  C   UNL     1     -10.706   3.207 -32.718  1.00  0.00     0.011 A 
BRANCH  19  24
HETATM   24  O   UNL     1     -13.125   1.372 -34.734  1.00  0.00    -0.355 OA
HETATM   25  C   UNL     1     -14.408   0.939 -34.297  1.00  0.00     0.210 C 
ENDBRANCH  19  24
ENDBRANCH  17  18
ENDBRANCH  14  17
ENDBRANCH   1  13
BRANCH   1  26
HETATM   26  O   UNL     1      -6.947   1.174 -35.136  1.00  0.00    -0.359 OA
HETATM   27  H   UNL     1      -7.671   1.821 -35.064  1.00  0.00     0.213 HD
ENDBRANCH   1  26
BRANCH   2  28
HETATM   28  C   UNL     1      -6.696   2.810 -32.529  1.00  0.00     0.043 A 
HETATM   29  C   UNL     1      -7.062   2.983 -31.183  1.00  0.00     0.031 A 
HETATM   30  C   UNL     1      -7.628   4.182 -30.728  1.00  0.00     0.026 A 
HETATM   31  C   UNL     1      -7.831   5.235 -31.612  1.00  0.00     0.034 A 
HETATM   32 CL   UNL     1      -8.517   6.709 -31.050  1.00  0.00    -0.084 Cl
HETATM   33  C   UNL     1      -7.477   5.096 -32.946  1.00  0.00     0.026 A 
HETATM   34  C   UNL     1      -6.915   3.895 -33.397  1.00  0.00     0.031 A 
ENDBRANCH   2  28
TORSDOF 6
ENDMDL
MODEL 7
REMARK VINA RESULT:      -8.4      2.875      5.946
REMARK  6 active torsions:
REMARK  status: ('A' for Active; 'I' for Inactive)
REMARK    1  A    between atoms: O_2  and  C_3 
REMARK    2  A    between atoms: C_4  and  C_5 
REMARK    3  A    between atoms: C_5  and  N_6 
REMARK       I    between atoms: N_6  and  C_7 
REMARK    4  A    between atoms: C_7  and  C_8 
REMARK    5  A    between atoms: C_8  and  O_9 
REMARK    6  A    between atoms: N_10  and  C_11 
ROOT
HETATM    1  C   UNL     1      -7.238   1.115 -31.824  1.00  0.00     0.256 C 
HETATM    2  N   UNL     1      -8.199   1.981 -32.533  1.00  0.00    -0.254 N 
HETATM    3  C   UNL     1      -8.636   1.659 -33.810  1.00  0.00     0.330 C 
HETATM    4  O   UNL     1      -9.569   2.203 -34.404  1.00  0.00    -0.246 OA
HETATM    5  N   UNL     1      -8.018   0.639 -34.464  1.00  0.00    -0.308 N 
HETATM    6  C   UNL     1      -6.971  -0.123 -33.982  1.00  0.00     0.048 A 
HETATM    7  C   UNL     1      -6.539   0.078 -32.681  1.00  0.00     0.034 A 
HETATM    8  C   UNL     1      -6.384  -1.085 -34.808  1.00  0.00     0.030 A 
HETATM    9  C   UNL     1      -5.334  -1.864 -34.325  1.00  0.00     0.002 A 
HETATM   10  C   UNL     1      -4.888  -1.687 -33.020  1.00  0.00     0.001 A 
HETATM   11  C   UNL     1      -5.492  -0.731 -32.200  1.00  0.00     0.015 A 
HETATM   12  H   UNL     1      -8.367   0.482 -35.401  1.00  0.00     0.170 HD
ENDROOT
BRANCH   1  13
HETATM   13  C   UNL     1      -6.116   2.012 -31.133  1.00  0.00     0.279 C 
HETATM   14  N   UNL     1      -5.257   2.610 -32.048  1.00  0.00    -0.352 N 
HETATM   15  H   UNL     1      -5.328   2.291 -33.010  1.00  0.00     0.162 HD
HETATM   16  O   UNL     1      -6.026   2.180 -29.918  1.00  0.00    -0.268 OA
BRANCH  14  17
HETATM   17  C   UNL     1      -4.098   3.372 -31.639  1.00  0.00     0.164 C 
BRANCH  17  18
HETATM   18  C   UNL     1      -3.439   4.160 -32.752  1.00  0.00    -0.007 A 
HETATM   19  C   UNL     1      -2.094   4.556 -32.595  1.00  0.00     0.076 A 
HETATM   20  C   UNL     1      -1.460   5.300 -33.597  1.00  0.00     0.037 A 
HETATM   21  C   UNL     1      -2.153   5.661 -34.752  1.00  0.00     0.003 A 
HETATM   22  C   UNL     1      -3.478   5.274 -34.918  1.00  0.00     0.001 A 
HETATM   23  C   UNL     1      -4.117   4.527 -33.927  1.00  0.00     0.011 A 
BRANCH  19  24
HETATM   24  O   UNL     1      -1.486   4.148 -31.434  1.00  0.00    -0.355 OA
HETATM   25  C   UNL     1      -0.687   5.105 -30.748  1.00  0.00     0.210 C 
ENDBRANCH  19  24
ENDBRANCH  17  18
ENDBRANCH  14  17
ENDBRANCH   1  13
BRANCH   1  26
HETATM   26  O   UNL     1      -7.990   0.361 -30.867  1.00  0.00    -0.359 OA
HETATM   27  H   UNL     1      -7.561   0.587 -30.022  1.00  0.00     0.213 HD
ENDBRANCH   1  26
BRANCH   2  28
HETATM   28  C   UNL     1      -8.687   3.189 -31.893  1.00  0.00     0.043 A 
HETATM   29  C   UNL     1      -8.214   4.467 -32.238  1.00  0.00     0.031 A 
HETATM   30  C   UNL     1      -8.727   5.624 -31.634  1.00  0.00     0.026 A 
HETATM   31  C   UNL     1      -9.730   5.523 -30.678  1.00  0.00     0.034 A 
HETATM   32 CL   UNL     1     -10.364   6.944 -29.945  1.00  0.00    -0.084 Cl
HETATM   33  C   UNL     1     -10.221   4.277 -30.319  1.00  0.00     0.026 A 
HETATM   34  C   UNL     1      -9.703   3.123 -30.922  1.00  0.00     0.031 A 
ENDBRANCH   2  28
TORSDOF 6
ENDMDL
MODEL 8
REMARK VINA RESULT:      -8.4      2.919      6.538
REMARK  6 active torsions:
REMARK  status: ('A' for Active; 'I' for Inactive)
REMARK    1  A    between atoms: O_2  and  C_3 
REMARK    2  A    between atoms: C_4  and  C_5 
REMARK    3  A    between atoms: C_5  and  N_6 
REMARK       I    between atoms: N_6  and  C_7 
REMARK    4  A    between atoms: C_7  and  C_8 
REMARK    5  A    between atoms: C_8  and  O_9 
REMARK    6  A    between atoms: N_10  and  C_11 
ROOT
HETATM    1  C   UNL     1      -7.281   2.844 -32.482  1.00  0.00     0.256 C 
HETATM    2  N   UNL     1      -7.811   1.467 -32.486  1.00  0.00    -0.254 N 
HETATM    3  C   UNL     1      -9.085   1.194 -32.006  1.00  0.00     0.330 C 
HETATM    4  O   UNL     1      -9.685   0.127 -32.140  1.00  0.00    -0.246 OA
HETATM    5  N   UNL     1      -9.754   2.186 -31.360  1.00  0.00    -0.308 N 
HETATM    6  C   UNL     1      -9.287   3.463 -31.119  1.00  0.00     0.048 A 
HETATM    7  C   UNL     1      -8.061   3.840 -31.646  1.00  0.00     0.034 A 
HETATM    8  C   UNL     1     -10.062   4.349 -30.365  1.00  0.00     0.030 A 
HETATM    9  C   UNL     1      -9.601   5.642 -30.127  1.00  0.00     0.002 A 
HETATM   10  C   UNL     1      -8.378   6.046 -30.652  1.00  0.00     0.001 A 
HETATM   11  C   UNL     1      -7.618   5.155 -31.414  1.00  0.00     0.015 A 
HETATM   12  H   UNL     1     -10.661   1.907 -31.010  1.00  0.00     0.170 HD
ENDROOT
BRANCH   1  13
HETATM   13  C   UNL     1      -5.777   2.839 -31.955  1.00  0.00     0.279 C 
HETATM   14  N   UNL     1      -4.860   3.236 -32.921  1.00  0.00    -0.352 N 
HETATM   15  H   UNL     1      -5.211   3.322 -33.870  1.00  0.00     0.162 HD
HETATM   16  O   UNL     1      -5.455   2.537 -30.806  1.00  0.00    -0.268 OA
BRANCH  14  17
HETATM   17  C   UNL     1      -3.432   3.195 -32.697  1.00  0.00     0.164 C 
BRANCH  17  18
HETATM   18  C   UNL     1      -2.708   4.486 -33.019  1.00  0.00    -0.007 A 
HETATM   19  C   UNL     1      -2.736   5.531 -32.072  1.00  0.00     0.076 A 
HETATM   20  C   UNL     1      -2.092   6.743 -32.347  1.00  0.00     0.037 A 
HETATM   21  C   UNL     1      -1.425   6.930 -33.557  1.00  0.00     0.003 A 
HETATM   22  C   UNL     1      -1.389   5.905 -34.497  1.00  0.00     0.001 A 
HETATM   23  C   UNL     1      -2.024   4.691 -34.230  1.00  0.00     0.011 A 
BRANCH  19  24
HETATM   24  O   UNL     1      -3.403   5.258 -30.905  1.00  0.00    -0.355 OA
HETATM   25  C   UNL     1      -4.314   6.244 -30.431  1.00  0.00     0.210 C 
ENDBRANCH  19  24
ENDBRANCH  17  18
ENDBRANCH  14  17
ENDBRANCH   1  13
BRANCH   1  26
HETATM   26  O   UNL     1      -7.380   3.328 -33.825  1.00  0.00    -0.359 OA
HETATM   27  H   UNL     1      -6.781   2.739 -34.316  1.00  0.00     0.213 HD
ENDBRANCH   1  26
BRANCH   2  28
HETATM   28  C   UNL     1      -6.989   0.381 -32.989  1.00  0.00     0.043 A 
HETATM   29  C   UNL     1      -6.982   0.008 -34.344  1.00  0.00     0.031 A 
HETATM   30  C   UNL     1      -6.151  -1.018 -34.816  1.00  0.00     0.026 A 
HETATM   31  C   UNL     1      -5.304  -1.685 -33.939  1.00  0.00     0.034 A 
HETATM   32 CL   UNL     1      -4.278  -2.937 -34.521  1.00  0.00    -0.084 Cl
HETATM   33  C   UNL     1      -5.285  -1.338 -32.597  1.00  0.00     0.026 A 
HETATM   34  C   UNL     1      -6.120  -0.315 -32.129  1.00  0.00     0.031 A 
ENDBRANCH   2  28
TORSDOF 6
ENDMDL
MODEL 9
REMARK VINA RESULT:      -8.2      2.928      6.890
REMARK  6 active torsions:
REMARK  status: ('A' for Active; 'I' for Inactive)
REMARK    1  A    between atoms: O_2  and  C_3 
REMARK    2  A    between atoms: C_4  and  C_5 
REMARK    3  A    between atoms: C_5  and  N_6 
REMARK       I    between atoms: N_6  and  C_7 
REMARK    4  A    between atoms: C_7  and  C_8 
REMARK    5  A    between atoms: C_8  and  O_9 
REMARK    6  A    between atoms: N_10  and  C_11 
ROOT
HETATM    1  C   UNL     1      -7.605   2.662 -31.941  1.00  0.00     0.256 C 
HETATM    2  N   UNL     1      -6.753   1.566 -31.438  1.00  0.00    -0.254 N 
HETATM    3  C   UNL     1      -6.352   1.530 -30.110  1.00  0.00     0.330 C 
HETATM    4  O   UNL     1      -5.808   0.575 -29.554  1.00  0.00    -0.246 OA
HETATM    5  N   UNL     1      -6.599   2.619 -29.334  1.00  0.00    -0.308 N 
HETATM    6  C   UNL     1      -7.215   3.787 -29.739  1.00  0.00     0.048 A 
HETATM    7  C   UNL     1      -7.726   3.865 -31.026  1.00  0.00     0.034 A 
HETATM    8  C   UNL     1      -7.324   4.854 -28.844  1.00  0.00     0.030 A 
HETATM    9  C   UNL     1      -7.954   6.031 -29.243  1.00  0.00     0.002 A 
HETATM   10  C   UNL     1      -8.481   6.130 -30.526  1.00  0.00     0.001 A 
HETATM   11  C   UNL     1      -8.377   5.053 -31.408  1.00  0.00     0.015 A 
HETATM   12  H   UNL     1      -6.251   2.535 -28.388  1.00  0.00     0.170 HD
ENDROOT
BRANCH   1  13
HETATM   13  C   UNL     1      -7.050   3.172 -33.345  1.00  0.00     0.279 C 
HETATM   14  N   UNL     1      -5.860   3.880 -33.236  1.00  0.00    -0.352 N 
HETATM   15  H   UNL     1      -5.568   4.133 -32.296  1.00  0.00     0.162 HD
HETATM   16  O   UNL     1      -7.602   2.947 -34.421  1.00  0.00    -0.268 OA
BRANCH  14  17
HETATM   17  C   UNL     1      -5.240   4.533 -34.368  1.00  0.00     0.164 C 
BRANCH  17  18
HETATM   18  C   UNL     1      -3.932   5.229 -34.054  1.00  0.00    -0.007 A 
HETATM   19  C   UNL     1      -3.920   6.225 -33.055  1.00  0.00     0.076 A 
HETATM   20  C   UNL     1      -2.731   6.900 -32.753  1.00  0.00     0.037 A 
HETATM   21  C   UNL     1      -1.554   6.599 -33.438  1.00  0.00     0.003 A 
HETATM   22  C   UNL     1      -1.555   5.617 -34.422  1.00  0.00     0.001 A 
HETATM   23  C   UNL     1      -2.733   4.935 -34.728  1.00  0.00     0.011 A 
BRANCH  19  24
HETATM   24  O   UNL     1      -5.117   6.448 -32.424  1.00  0.00    -0.355 OA
HETATM   25  C   UNL     1      -5.118   7.372 -31.341  1.00  0.00     0.210 C 
ENDBRANCH  19  24
ENDBRANCH  17  18
ENDBRANCH  14  17
ENDBRANCH   1  13
BRANCH   1  26
HETATM   26  O   UNL     1      -8.933   2.137 -32.043  1.00  0.00    -0.359 OA
HETATM   27  H   UNL     1      -8.858   1.263 -31.624  1.00  0.00     0.213 HD
ENDBRANCH   1  26
BRANCH   2  28
HETATM   28  C   UNL     1      -6.321   0.518 -32.345  1.00  0.00     0.043 A 
HETATM   29  C   UNL     1      -4.973   0.339 -32.701  1.00  0.00     0.031 A 
HETATM   30  C   UNL     1      -4.572  -0.704 -33.548  1.00  0.00     0.026 A 
HETATM   31  C   UNL     1      -5.514  -1.593 -34.049  1.00  0.00     0.034 A 
HETATM   32 CL   UNL     1      -5.020  -2.878 -35.080  1.00  0.00    -0.084 Cl
HETATM   33  C   UNL     1      -6.852  -1.446 -33.714  1.00  0.00     0.026 A 
HETATM   34  C   UNL     1      -7.248  -0.400 -32.870  1.00  0.00     0.031 A 
ENDBRANCH   2  28
TORSDOF 6
ENDMDL
MODEL 10
REMARK VINA RESULT:      -8.2     15.271     17.590
REMARK  6 active torsions:
REMARK  status: ('A' for Active; 'I' for Inactive)
REMARK    1  A    between atoms: O_2  and  C_3 
REMARK    2  A    between atoms: C_4  and  C_5 
REMARK    3  A    between atoms: C_5  and  N_6 
REMARK       I    between atoms: N_6  and  C_7 
REMARK    4  A    between atoms: C_7  and  C_8 
REMARK    5  A    between atoms: C_8  and  O_9 
REMARK    6  A    between atoms: N_10  and  C_11 
ROOT
HETATM    1  C   UNL     1      -6.866 -13.596 -40.584  1.00  0.00     0.256 C 
HETATM    2  N   UNL     1      -6.324 -14.887 -41.049  1.00  0.00    -0.254 N 
HETATM    3  C   UNL     1      -7.155 -15.844 -41.615  1.00  0.00     0.330 C 
HETATM    4  O   UNL     1      -6.778 -16.861 -42.200  1.00  0.00    -0.246 OA
HETATM    5  N   UNL     1      -8.499 -15.645 -41.557  1.00  0.00    -0.308 N 
HETATM    6  C   UNL     1      -9.139 -14.569 -40.974  1.00  0.00     0.048 A 
HETATM    7  C   UNL     1      -8.377 -13.528 -40.468  1.00  0.00     0.034 A 
HETATM    8  C   UNL     1     -10.536 -14.546 -40.920  1.00  0.00     0.030 A 
HETATM    9  C   UNL     1     -11.188 -13.459 -40.343  1.00  0.00     0.002 A 
HETATM   10  C   UNL     1     -10.445 -12.398 -39.836  1.00  0.00     0.001 A 
HETATM   11  C   UNL     1      -9.051 -12.427 -39.906  1.00  0.00     0.015 A 
HETATM   12  H   UNL     1      -9.042 -16.397 -41.960  1.00  0.00     0.170 HD
ENDROOT
BRANCH   1  13
HETATM   13  C   UNL     1      -6.252 -13.237 -39.159  1.00  0.00     0.279 C 
HETATM   14  N   UNL     1      -5.142 -12.404 -39.238  1.00  0.00    -0.352 N 
HETATM   15  H   UNL     1      -4.753 -12.255 -40.165  1.00  0.00     0.162 HD
HETATM   16  O   UNL     1      -6.719 -13.634 -38.092  1.00  0.00    -0.268 OA
BRANCH  14  17
HETATM   17  C   UNL     1      -4.358 -12.045 -38.077  1.00  0.00     0.164 C 
BRANCH  17  18
HETATM   18  C   UNL     1      -3.060 -12.813 -37.933  1.00  0.00    -0.007 A 
HETATM   19  C   UNL     1      -2.980 -13.826 -36.954  1.00  0.00     0.076 A 
HETATM   20  C   UNL     1      -1.790 -14.543 -36.783  1.00  0.00     0.037 A 
HETATM   21  C   UNL     1      -0.675 -14.257 -37.571  1.00  0.00     0.003 A 
HETATM   22  C   UNL     1      -0.744 -13.262 -38.539  1.00  0.00     0.001 A 
HETATM   23  C   UNL     1      -1.927 -12.545 -38.721  1.00  0.00     0.011 A 
BRANCH  19  24
HETATM   24  O   UNL     1      -4.126 -14.049 -36.234  1.00  0.00    -0.355 OA
HETATM   25  C   UNL     1      -4.490 -15.404 -35.995  1.00  0.00     0.210 C 
ENDBRANCH  19  24
ENDBRANCH  17  18
ENDBRANCH  14  17
ENDBRANCH   1  13
BRANCH   1  26
HETATM   26  O   UNL     1      -6.526 -12.624 -41.579  1.00  0.00    -0.359 OA
HETATM   27  H   UNL     1      -5.886 -12.053 -41.118  1.00  0.00     0.213 HD
ENDBRANCH   1  26
BRANCH   2  28
HETATM   28  C   UNL     1      -4.907 -15.165 -40.904  1.00  0.00     0.043 A 
HETATM   29  C   UNL     1      -4.403 -15.995 -39.887  1.00  0.00     0.031 A 
HETATM   30  C   UNL     1      -3.034 -16.281 -39.789  1.00  0.00     0.026 A 
HETATM   31  C   UNL     1      -2.143 -15.748 -40.712  1.00  0.00     0.034 A 
HETATM   32 CL   UNL     1      -0.466 -16.108 -40.596  1.00  0.00    -0.084 Cl
HETATM   33  C   UNL     1      -2.610 -14.929 -41.730  1.00  0.00     0.026 A 
HETATM   34  C   UNL     1      -3.978 -14.642 -41.822  1.00  0.00     0.031 A 
ENDBRANCH   2  28
TORSDOF 6
ENDMDL
