MODEL 1
REMARK VINA RESULT:      -9.7      0.000      0.000
REMARK  7 active torsions:
REMARK  status: ('A' for Active; 'I' for Inactive)
REMARK    1  A    between atoms: C_8  and  C_9 
REMARK    2  A    between atoms: C_9  and  C_10 
REMARK    3  A    between atoms: C_10  and  N_11 
REMARK    4  A    between atoms: C_10  and  C_19 
REMARK       I    between atoms: N_11  and  C_12 
REMARK    5  A    between atoms: C_12  and  C_13 
REMARK       I    between atoms: C_19  and  N_20 
REMARK    6  A    between atoms: N_20  and  N_21 
REMARK       I    between atoms: N_21  and  C_22 
REMARK       I    between atoms: C_22  and  N_23 
REMARK    7  A    between atoms: N_23  and  C_24 
ROOT
HETATM    1  C   UNL     1      -6.554   2.138 -31.287  1.00  0.00     0.183 C 
ENDROOT
BRANCH   1   2
HETATM    2  C   UNL     1      -6.471   0.680 -30.795  1.00  0.00     0.076 C 
BRANCH   2   3
HETATM    3  C   UNL     1      -5.477  -0.165 -31.537  1.00  0.00    -0.028 A 
HETATM    4  C   UNL     1      -5.704  -0.967 -32.703  1.00  0.00    -0.002 A 
HETATM    5  C   UNL     1      -6.828  -1.234 -33.514  1.00  0.00     0.014 A 
HETATM    6  C   UNL     1      -4.494  -1.581 -33.028  1.00  0.00     0.042 A 
HETATM    7  C   UNL     1      -6.704  -2.109 -34.598  1.00  0.00     0.001 A 
HETATM    8  C   UNL     1      -5.483  -2.709 -34.891  1.00  0.00     0.002 A 
HETATM    9  C   UNL     1      -4.351  -2.453 -34.114  1.00  0.00     0.030 A 
HETATM   10  N   UNL     1      -3.561  -1.151 -32.114  1.00  0.00    -0.365 N 
HETATM   11  H   UNL     1      -2.588  -1.423 -32.115  1.00  0.00     0.165 HD
HETATM   12  C   UNL     1      -4.142  -0.305 -31.209  1.00  0.00     0.096 A 
ENDBRANCH   2   3
ENDBRANCH   1   2
BRANCH   1  13
HETATM   13  N   UNL     1      -5.358   2.611 -31.991  1.00  0.00    -0.343 N 
HETATM   14  C   UNL     1      -4.801   3.851 -31.760  1.00  0.00     0.259 C 
HETATM   15  O   UNL     1      -5.077   4.486 -30.746  1.00  0.00    -0.267 OA
HETATM   16  H   UNL     1      -5.235   2.263 -32.936  1.00  0.00     0.163 HD
BRANCH  14  17
HETATM   17  C   UNL     1      -3.859   4.319 -32.770  1.00  0.00     0.072 A 
HETATM   18  S   UNL     1      -4.376   5.096 -34.212  1.00  0.00    -0.097 SA
HETATM   19  C   UNL     1      -2.773   5.272 -34.778  1.00  0.00     0.050 A 
HETATM   20  C   UNL     1      -1.854   4.764 -33.889  1.00  0.00     0.009 A 
HETATM   21  C   UNL     1      -2.480   4.217 -32.731  1.00  0.00     0.025 A 
ENDBRANCH  14  17
ENDBRANCH   1  13
BRANCH   1  22
HETATM   22  C   UNL     1      -7.892   2.360 -32.018  1.00  0.00     0.259 C 
HETATM   23  N   UNL     1      -8.759   1.282 -31.995  1.00  0.00    -0.264 N 
HETATM   24  H   UNL     1      -8.730   0.655 -31.191  1.00  0.00     0.190 HD
HETATM   25  O   UNL     1      -8.104   3.354 -32.717  1.00  0.00    -0.269 OA
BRANCH  23  26
HETATM   26  N   UNL     1     -10.038   1.497 -32.535  1.00  0.00    -0.249 N 
HETATM   27  C   UNL     1     -10.258   1.207 -33.851  1.00  0.00     0.339 C 
HETATM   28  N   UNL     1     -11.499   1.464 -34.355  1.00  0.00    -0.308 N 
HETATM   29  O   UNL     1      -9.371   0.777 -34.588  1.00  0.00    -0.245 OA
HETATM   30  H   UNL     1     -11.499   1.409 -35.367  1.00  0.00     0.170 HD
HETATM   31  H   UNL     1     -10.572   2.238 -32.095  1.00  0.00     0.192 HD
BRANCH  28  32
HETATM   32  C   UNL     1     -12.731   1.745 -33.734  1.00  0.00     0.036 A 
HETATM   33  C   UNL     1     -12.977   2.866 -32.935  1.00  0.00     0.031 A 
HETATM   34  C   UNL     1     -14.241   3.073 -32.369  1.00  0.00     0.026 A 
HETATM   35  C   UNL     1     -15.259   2.147 -32.581  1.00  0.00     0.034 A 
HETATM   36 CL   UNL     1     -16.812   2.404 -31.891  1.00  0.00    -0.084 Cl
HETATM   37  C   UNL     1     -15.017   1.006 -33.340  1.00  0.00     0.026 A 
HETATM   38  C   UNL     1     -13.754   0.803 -33.906  1.00  0.00     0.031 A 
ENDBRANCH  28  32
ENDBRANCH  23  26
ENDBRANCH   1  22
TORSDOF 7
ENDMDL
MODEL 2
REMARK VINA RESULT:      -9.5      4.639      8.825
REMARK  7 active torsions:
REMARK  status: ('A' for Active; 'I' for Inactive)
REMARK    1  A    between atoms: C_8  and  C_9 
REMARK    2  A    between atoms: C_9  and  C_10 
REMARK    3  A    between atoms: C_10  and  N_11 
REMARK    4  A    between atoms: C_10  and  C_19 
REMARK       I    between atoms: N_11  and  C_12 
REMARK    5  A    between atoms: C_12  and  C_13 
REMARK       I    between atoms: C_19  and  N_20 
REMARK    6  A    between atoms: N_20  and  N_21 
REMARK       I    between atoms: N_21  and  C_22 
REMARK       I    between atoms: C_22  and  N_23 
REMARK    7  A    between atoms: N_23  and  C_24 
ROOT
HETATM    1  C   UNL     1      -4.686   1.252 -32.466  1.00  0.00     0.183 C 
ENDROOT
BRANCH   1   2
HETATM    2  C   UNL     1      -4.398  -0.256 -32.331  1.00  0.00     0.076 C 
BRANCH   2   3
HETATM    3  C   UNL     1      -5.142  -1.115 -33.311  1.00  0.00    -0.028 A 
HETATM    4  C   UNL     1      -4.881  -2.482 -33.654  1.00  0.00    -0.002 A 
HETATM    5  C   UNL     1      -3.930  -3.439 -33.240  1.00  0.00     0.014 A 
HETATM    6  C   UNL     1      -5.820  -2.856 -34.616  1.00  0.00     0.042 A 
HETATM    7  C   UNL     1      -3.944  -4.717 -33.811  1.00  0.00     0.001 A 
HETATM    8  C   UNL     1      -4.891  -5.055 -34.773  1.00  0.00     0.002 A 
HETATM    9  C   UNL     1      -5.852  -4.132 -35.191  1.00  0.00     0.030 A 
HETATM   10  N   UNL     1      -6.636  -1.771 -34.832  1.00  0.00    -0.365 N 
HETATM   11  H   UNL     1      -7.420  -1.760 -35.470  1.00  0.00     0.165 HD
HETATM   12  C   UNL     1      -6.234  -0.718 -34.058  1.00  0.00     0.096 A 
ENDBRANCH   2   3
ENDBRANCH   1   2
BRANCH   1  13
HETATM   13  N   UNL     1      -5.993   1.670 -31.952  1.00  0.00    -0.343 N 
HETATM   14  C   UNL     1      -6.697   2.730 -32.484  1.00  0.00     0.259 C 
HETATM   15  O   UNL     1      -6.425   3.171 -33.597  1.00  0.00    -0.267 OA
HETATM   16  H   UNL     1      -6.149   1.516 -30.962  1.00  0.00     0.163 HD
BRANCH  14  17
HETATM   17  C   UNL     1      -7.781   3.248 -31.657  1.00  0.00     0.072 A 
HETATM   18  S   UNL     1      -7.868   4.900 -31.194  1.00  0.00    -0.097 SA
HETATM   19  C   UNL     1      -9.305   4.650 -30.303  1.00  0.00     0.050 A 
HETATM   20  C   UNL     1      -9.725   3.340 -30.360  1.00  0.00     0.009 A 
HETATM   21  C   UNL     1      -8.848   2.534 -31.142  1.00  0.00     0.025 A 
ENDBRANCH  14  17
ENDBRANCH   1  13
BRANCH   1  22
HETATM   22  C   UNL     1      -3.476   2.055 -31.952  1.00  0.00     0.259 C 
HETATM   23  N   UNL     1      -3.248   3.255 -32.602  1.00  0.00    -0.264 N 
HETATM   24  H   UNL     1      -4.050   3.755 -32.989  1.00  0.00     0.190 HD
HETATM   25  O   UNL     1      -2.670   1.587 -31.144  1.00  0.00    -0.269 OA
BRANCH  23  26
HETATM   26  N   UNL     1      -2.237   4.072 -32.071  1.00  0.00    -0.249 N 
HETATM   27  C   UNL     1      -1.567   4.921 -32.903  1.00  0.00     0.339 C 
HETATM   28  N   UNL     1      -0.564   5.672 -32.364  1.00  0.00    -0.308 N 
HETATM   29  O   UNL     1      -1.806   4.988 -34.109  1.00  0.00    -0.245 OA
HETATM   30  H   UNL     1      -0.005   6.107 -33.089  1.00  0.00     0.170 HD
HETATM   31  H   UNL     1      -1.760   3.694 -31.259  1.00  0.00     0.192 HD
BRANCH  28  32
HETATM   32  C   UNL     1      -0.211   5.961 -31.032  1.00  0.00     0.036 A 
HETATM   33  C   UNL     1       0.429   5.065 -30.171  1.00  0.00     0.031 A 
HETATM   34  C   UNL     1       0.756   5.444 -28.863  1.00  0.00     0.026 A 
HETATM   35  C   UNL     1       0.423   6.715 -28.403  1.00  0.00     0.034 A 
HETATM   36 CL   UNL     1       0.829   7.182 -26.799  1.00  0.00    -0.084 Cl
HETATM   37  C   UNL     1      -0.251   7.603 -29.235  1.00  0.00     0.026 A 
HETATM   38  C   UNL     1      -0.575   7.222 -30.542  1.00  0.00     0.031 A 
ENDBRANCH  28  32
ENDBRANCH  23  26
ENDBRANCH   1  22
TORSDOF 7
ENDMDL
MODEL 3
REMARK VINA RESULT:      -9.4      4.310      8.425
REMARK  7 active torsions:
REMARK  status: ('A' for Active; 'I' for Inactive)
REMARK    1  A    between atoms: C_8  and  C_9 
REMARK    2  A    between atoms: C_9  and  C_10 
REMARK    3  A    between atoms: C_10  and  N_11 
REMARK    4  A    between atoms: C_10  and  C_19 
REMARK       I    between atoms: N_11  and  C_12 
REMARK    5  A    between atoms: C_12  and  C_13 
REMARK       I    between atoms: C_19  and  N_20 
REMARK    6  A    between atoms: N_20  and  N_21 
REMARK       I    between atoms: N_21  and  C_22 
REMARK       I    between atoms: C_22  and  N_23 
REMARK    7  A    between atoms: N_23  and  C_24 
ROOT
HETATM    1  C   UNL     1      -4.569   1.216 -32.646  1.00  0.00     0.183 C 
ENDROOT
BRANCH   1   2
HETATM    2  C   UNL     1      -4.475   0.063 -31.628  1.00  0.00     0.076 C 
BRANCH   2   3
HETATM    3  C   UNL     1      -4.216  -1.282 -32.243  1.00  0.00    -0.028 A 
HETATM    4  C   UNL     1      -5.004  -1.962 -33.228  1.00  0.00    -0.002 A 
HETATM    5  C   UNL     1      -6.192  -1.656 -33.925  1.00  0.00     0.014 A 
HETATM    6  C   UNL     1      -4.382  -3.185 -33.486  1.00  0.00     0.042 A 
HETATM    7  C   UNL     1      -6.718  -2.583 -34.832  1.00  0.00     0.001 A 
HETATM    8  C   UNL     1      -6.076  -3.796 -35.062  1.00  0.00     0.002 A 
HETATM    9  C   UNL     1      -4.891  -4.119 -34.397  1.00  0.00     0.030 A 
HETATM   10  N   UNL     1      -3.249  -3.237 -32.711  1.00  0.00    -0.365 N 
HETATM   11  H   UNL     1      -2.591  -4.004 -32.705  1.00  0.00     0.165 HD
HETATM   12  C   UNL     1      -3.142  -2.102 -31.955  1.00  0.00     0.096 A 
ENDBRANCH   2   3
ENDBRANCH   1   2
BRANCH   1  13
HETATM   13  N   UNL     1      -5.935   1.562 -33.048  1.00  0.00    -0.343 N 
HETATM   14  C   UNL     1      -6.987   1.595 -32.157  1.00  0.00     0.259 C 
HETATM   15  O   UNL     1      -6.785   1.649 -30.947  1.00  0.00    -0.267 OA
HETATM   16  H   UNL     1      -6.194   1.311 -33.996  1.00  0.00     0.163 HD
BRANCH  14  17
HETATM   17  C   UNL     1      -8.319   1.595 -32.751  1.00  0.00     0.072 A 
HETATM   18  S   UNL     1      -8.891   2.899 -33.712  1.00  0.00    -0.097 SA
HETATM   19  C   UNL     1     -10.407   2.149 -33.957  1.00  0.00     0.050 A 
HETATM   20  C   UNL     1     -10.482   0.924 -33.333  1.00  0.00     0.009 A 
HETATM   21  C   UNL     1      -9.278   0.605 -32.641  1.00  0.00     0.025 A 
ENDBRANCH  14  17
ENDBRANCH   1  13
BRANCH   1  22
HETATM   22  C   UNL     1      -3.691   2.391 -32.175  1.00  0.00     0.259 C 
HETATM   23  N   UNL     1      -3.678   3.488 -33.018  1.00  0.00    -0.264 N 
HETATM   24  H   UNL     1      -4.512   3.682 -33.573  1.00  0.00     0.190 HD
HETATM   25  O   UNL     1      -2.924   2.296 -31.214  1.00  0.00    -0.269 OA
BRANCH  23  26
HETATM   26  N   UNL     1      -2.996   4.625 -32.553  1.00  0.00    -0.249 N 
HETATM   27  C   UNL     1      -3.407   5.859 -32.967  1.00  0.00     0.339 C 
HETATM   28  N   UNL     1      -2.700   6.940 -32.529  1.00  0.00    -0.308 N 
HETATM   29  O   UNL     1      -4.347   6.013 -33.747  1.00  0.00    -0.245 OA
HETATM   30  H   UNL     1      -2.952   7.774 -33.046  1.00  0.00     0.170 HD
HETATM   31  H   UNL     1      -2.018   4.478 -32.327  1.00  0.00     0.192 HD
BRANCH  28  32
HETATM   32  C   UNL     1      -1.748   7.093 -31.503  1.00  0.00     0.036 A 
HETATM   33  C   UNL     1      -0.381   6.836 -31.647  1.00  0.00     0.031 A 
HETATM   34  C   UNL     1       0.497   7.032 -30.574  1.00  0.00     0.026 A 
HETATM   35  C   UNL     1       0.008   7.463 -29.345  1.00  0.00     0.034 A 
HETATM   36 CL   UNL     1       1.087   7.709 -28.029  1.00  0.00    -0.084 Cl
HETATM   37  C   UNL     1      -1.355   7.684 -29.175  1.00  0.00     0.026 A 
HETATM   38  C   UNL     1      -2.230   7.490 -30.249  1.00  0.00     0.031 A 
ENDBRANCH  28  32
ENDBRANCH  23  26
ENDBRANCH   1  22
TORSDOF 7
ENDMDL
MODEL 4
REMARK VINA RESULT:      -9.3      1.979      2.441
REMARK  7 active torsions:
REMARK  status: ('A' for Active; 'I' for Inactive)
REMARK    1  A    between atoms: C_8  and  C_9 
REMARK    2  A    between atoms: C_9  and  C_10 
REMARK    3  A    between atoms: C_10  and  N_11 
REMARK    4  A    between atoms: C_10  and  C_19 
REMARK       I    between atoms: N_11  and  C_12 
REMARK    5  A    between atoms: C_12  and  C_13 
REMARK       I    between atoms: C_19  and  N_20 
REMARK    6  A    between atoms: N_20  and  N_21 
REMARK       I    between atoms: N_21  and  C_22 
REMARK       I    between atoms: C_22  and  N_23 
REMARK    7  A    between atoms: N_23  and  C_24 
ROOT
HETATM    1  C   UNL     1      -5.165   1.694 -32.631  1.00  0.00     0.183 C 
ENDROOT
BRANCH   1   2
HETATM    2  C   UNL     1      -5.218   0.381 -33.437  1.00  0.00     0.076 C 
BRANCH   2   3
HETATM    3  C   UNL     1      -4.390  -0.730 -32.858  1.00  0.00    -0.028 A 
HETATM    4  C   UNL     1      -4.331  -2.095 -33.289  1.00  0.00    -0.002 A 
HETATM    5  C   UNL     1      -4.957  -2.834 -34.316  1.00  0.00     0.014 A 
HETATM    6  C   UNL     1      -3.437  -2.759 -32.448  1.00  0.00     0.042 A 
HETATM    7  C   UNL     1      -4.681  -4.200 -34.450  1.00  0.00     0.001 A 
HETATM    8  C   UNL     1      -3.788  -4.832 -33.589  1.00  0.00     0.002 A 
HETATM    9  C   UNL     1      -3.144  -4.122 -32.573  1.00  0.00     0.030 A 
HETATM   10  N   UNL     1      -2.952  -1.831 -31.557  1.00  0.00    -0.365 N 
HETATM   11  H   UNL     1      -2.271  -2.027 -30.837  1.00  0.00     0.165 HD
HETATM   12  C   UNL     1      -3.523  -0.610 -31.790  1.00  0.00     0.096 A 
ENDBRANCH   2   3
ENDBRANCH   1   2
BRANCH   1  13
HETATM   13  N   UNL     1      -4.123   2.630 -33.062  1.00  0.00    -0.343 N 
HETATM   14  C   UNL     1      -3.139   3.091 -32.212  1.00  0.00     0.259 C 
HETATM   15  O   UNL     1      -2.895   2.509 -31.159  1.00  0.00    -0.267 OA
HETATM   16  H   UNL     1      -4.389   3.283 -33.791  1.00  0.00     0.163 HD
BRANCH  14  17
HETATM   17  C   UNL     1      -2.411   4.269 -32.668  1.00  0.00     0.072 A 
HETATM   18  S   UNL     1      -1.501   5.253 -31.594  1.00  0.00    -0.097 SA
HETATM   19  C   UNL     1      -1.041   6.321 -32.846  1.00  0.00     0.050 A 
HETATM   20  C   UNL     1      -1.554   5.938 -34.064  1.00  0.00     0.009 A 
HETATM   21  C   UNL     1      -2.342   4.755 -33.961  1.00  0.00     0.025 A 
ENDBRANCH  14  17
ENDBRANCH   1  13
BRANCH   1  22
HETATM   22  C   UNL     1      -6.585   2.281 -32.511  1.00  0.00     0.259 C 
HETATM   23  N   UNL     1      -7.214   2.548 -33.714  1.00  0.00    -0.264 N 
HETATM   24  H   UNL     1      -6.984   1.965 -34.519  1.00  0.00     0.190 HD
HETATM   25  O   UNL     1      -7.055   2.650 -31.432  1.00  0.00    -0.269 OA
BRANCH  23  26
HETATM   26  N   UNL     1      -8.555   2.958 -33.640  1.00  0.00    -0.249 N 
HETATM   27  C   UNL     1      -8.872   4.245 -33.963  1.00  0.00     0.339 C 
HETATM   28  N   UNL     1     -10.178   4.623 -33.843  1.00  0.00    -0.308 N 
HETATM   29  O   UNL     1      -8.022   5.068 -34.303  1.00  0.00    -0.245 OA
HETATM   30  H   UNL     1     -10.272   5.630 -33.906  1.00  0.00     0.170 HD
HETATM   31  H   UNL     1      -9.119   2.464 -32.956  1.00  0.00     0.192 HD
BRANCH  28  32
HETATM   32  C   UNL     1     -11.365   3.882 -33.689  1.00  0.00     0.036 A 
HETATM   33  C   UNL     1     -12.085   3.781 -32.494  1.00  0.00     0.031 A 
HETATM   34  C   UNL     1     -13.267   3.032 -32.437  1.00  0.00     0.026 A 
HETATM   35  C   UNL     1     -13.722   2.362 -33.569  1.00  0.00     0.034 A 
HETATM   36 CL   UNL     1     -15.176   1.448 -33.500  1.00  0.00    -0.084 Cl
HETATM   37  C   UNL     1     -12.995   2.421 -34.754  1.00  0.00     0.026 A 
HETATM   38  C   UNL     1     -11.815   3.171 -34.809  1.00  0.00     0.031 A 
ENDBRANCH  28  32
ENDBRANCH  23  26
ENDBRANCH   1  22
TORSDOF 7
ENDMDL
MODEL 5
REMARK VINA RESULT:      -9.3      4.458      8.678
REMARK  7 active torsions:
REMARK  status: ('A' for Active; 'I' for Inactive)
REMARK    1  A    between atoms: C_8  and  C_9 
REMARK    2  A    between atoms: C_9  and  C_10 
REMARK    3  A    between atoms: C_10  and  N_11 
REMARK    4  A    between atoms: C_10  and  C_19 
REMARK       I    between atoms: N_11  and  C_12 
REMARK    5  A    between atoms: C_12  and  C_13 
REMARK       I    between atoms: C_19  and  N_20 
REMARK    6  A    between atoms: N_20  and  N_21 
REMARK       I    between atoms: N_21  and  C_22 
REMARK       I    between atoms: C_22  and  N_23 
REMARK    7  A    between atoms: N_23  and  C_24 
ROOT
HETATM    1  C   UNL     1      -5.658   2.086 -31.780  1.00  0.00     0.183 C 
ENDROOT
BRANCH   1   2
HETATM    2  C   UNL     1      -5.509   0.785 -30.969  1.00  0.00     0.076 C 
BRANCH   2   3
HETATM    3  C   UNL     1      -4.830  -0.329 -31.711  1.00  0.00    -0.028 A 
HETATM    4  C   UNL     1      -5.339  -1.081 -32.820  1.00  0.00    -0.002 A 
HETATM    5  C   UNL     1      -6.539  -1.058 -33.561  1.00  0.00     0.014 A 
HETATM    6  C   UNL     1      -4.364  -2.017 -33.170  1.00  0.00     0.042 A 
HETATM    7  C   UNL     1      -6.726  -1.975 -34.602  1.00  0.00     0.001 A 
HETATM    8  C   UNL     1      -5.735  -2.899 -34.920  1.00  0.00     0.002 A 
HETATM    9  C   UNL     1      -4.531  -2.935 -34.213  1.00  0.00     0.030 A 
HETATM   10  N   UNL     1      -3.296  -1.826 -32.326  1.00  0.00    -0.365 N 
HETATM   11  H   UNL     1      -2.435  -2.355 -32.360  1.00  0.00     0.165 HD
HETATM   12  C   UNL     1      -3.567  -0.819 -31.441  1.00  0.00     0.096 A 
ENDBRANCH   2   3
ENDBRANCH   1   2
BRANCH   1  13
HETATM   13  N   UNL     1      -7.032   2.588 -31.878  1.00  0.00    -0.343 N 
HETATM   14  C   UNL     1      -7.648   2.839 -33.087  1.00  0.00     0.259 C 
HETATM   15  O   UNL     1      -7.205   2.364 -34.129  1.00  0.00    -0.267 OA
HETATM   16  H   UNL     1      -7.341   3.182 -31.117  1.00  0.00     0.163 HD
BRANCH  14  17
HETATM   17  C   UNL     1      -8.850   3.661 -33.025  1.00  0.00     0.072 A 
HETATM   18  S   UNL     1      -9.643   4.011 -31.542  1.00  0.00    -0.097 SA
HETATM   19  C   UNL     1     -10.855   4.928 -32.323  1.00  0.00     0.050 A 
HETATM   20  C   UNL     1     -10.664   4.983 -33.684  1.00  0.00     0.009 A 
HETATM   21  C   UNL     1      -9.506   4.254 -34.087  1.00  0.00     0.025 A 
ENDBRANCH  14  17
ENDBRANCH   1  13
BRANCH   1  22
HETATM   22  C   UNL     1      -4.605   3.109 -31.311  1.00  0.00     0.259 C 
HETATM   23  N   UNL     1      -3.296   2.792 -31.631  1.00  0.00    -0.264 N 
HETATM   24  H   UNL     1      -3.123   2.252 -32.480  1.00  0.00     0.190 HD
HETATM   25  O   UNL     1      -4.885   4.046 -30.559  1.00  0.00    -0.269 OA
BRANCH  23  26
HETATM   26  N   UNL     1      -2.328   3.766 -31.336  1.00  0.00    -0.249 N 
HETATM   27  C   UNL     1      -1.849   4.549 -32.346  1.00  0.00     0.339 C 
HETATM   28  N   UNL     1      -0.881   5.458 -32.035  1.00  0.00    -0.308 N 
HETATM   29  O   UNL     1      -2.224   4.424 -33.512  1.00  0.00    -0.245 OA
HETATM   30  H   UNL     1      -0.455   5.837 -32.873  1.00  0.00     0.170 HD
HETATM   31  H   UNL     1      -1.727   3.551 -30.548  1.00  0.00     0.192 HD
BRANCH  28  32
HETATM   32  C   UNL     1      -0.418   5.962 -30.804  1.00  0.00     0.036 A 
HETATM   33  C   UNL     1      -0.623   7.270 -30.358  1.00  0.00     0.031 A 
HETATM   34  C   UNL     1      -0.139   7.681 -29.109  1.00  0.00     0.026 A 
HETATM   35  C   UNL     1       0.574   6.790 -28.312  1.00  0.00     0.034 A 
HETATM   36 CL   UNL     1       1.164   7.292 -26.777  1.00  0.00    -0.084 Cl
HETATM   37  C   UNL     1       0.821   5.496 -28.761  1.00  0.00     0.026 A 
HETATM   38  C   UNL     1       0.334   5.088 -30.008  1.00  0.00     0.031 A 
ENDBRANCH  28  32
ENDBRANCH  23  26
ENDBRANCH   1  22
TORSDOF 7
ENDMDL
MODEL 6
REMARK VINA RESULT:      -9.3      4.174      8.950
REMARK  7 active torsions:
REMARK  status: ('A' for Active; 'I' for Inactive)
REMARK    1  A    between atoms: C_8  and  C_9 
REMARK    2  A    between atoms: C_9  and  C_10 
REMARK    3  A    between atoms: C_10  and  N_11 
REMARK    4  A    between atoms: C_10  and  C_19 
REMARK       I    between atoms: N_11  and  C_12 
REMARK    5  A    between atoms: C_12  and  C_13 
REMARK       I    between atoms: C_19  and  N_20 
REMARK    6  A    between atoms: N_20  and  N_21 
REMARK       I    between atoms: N_21  and  C_22 
REMARK       I    between atoms: C_22  and  N_23 
REMARK    7  A    between atoms: N_23  and  C_24 
ROOT
HETATM    1  C   UNL     1      -6.818   2.164 -32.481  1.00  0.00     0.183 C 
ENDROOT
BRANCH   1   2
HETATM    2  C   UNL     1      -7.955   3.051 -33.025  1.00  0.00     0.076 C 
BRANCH   2   3
HETATM    3  C   UNL     1      -9.266   2.339 -33.189  1.00  0.00    -0.028 A 
HETATM    4  C   UNL     1     -10.339   2.670 -34.079  1.00  0.00    -0.002 A 
HETATM    5  C   UNL     1     -10.545   3.680 -35.043  1.00  0.00     0.014 A 
HETATM    6  C   UNL     1     -11.355   1.736 -33.872  1.00  0.00     0.042 A 
HETATM    7  C   UNL     1     -11.755   3.728 -35.744  1.00  0.00     0.001 A 
HETATM    8  C   UNL     1     -12.751   2.785 -35.508  1.00  0.00     0.002 A 
HETATM    9  C   UNL     1     -12.568   1.766 -34.571  1.00  0.00     0.030 A 
HETATM   10  N   UNL     1     -10.911   0.857 -32.913  1.00  0.00    -0.365 N 
HETATM   11  H   UNL     1     -11.436   0.063 -32.575  1.00  0.00     0.165 HD
HETATM   12  C   UNL     1      -9.660   1.213 -32.491  1.00  0.00     0.096 A 
ENDBRANCH   2   3
ENDBRANCH   1   2
BRANCH   1  13
HETATM   13  N   UNL     1      -6.633   0.902 -33.204  1.00  0.00    -0.343 N 
HETATM   14  C   UNL     1      -6.312  -0.279 -32.568  1.00  0.00     0.259 C 
HETATM   15  O   UNL     1      -6.476  -0.407 -31.358  1.00  0.00    -0.267 OA
HETATM   16  H   UNL     1      -6.273   0.982 -34.149  1.00  0.00     0.163 HD
BRANCH  14  17
HETATM   17  C   UNL     1      -5.810  -1.344 -33.428  1.00  0.00     0.072 A 
HETATM   18  S   UNL     1      -4.188  -1.903 -33.339  1.00  0.00    -0.097 SA
HETATM   19  C   UNL     1      -4.433  -3.036 -34.594  1.00  0.00     0.050 A 
HETATM   20  C   UNL     1      -5.724  -3.007 -35.070  1.00  0.00     0.009 A 
HETATM   21  C   UNL     1      -6.517  -2.034 -34.396  1.00  0.00     0.025 A 
ENDBRANCH  14  17
ENDBRANCH   1  13
BRANCH   1  22
HETATM   22  C   UNL     1      -5.549   3.016 -32.286  1.00  0.00     0.259 C 
HETATM   23  N   UNL     1      -5.077   3.637 -33.428  1.00  0.00    -0.264 N 
HETATM   24  H   UNL     1      -5.751   3.906 -34.146  1.00  0.00     0.190 HD
HETATM   25  O   UNL     1      -4.903   3.004 -31.235  1.00  0.00    -0.269 OA
BRANCH  23  26
HETATM   26  N   UNL     1      -4.003   4.526 -33.258  1.00  0.00    -0.249 N 
HETATM   27  C   UNL     1      -3.642   5.333 -34.297  1.00  0.00     0.339 C 
HETATM   28  N   UNL     1      -2.570   6.157 -34.113  1.00  0.00    -0.308 N 
HETATM   29  O   UNL     1      -4.214   5.302 -35.387  1.00  0.00    -0.245 OA
HETATM   30  H   UNL     1      -2.262   6.556 -34.993  1.00  0.00     0.170 HD
HETATM   31  H   UNL     1      -3.297   4.226 -32.594  1.00  0.00     0.192 HD
BRANCH  28  32
HETATM   32  C   UNL     1      -1.872   6.556 -32.957  1.00  0.00     0.036 A 
HETATM   33  C   UNL     1      -2.164   7.703 -32.213  1.00  0.00     0.031 A 
HETATM   34  C   UNL     1      -1.424   8.014 -31.065  1.00  0.00     0.026 A 
HETATM   35  C   UNL     1      -0.374   7.191 -30.669  1.00  0.00     0.034 A 
HETATM   36 CL   UNL     1       0.530   7.570 -29.257  1.00  0.00    -0.084 Cl
HETATM   37  C   UNL     1      -0.046   6.067 -31.423  1.00  0.00     0.026 A 
HETATM   38  C   UNL     1      -0.788   5.758 -32.568  1.00  0.00     0.031 A 
ENDBRANCH  28  32
ENDBRANCH  23  26
ENDBRANCH   1  22
TORSDOF 7
ENDMDL
MODEL 7
REMARK VINA RESULT:      -8.8      4.470      9.476
REMARK  7 active torsions:
REMARK  status: ('A' for Active; 'I' for Inactive)
REMARK    1  A    between atoms: C_8  and  C_9 
REMARK    2  A    between atoms: C_9  and  C_10 
REMARK    3  A    between atoms: C_10  and  N_11 
REMARK    4  A    between atoms: C_10  and  C_19 
REMARK       I    between atoms: N_11  and  C_12 
REMARK    5  A    between atoms: C_12  and  C_13 
REMARK       I    between atoms: C_19  and  N_20 
REMARK    6  A    between atoms: N_20  and  N_21 
REMARK       I    between atoms: N_21  and  C_22 
REMARK       I    between atoms: C_22  and  N_23 
REMARK    7  A    between atoms: N_23  and  C_24 
ROOT
HETATM    1  C   UNL     1      -6.517   3.280 -31.790  1.00  0.00     0.183 C 
ENDROOT
BRANCH   1   2
HETATM    2  C   UNL     1      -7.554   4.284 -32.328  1.00  0.00     0.076 C 
BRANCH   2   3
HETATM    3  C   UNL     1      -8.980   3.841 -32.168  1.00  0.00    -0.028 A 
HETATM    4  C   UNL     1      -9.987   3.745 -33.182  1.00  0.00    -0.002 A 
HETATM    5  C   UNL     1     -10.018   3.998 -34.570  1.00  0.00     0.014 A 
HETATM    6  C   UNL     1     -11.158   3.302 -32.565  1.00  0.00     0.042 A 
HETATM    7  C   UNL     1     -11.211   3.815 -35.279  1.00  0.00     0.001 A 
HETATM    8  C   UNL     1     -12.362   3.377 -34.631  1.00  0.00     0.002 A 
HETATM    9  C   UNL     1     -12.357   3.106 -33.261  1.00  0.00     0.030 A 
HETATM   10  N   UNL     1     -10.869   3.110 -31.235  1.00  0.00    -0.365 N 
HETATM   11  H   UNL     1     -11.529   2.774 -30.547  1.00  0.00     0.165 HD
HETATM   12  C   UNL     1      -9.566   3.437 -30.983  1.00  0.00     0.096 A 
ENDBRANCH   2   3
ENDBRANCH   1   2
BRANCH   1  13
HETATM   13  N   UNL     1      -6.326   2.093 -32.629  1.00  0.00    -0.343 N 
HETATM   14  C   UNL     1      -6.718   0.831 -32.234  1.00  0.00     0.259 C 
HETATM   15  O   UNL     1      -7.520   0.680 -31.316  1.00  0.00    -0.267 OA
HETATM   16  H   UNL     1      -5.518   2.110 -33.242  1.00  0.00     0.163 HD
BRANCH  14  17
HETATM   17  C   UNL     1      -6.147  -0.275 -32.992  1.00  0.00     0.072 A 
HETATM   18  S   UNL     1      -4.548  -0.840 -32.721  1.00  0.00    -0.097 SA
HETATM   19  C   UNL     1      -4.682  -2.028 -33.942  1.00  0.00     0.050 A 
HETATM   20  C   UNL     1      -5.920  -2.012 -34.543  1.00  0.00     0.009 A 
HETATM   21  C   UNL     1      -6.764  -1.003 -33.993  1.00  0.00     0.025 A 
ENDBRANCH  14  17
ENDBRANCH   1  13
BRANCH   1  22
HETATM   22  C   UNL     1      -5.232   4.031 -31.392  1.00  0.00     0.259 C 
HETATM   23  N   UNL     1      -4.073   3.277 -31.437  1.00  0.00    -0.264 N 
HETATM   24  H   UNL     1      -4.015   2.519 -32.118  1.00  0.00     0.190 HD
HETATM   25  O   UNL     1      -5.255   5.163 -30.902  1.00  0.00    -0.269 OA
BRANCH  23  26
HETATM   26  N   UNL     1      -2.870   3.965 -31.209  1.00  0.00    -0.249 N 
HETATM   27  C   UNL     1      -2.120   4.358 -32.280  1.00  0.00     0.339 C 
HETATM   28  N   UNL     1      -0.938   4.990 -32.024  1.00  0.00    -0.308 N 
HETATM   29  O   UNL     1      -2.451   4.117 -33.441  1.00  0.00    -0.245 OA
HETATM   30  H   UNL     1      -0.371   5.054 -32.862  1.00  0.00     0.170 HD
HETATM   31  H   UNL     1      -2.408   3.747 -30.333  1.00  0.00     0.192 HD
BRANCH  28  32
HETATM   32  C   UNL     1      -0.411   5.572 -30.856  1.00  0.00     0.036 A 
HETATM   33  C   UNL     1       0.332   4.881 -29.893  1.00  0.00     0.031 A 
HETATM   34  C   UNL     1       0.831   5.547 -28.767  1.00  0.00     0.026 A 
HETATM   35  C   UNL     1       0.569   6.902 -28.586  1.00  0.00     0.034 A 
HETATM   36 CL   UNL     1       1.186   7.720 -27.206  1.00  0.00    -0.084 Cl
HETATM   37  C   UNL     1      -0.203   7.593 -29.515  1.00  0.00     0.026 A 
HETATM   38  C   UNL     1      -0.698   6.926 -30.641  1.00  0.00     0.031 A 
ENDBRANCH  28  32
ENDBRANCH  23  26
ENDBRANCH   1  22
TORSDOF 7
ENDMDL
MODEL 8
REMARK VINA RESULT:      -8.8      4.346      8.357
REMARK  7 active torsions:
REMARK  status: ('A' for Active; 'I' for Inactive)
REMARK    1  A    between atoms: C_8  and  C_9 
REMARK    2  A    between atoms: C_9  and  C_10 
REMARK    3  A    between atoms: C_10  and  N_11 
REMARK    4  A    between atoms: C_10  and  C_19 
REMARK       I    between atoms: N_11  and  C_12 
REMARK    5  A    between atoms: C_12  and  C_13 
REMARK       I    between atoms: C_19  and  N_20 
REMARK    6  A    between atoms: N_20  and  N_21 
REMARK       I    between atoms: N_21  and  C_22 
REMARK       I    between atoms: C_22  and  N_23 
REMARK    7  A    between atoms: N_23  and  C_24 
ROOT
HETATM    1  C   UNL     1      -6.847   2.190 -33.139  1.00  0.00     0.183 C 
ENDROOT
BRANCH   1   2
HETATM    2  C   UNL     1      -6.891   0.850 -32.379  1.00  0.00     0.076 C 
BRANCH   2   3
HETATM    3  C   UNL     1      -6.641  -0.354 -33.239  1.00  0.00    -0.028 A 
HETATM    4  C   UNL     1      -5.562  -1.291 -33.143  1.00  0.00    -0.002 A 
HETATM    5  C   UNL     1      -4.446  -1.428 -32.291  1.00  0.00     0.014 A 
HETATM    6  C   UNL     1      -5.738  -2.234 -34.158  1.00  0.00     0.042 A 
HETATM    7  C   UNL     1      -3.547  -2.482 -32.494  1.00  0.00     0.001 A 
HETATM    8  C   UNL     1      -3.749  -3.400 -33.519  1.00  0.00     0.002 A 
HETATM    9  C   UNL     1      -4.853  -3.298 -34.369  1.00  0.00     0.030 A 
HETATM   10  N   UNL     1      -6.890  -1.899 -34.829  1.00  0.00    -0.365 N 
HETATM   11  H   UNL     1      -7.274  -2.419 -35.606  1.00  0.00     0.165 HD
HETATM   12  C   UNL     1      -7.438  -0.768 -34.290  1.00  0.00     0.096 A 
ENDBRANCH   2   3
ENDBRANCH   1   2
BRANCH   1  13
HETATM   13  N   UNL     1      -7.974   3.085 -32.861  1.00  0.00    -0.343 N 
HETATM   14  C   UNL     1      -9.095   3.141 -33.663  1.00  0.00     0.259 C 
HETATM   15  O   UNL     1      -9.348   2.237 -34.454  1.00  0.00    -0.267 OA
HETATM   16  H   UNL     1      -7.742   3.958 -32.400  1.00  0.00     0.163 HD
BRANCH  14  17
HETATM   17  C   UNL     1      -9.948   4.308 -33.476  1.00  0.00     0.072 A 
HETATM   18  S   UNL     1     -11.230   4.330 -32.334  1.00  0.00    -0.097 SA
HETATM   19  C   UNL     1     -11.676   5.925 -32.755  1.00  0.00     0.050 A 
HETATM   20  C   UNL     1     -10.863   6.445 -33.737  1.00  0.00     0.009 A 
HETATM   21  C   UNL     1      -9.867   5.513 -34.150  1.00  0.00     0.025 A 
ENDBRANCH  14  17
ENDBRANCH   1  13
BRANCH   1  22
HETATM   22  C   UNL     1      -5.445   2.815 -32.998  1.00  0.00     0.259 C 
HETATM   23  N   UNL     1      -5.275   4.025 -33.647  1.00  0.00    -0.264 N 
HETATM   24  H   UNL     1      -6.085   4.638 -33.748  1.00  0.00     0.190 HD
HETATM   25  O   UNL     1      -4.498   2.204 -32.497  1.00  0.00    -0.269 OA
BRANCH  23  26
HETATM   26  N   UNL     1      -4.054   4.685 -33.428  1.00  0.00    -0.249 N 
HETATM   27  C   UNL     1      -3.468   5.353 -34.464  1.00  0.00     0.339 C 
HETATM   28  N   UNL     1      -2.264   5.950 -34.230  1.00  0.00    -0.308 N 
HETATM   29  O   UNL     1      -3.964   5.387 -35.591  1.00  0.00    -0.245 OA
HETATM   30  H   UNL     1      -1.825   6.236 -35.097  1.00  0.00     0.170 HD
HETATM   31  H   UNL     1      -3.470   4.280 -32.705  1.00  0.00     0.192 HD
BRANCH  28  32
HETATM   32  C   UNL     1      -1.576   6.253 -33.040  1.00  0.00     0.036 A 
HETATM   33  C   UNL     1      -0.665   5.397 -32.413  1.00  0.00     0.031 A 
HETATM   34  C   UNL     1      -0.014   5.789 -31.237  1.00  0.00     0.026 A 
HETATM   35  C   UNL     1      -0.288   7.030 -30.670  1.00  0.00     0.034 A 
HETATM   36 CL   UNL     1       0.516   7.513 -29.229  1.00  0.00    -0.084 Cl
HETATM   37  C   UNL     1      -1.222   7.876 -31.260  1.00  0.00     0.026 A 
HETATM   38  C   UNL     1      -1.870   7.483 -32.436  1.00  0.00     0.031 A 
ENDBRANCH  28  32
ENDBRANCH  23  26
ENDBRANCH   1  22
TORSDOF 7
ENDMDL
MODEL 9
REMARK VINA RESULT:      -8.8      2.734      5.464
REMARK  7 active torsions:
REMARK  status: ('A' for Active; 'I' for Inactive)
REMARK    1  A    between atoms: C_8  and  C_9 
REMARK    2  A    between atoms: C_9  and  C_10 
REMARK    3  A    between atoms: C_10  and  N_11 
REMARK    4  A    between atoms: C_10  and  C_19 
REMARK       I    between atoms: N_11  and  C_12 
REMARK    5  A    between atoms: C_12  and  C_13 
REMARK       I    between atoms: C_19  and  N_20 
REMARK    6  A    between atoms: N_20  and  N_21 
REMARK       I    between atoms: N_21  and  C_22 
REMARK       I    between atoms: C_22  and  N_23 
REMARK    7  A    between atoms: N_23  and  C_24 
ROOT
HETATM    1  C   UNL     1      -5.777   0.649 -32.384  1.00  0.00     0.183 C 
ENDROOT
BRANCH   1   2
HETATM    2  C   UNL     1      -5.552   1.060 -30.916  1.00  0.00     0.076 C 
BRANCH   2   3
HETATM    3  C   UNL     1      -5.168   2.499 -30.732  1.00  0.00    -0.028 A 
HETATM    4  C   UNL     1      -4.189   3.246 -31.464  1.00  0.00    -0.002 A 
HETATM    5  C   UNL     1      -3.311   2.946 -32.527  1.00  0.00     0.014 A 
HETATM    6  C   UNL     1      -4.169   4.537 -30.935  1.00  0.00     0.042 A 
HETATM    7  C   UNL     1      -2.442   3.934 -33.005  1.00  0.00     0.001 A 
HETATM    8  C   UNL     1      -2.444   5.211 -32.450  1.00  0.00     0.002 A 
HETATM    9  C   UNL     1      -3.313   5.539 -31.406  1.00  0.00     0.030 A 
HETATM   10  N   UNL     1      -5.115   4.583 -29.939  1.00  0.00    -0.365 N 
HETATM   11  H   UNL     1      -5.332   5.403 -29.390  1.00  0.00     0.165 HD
HETATM   12  C   UNL     1      -5.717   3.363 -29.803  1.00  0.00     0.096 A 
ENDBRANCH   2   3
ENDBRANCH   1   2
BRANCH   1  13
HETATM   13  N   UNL     1      -5.633  -0.786 -32.643  1.00  0.00    -0.343 N 
HETATM   14  C   UNL     1      -4.646  -1.300 -33.458  1.00  0.00     0.259 C 
HETATM   15  O   UNL     1      -3.659  -0.631 -33.749  1.00  0.00    -0.267 OA
HETATM   16  H   UNL     1      -6.492  -1.326 -32.631  1.00  0.00     0.163 HD
BRANCH  14  17
HETATM   17  C   UNL     1      -4.847  -2.673 -33.905  1.00  0.00     0.072 A 
HETATM   18  S   UNL     1      -3.768  -3.940 -33.479  1.00  0.00    -0.097 SA
HETATM   19  C   UNL     1      -4.662  -5.098 -34.362  1.00  0.00     0.050 A 
HETATM   20  C   UNL     1      -5.769  -4.544 -34.964  1.00  0.00     0.009 A 
HETATM   21  C   UNL     1      -5.876  -3.148 -34.698  1.00  0.00     0.025 A 
ENDBRANCH  14  17
ENDBRANCH   1  13
BRANCH   1  22
HETATM   22  C   UNL     1      -7.074   1.297 -32.908  1.00  0.00     0.259 C 
HETATM   23  N   UNL     1      -8.145   0.433 -33.053  1.00  0.00    -0.264 N 
HETATM   24  H   UNL     1      -8.207  -0.369 -32.424  1.00  0.00     0.190 HD
HETATM   25  O   UNL     1      -7.107   2.455 -33.331  1.00  0.00    -0.269 OA
BRANCH  23  26
HETATM   26  N   UNL     1      -9.375   1.015 -33.399  1.00  0.00    -0.249 N 
HETATM   27  C   UNL     1     -10.528   0.344 -33.114  1.00  0.00     0.339 C 
HETATM   28  N   UNL     1     -11.705   0.918 -33.499  1.00  0.00    -0.308 N 
HETATM   29  O   UNL     1     -10.531  -0.764 -32.577  1.00  0.00    -0.245 OA
HETATM   30  H   UNL     1     -12.471   0.259 -33.428  1.00  0.00     0.170 HD
HETATM   31  H   UNL     1      -9.347   1.635 -34.201  1.00  0.00     0.192 HD
BRANCH  28  32
HETATM   32  C   UNL     1     -12.025   2.221 -33.924  1.00  0.00     0.036 A 
HETATM   33  C   UNL     1     -12.240   3.303 -33.066  1.00  0.00     0.031 A 
HETATM   34  C   UNL     1     -12.540   4.571 -33.580  1.00  0.00     0.026 A 
HETATM   35  C   UNL     1     -12.650   4.756 -34.954  1.00  0.00     0.034 A 
HETATM   36 CL   UNL     1     -13.013   6.314 -35.586  1.00  0.00    -0.084 Cl
HETATM   37  C   UNL     1     -12.479   3.680 -35.819  1.00  0.00     0.026 A 
HETATM   38  C   UNL     1     -12.177   2.415 -35.304  1.00  0.00     0.031 A 
ENDBRANCH  28  32
ENDBRANCH  23  26
ENDBRANCH   1  22
TORSDOF 7
ENDMDL
MODEL 10
REMARK VINA RESULT:      -8.8      4.510      8.337
REMARK  7 active torsions:
REMARK  status: ('A' for Active; 'I' for Inactive)
REMARK    1  A    between atoms: C_8  and  C_9 
REMARK    2  A    between atoms: C_9  and  C_10 
REMARK    3  A    between atoms: C_10  and  N_11 
REMARK    4  A    between atoms: C_10  and  C_19 
REMARK       I    between atoms: N_11  and  C_12 
REMARK    5  A    between atoms: C_12  and  C_13 
REMARK       I    between atoms: C_19  and  N_20 
REMARK    6  A    between atoms: N_20  and  N_21 
REMARK       I    between atoms: N_21  and  C_22 
REMARK       I    between atoms: C_22  and  N_23 
REMARK    7  A    between atoms: N_23  and  C_24 
ROOT
HETATM    1  C   UNL     1      -5.489   2.098 -32.354  1.00  0.00     0.183 C 
ENDROOT
BRANCH   1   2
HETATM    2  C   UNL     1      -5.198   1.004 -31.309  1.00  0.00     0.076 C 
BRANCH   2   3
HETATM    3  C   UNL     1      -4.567  -0.235 -31.875  1.00  0.00    -0.028 A 
HETATM    4  C   UNL     1      -5.087  -1.096 -32.895  1.00  0.00    -0.002 A 
HETATM    5  C   UNL     1      -6.261  -1.103 -33.677  1.00  0.00     0.014 A 
HETATM    6  C   UNL     1      -4.161  -2.124 -33.084  1.00  0.00     0.042 A 
HETATM    7  C   UNL     1      -6.472  -2.137 -34.597  1.00  0.00     0.001 A 
HETATM    8  C   UNL     1      -5.531  -3.150 -34.755  1.00  0.00     0.002 A 
HETATM    9  C   UNL     1      -4.353  -3.160 -34.005  1.00  0.00     0.030 A 
HETATM   10  N   UNL     1      -3.109  -1.885 -32.232  1.00  0.00    -0.365 N 
HETATM   11  H   UNL     1      -2.282  -2.462 -32.165  1.00  0.00     0.165 HD
HETATM   12  C   UNL     1      -3.345  -0.757 -31.496  1.00  0.00     0.096 A 
ENDBRANCH   2   3
ENDBRANCH   1   2
BRANCH   1  13
HETATM   13  N   UNL     1      -6.883   2.155 -32.803  1.00  0.00    -0.343 N 
HETATM   14  C   UNL     1      -7.949   2.110 -31.929  1.00  0.00     0.259 C 
HETATM   15  O   UNL     1      -7.792   2.339 -30.733  1.00  0.00    -0.267 OA
HETATM   16  H   UNL     1      -7.070   1.754 -33.716  1.00  0.00     0.163 HD
BRANCH  14  17
HETATM   17  C   UNL     1      -9.245   1.812 -32.527  1.00  0.00     0.072 A 
HETATM   18  S   UNL     1     -10.377   3.043 -32.917  1.00  0.00    -0.097 SA
HETATM   19  C   UNL     1     -11.518   1.912 -33.499  1.00  0.00     0.050 A 
HETATM   20  C   UNL     1     -11.052   0.620 -33.414  1.00  0.00     0.009 A 
HETATM   21  C   UNL     1      -9.741   0.564 -32.856  1.00  0.00     0.025 A 
ENDBRANCH  14  17
ENDBRANCH   1  13
BRANCH   1  22
HETATM   22  C   UNL     1      -4.883   3.434 -31.882  1.00  0.00     0.259 C 
HETATM   23  N   UNL     1      -5.143   3.764 -30.563  1.00  0.00    -0.264 N 
HETATM   24  H   UNL     1      -5.262   3.006 -29.890  1.00  0.00     0.190 HD
HETATM   25  O   UNL     1      -4.358   4.232 -32.663  1.00  0.00    -0.269 OA
BRANCH  23  26
HETATM   26  N   UNL     1      -4.495   4.906 -30.065  1.00  0.00    -0.249 N 
HETATM   27  C   UNL     1      -5.246   5.906 -29.518  1.00  0.00     0.339 C 
HETATM   28  N   UNL     1      -4.590   7.019 -29.079  1.00  0.00    -0.308 N 
HETATM   29  O   UNL     1      -6.474   5.852 -29.457  1.00  0.00    -0.245 OA
HETATM   30  H   UNL     1      -5.240   7.771 -28.884  1.00  0.00     0.170 HD
HETATM   31  H   UNL     1      -3.618   5.136 -30.520  1.00  0.00     0.192 HD
BRANCH  28  32
HETATM   32  C   UNL     1      -3.228   7.277 -28.830  1.00  0.00     0.036 A 
HETATM   33  C   UNL     1      -2.621   7.176 -27.574  1.00  0.00     0.031 A 
HETATM   34  C   UNL     1      -1.254   7.437 -27.422  1.00  0.00     0.026 A 
HETATM   35  C   UNL     1      -0.492   7.824 -28.521  1.00  0.00     0.034 A 
HETATM   36 CL   UNL     1       1.188   8.139 -28.335  1.00  0.00    -0.084 Cl
HETATM   37  C   UNL     1      -1.091   7.968 -29.769  1.00  0.00     0.026 A 
HETATM   38  C   UNL     1      -2.457   7.704 -29.919  1.00  0.00     0.031 A 
ENDBRANCH  28  32
ENDBRANCH  23  26
ENDBRANCH   1  22
TORSDOF 7
ENDMDL
