MODEL 1
REMARK VINA RESULT:      -8.0      0.000      0.000
REMARK  3 active torsions:
REMARK  status: ('A' for Active; 'I' for Inactive)
REMARK    1  A    between atoms: C_9  and  C_10 
REMARK    2  A    between atoms: C_16  and  C_17 
REMARK       I    between atoms: C_17  and  N_18 
REMARK    3  A    between atoms: N_18  and  C_19 
ROOT
HETATM    1  C   UNL     1      -3.578   1.974 -32.310  1.00  0.00     0.070 C 
HETATM    2  C   UNL     1      -4.986   2.340 -31.911  1.00  0.00     0.037 C 
HETATM    3  N   UNL     1      -5.194   3.682 -31.607  1.00  0.00    -0.191 N 
HETATM    4  C   UNL     1      -6.321   4.130 -31.013  1.00  0.00     0.735 A 
HETATM    5  N   UNL     1      -7.366   3.270 -30.823  1.00  0.00    -0.092 N 
HETATM    6  N   UNL     1      -8.354   3.881 -30.151  1.00  0.00     0.012 NA
HETATM    7  N   UNL     1      -7.920   5.127 -29.982  1.00  0.00     0.033 NA
HETATM    8  N   UNL     1      -6.654   5.295 -30.512  1.00  0.00     0.030 NA
HETATM    9  C   UNL     1      -7.376   1.871 -31.244  1.00  0.00     0.198 C 
HETATM   10  C   UNL     1      -6.004   1.454 -31.769  1.00  0.00     0.062 C 
HETATM   11  H   UNL     1      -4.389   4.303 -31.641  1.00  0.00     0.184 HD
ENDROOT
BRANCH  10  12
HETATM   12  C   UNL     1      -5.862  -0.008 -31.991  1.00  0.00     0.256 C 
HETATM   13  N   UNL     1      -5.889  -0.369 -33.320  1.00  0.00    -0.322 N 
HETATM   14  H   UNL     1      -6.035   0.367 -34.000  1.00  0.00     0.169 HD
HETATM   15  O   UNL     1      -5.783  -0.749 -31.021  1.00  0.00    -0.267 OA
BRANCH  13  16
HETATM   16  C   UNL     1      -5.730  -1.672 -33.836  1.00  0.00     0.052 A 
HETATM   17  C   UNL     1      -4.522  -2.359 -33.927  1.00  0.00     0.145 A 
HETATM   18  N   UNL     1      -4.393  -3.607 -34.446  1.00  0.00    -0.271 NA
HETATM   19  C   UNL     1      -5.516  -4.201 -34.899  1.00  0.00     0.116 A 
HETATM   20  C   UNL     1      -6.764  -3.606 -34.854  1.00  0.00     0.021 A 
HETATM   21  C   UNL     1      -6.870  -2.326 -34.312  1.00  0.00     0.032 A 
ENDBRANCH  13  16
ENDBRANCH  10  12
BRANCH   9  22
HETATM   22  C   UNL     1      -8.476   1.619 -32.273  1.00  0.00    -0.029 A 
HETATM   23  C   UNL     1      -9.378   0.547 -32.159  1.00  0.00     0.009 A 
HETATM   24  C   UNL     1     -10.380   0.356 -33.111  1.00  0.00     0.001 A 
HETATM   25  C   UNL     1     -10.508   1.241 -34.180  1.00  0.00     0.000 A 
HETATM   26  C   UNL     1      -9.634   2.319 -34.297  1.00  0.00     0.001 A 
HETATM   27  C   UNL     1      -8.627   2.511 -33.350  1.00  0.00     0.009 A 
ENDBRANCH   9  22
TORSDOF 3
ENDMDL
MODEL 2
REMARK VINA RESULT:      -7.9      3.420      6.088
REMARK  3 active torsions:
REMARK  status: ('A' for Active; 'I' for Inactive)
REMARK    1  A    between atoms: C_9  and  C_10 
REMARK    2  A    between atoms: C_16  and  C_17 
REMARK       I    between atoms: C_17  and  N_18 
REMARK    3  A    between atoms: N_18  and  C_19 
ROOT
HETATM    1  C   UNL     1      -9.792   5.082 -34.991  1.00  0.00     0.070 C 
HETATM    2  C   UNL     1      -9.956   3.657 -34.523  1.00  0.00     0.037 C 
HETATM    3  N   UNL     1     -11.108   3.011 -34.961  1.00  0.00    -0.191 N 
HETATM    4  C   UNL     1     -11.522   1.831 -34.452  1.00  0.00     0.735 A 
HETATM    5  N   UNL     1     -10.717   1.161 -33.573  1.00  0.00    -0.092 N 
HETATM    6  N   UNL     1     -11.336   0.058 -33.125  1.00  0.00     0.012 NA
HETATM    7  N   UNL     1     -12.496   0.040 -33.776  1.00  0.00     0.033 NA
HETATM    8  N   UNL     1     -12.625   1.139 -34.604  1.00  0.00     0.030 NA
HETATM    9  C   UNL     1      -9.397   1.617 -33.145  1.00  0.00     0.198 C 
HETATM   10  C   UNL     1      -9.109   3.019 -33.676  1.00  0.00     0.062 C 
HETATM   11  H   UNL     1     -11.764   3.547 -35.525  1.00  0.00     0.184 HD
ENDROOT
BRANCH  10  12
HETATM   12  C   UNL     1      -7.898   3.649 -33.091  1.00  0.00     0.256 C 
HETATM   13  N   UNL     1      -6.787   3.564 -33.902  1.00  0.00    -0.322 N 
HETATM   14  H   UNL     1      -6.885   3.066 -34.777  1.00  0.00     0.169 HD
HETATM   15  O   UNL     1      -7.963   4.130 -31.969  1.00  0.00    -0.267 OA
BRANCH  13  16
HETATM   16  C   UNL     1      -5.514   4.111 -33.635  1.00  0.00     0.052 A 
HETATM   17  C   UNL     1      -5.066   5.356 -34.067  1.00  0.00     0.145 A 
HETATM   18  N   UNL     1      -3.827   5.851 -33.812  1.00  0.00    -0.271 NA
HETATM   19  C   UNL     1      -2.993   5.071 -33.097  1.00  0.00     0.116 A 
HETATM   20  C   UNL     1      -3.338   3.819 -32.621  1.00  0.00     0.021 A 
HETATM   21  C   UNL     1      -4.618   3.337 -32.892  1.00  0.00     0.032 A 
ENDBRANCH  13  16
ENDBRANCH  10  12
BRANCH   9  22
HETATM   22  C   UNL     1      -8.315   0.622 -33.561  1.00  0.00    -0.029 A 
HETATM   23  C   UNL     1      -8.064   0.307 -34.908  1.00  0.00     0.009 A 
HETATM   24  C   UNL     1      -7.058  -0.596 -35.252  1.00  0.00     0.001 A 
HETATM   25  C   UNL     1      -6.277  -1.185 -34.260  1.00  0.00     0.000 A 
HETATM   26  C   UNL     1      -6.499  -0.869 -32.922  1.00  0.00     0.001 A 
HETATM   27  C   UNL     1      -7.508   0.030 -32.573  1.00  0.00     0.009 A 
ENDBRANCH   9  22
TORSDOF 3
ENDMDL
MODEL 3
REMARK VINA RESULT:      -7.8      2.175      4.017
REMARK  3 active torsions:
REMARK  status: ('A' for Active; 'I' for Inactive)
REMARK    1  A    between atoms: C_9  and  C_10 
REMARK    2  A    between atoms: C_16  and  C_17 
REMARK       I    between atoms: C_17  and  N_18 
REMARK    3  A    between atoms: N_18  and  C_19 
ROOT
HETATM    1  C   UNL     1     -10.557   0.159 -33.111  1.00  0.00     0.070 C 
HETATM    2  C   UNL     1      -9.720   1.409 -33.219  1.00  0.00     0.037 C 
HETATM    3  N   UNL     1     -10.420   2.576 -33.514  1.00  0.00    -0.191 N 
HETATM    4  C   UNL     1      -9.807   3.724 -33.874  1.00  0.00     0.735 A 
HETATM    5  N   UNL     1      -8.444   3.803 -33.816  1.00  0.00    -0.092 N 
HETATM    6  N   UNL     1      -8.028   4.988 -34.286  1.00  0.00     0.012 NA
HETATM    7  N   UNL     1      -9.148   5.642 -34.580  1.00  0.00     0.033 NA
HETATM    8  N   UNL     1     -10.264   4.865 -34.330  1.00  0.00     0.030 NA
HETATM    9  C   UNL     1      -7.570   2.725 -33.360  1.00  0.00     0.198 C 
HETATM   10  C   UNL     1      -8.367   1.446 -33.119  1.00  0.00     0.062 C 
HETATM   11  H   UNL     1     -11.423   2.497 -33.668  1.00  0.00     0.184 HD
ENDROOT
BRANCH  10  12
HETATM   12  C   UNL     1      -7.525   0.245 -32.887  1.00  0.00     0.256 C 
HETATM   13  N   UNL     1      -7.125  -0.380 -34.047  1.00  0.00    -0.322 N 
HETATM   14  H   UNL     1      -7.461   0.003 -34.922  1.00  0.00     0.169 HD
HETATM   15  O   UNL     1      -7.300  -0.109 -31.738  1.00  0.00    -0.267 OA
BRANCH  13  16
HETATM   16  C   UNL     1      -6.284  -1.509 -34.143  1.00  0.00     0.052 A 
HETATM   17  C   UNL     1      -4.937  -1.540 -33.792  1.00  0.00     0.145 A 
HETATM   18  N   UNL     1      -4.144  -2.636 -33.911  1.00  0.00    -0.271 NA
HETATM   19  C   UNL     1      -4.715  -3.753 -34.405  1.00  0.00     0.116 A 
HETATM   20  C   UNL     1      -6.043  -3.828 -34.783  1.00  0.00     0.021 A 
HETATM   21  C   UNL     1      -6.837  -2.690 -34.645  1.00  0.00     0.032 A 
ENDBRANCH  13  16
ENDBRANCH  10  12
BRANCH   9  22
HETATM   22  C   UNL     1      -6.788   3.147 -32.117  1.00  0.00    -0.029 A 
HETATM   23  C   UNL     1      -5.388   3.273 -32.119  1.00  0.00     0.009 A 
HETATM   24  C   UNL     1      -4.709   3.675 -30.968  1.00  0.00     0.001 A 
HETATM   25  C   UNL     1      -5.416   3.973 -29.806  1.00  0.00     0.000 A 
HETATM   26  C   UNL     1      -6.805   3.872 -29.793  1.00  0.00     0.001 A 
HETATM   27  C   UNL     1      -7.488   3.465 -30.939  1.00  0.00     0.009 A 
ENDBRANCH   9  22
TORSDOF 3
ENDMDL
MODEL 4
REMARK VINA RESULT:      -7.8      2.718      5.601
REMARK  3 active torsions:
REMARK  status: ('A' for Active; 'I' for Inactive)
REMARK    1  A    between atoms: C_9  and  C_10 
REMARK    2  A    between atoms: C_16  and  C_17 
REMARK       I    between atoms: C_17  and  N_18 
REMARK    3  A    between atoms: N_18  and  C_19 
ROOT
HETATM    1  C   UNL     1      -8.056   4.661 -30.150  1.00  0.00     0.070 C 
HETATM    2  C   UNL     1      -7.337   4.307 -31.429  1.00  0.00     0.037 C 
HETATM    3  N   UNL     1      -6.168   5.020 -31.678  1.00  0.00    -0.191 N 
HETATM    4  C   UNL     1      -5.539   4.996 -32.872  1.00  0.00     0.735 A 
HETATM    5  N   UNL     1      -5.972   4.135 -33.841  1.00  0.00    -0.092 N 
HETATM    6  N   UNL     1      -5.272   4.318 -34.971  1.00  0.00     0.012 NA
HETATM    7  N   UNL     1      -4.383   5.258 -34.663  1.00  0.00     0.033 NA
HETATM    8  N   UNL     1      -4.539   5.690 -33.359  1.00  0.00     0.030 NA
HETATM    9  C   UNL     1      -7.077   3.193 -33.680  1.00  0.00     0.198 C 
HETATM   10  C   UNL     1      -7.789   3.416 -32.348  1.00  0.00     0.062 C 
HETATM   11  H   UNL     1      -5.905   5.741 -31.010  1.00  0.00     0.184 HD
ENDROOT
BRANCH  10  12
HETATM   12  C   UNL     1      -9.064   2.666 -32.213  1.00  0.00     0.256 C 
HETATM   13  N   UNL     1     -10.052   3.102 -33.068  1.00  0.00    -0.322 N 
HETATM   14  H   UNL     1      -9.838   3.891 -33.665  1.00  0.00     0.169 HD
HETATM   15  O   UNL     1      -9.150   1.793 -31.361  1.00  0.00    -0.267 OA
BRANCH  13  16
HETATM   16  C   UNL     1     -11.345   2.553 -33.200  1.00  0.00     0.052 A 
HETATM   17  C   UNL     1     -12.520   3.140 -32.738  1.00  0.00     0.145 A 
HETATM   18  N   UNL     1     -13.751   2.581 -32.862  1.00  0.00    -0.271 NA
HETATM   19  C   UNL     1     -13.819   1.380 -33.471  1.00  0.00     0.116 A 
HETATM   20  C   UNL     1     -12.713   0.712 -33.966  1.00  0.00     0.021 A 
HETATM   21  C   UNL     1     -11.461   1.311 -33.830  1.00  0.00     0.032 A 
ENDBRANCH  13  16
ENDBRANCH  10  12
BRANCH   9  22
HETATM   22  C   UNL     1      -6.590   1.752 -33.826  1.00  0.00    -0.029 A 
HETATM   23  C   UNL     1      -5.628   1.195 -32.965  1.00  0.00     0.009 A 
HETATM   24  C   UNL     1      -5.218  -0.130 -33.120  1.00  0.00     0.001 A 
HETATM   25  C   UNL     1      -5.773  -0.922 -34.123  1.00  0.00     0.000 A 
HETATM   26  C   UNL     1      -6.741  -0.391 -34.971  1.00  0.00     0.001 A 
HETATM   27  C   UNL     1      -7.150   0.935 -34.824  1.00  0.00     0.009 A 
ENDBRANCH   9  22
TORSDOF 3
ENDMDL
MODEL 5
REMARK VINA RESULT:      -7.7      8.259     11.190
REMARK  3 active torsions:
REMARK  status: ('A' for Active; 'I' for Inactive)
REMARK    1  A    between atoms: C_9  and  C_10 
REMARK    2  A    between atoms: C_16  and  C_17 
REMARK       I    between atoms: C_17  and  N_18 
REMARK    3  A    between atoms: N_18  and  C_19 
ROOT
HETATM    1  C   UNL     1       0.882   4.750 -29.596  1.00  0.00     0.070 C 
HETATM    2  C   UNL     1      -0.011   5.746 -30.293  1.00  0.00     0.037 C 
HETATM    3  N   UNL     1      -0.275   5.480 -31.634  1.00  0.00    -0.191 N 
HETATM    4  C   UNL     1      -0.853   6.380 -32.457  1.00  0.00     0.735 A 
HETATM    5  N   UNL     1      -1.334   7.550 -31.939  1.00  0.00    -0.092 N 
HETATM    6  N   UNL     1      -1.796   8.338 -32.922  1.00  0.00     0.012 NA
HETATM    7  N   UNL     1      -1.637   7.617 -34.028  1.00  0.00     0.033 NA
HETATM    8  N   UNL     1      -1.049   6.396 -33.753  1.00  0.00     0.030 NA
HETATM    9  C   UNL     1      -1.296   7.908 -30.523  1.00  0.00     0.198 C 
HETATM   10  C   UNL     1      -0.497   6.879 -29.726  1.00  0.00     0.062 C 
HETATM   11  H   UNL     1       0.175   4.667 -32.050  1.00  0.00     0.184 HD
ENDROOT
BRANCH  10  12
HETATM   12  C   UNL     1      -0.207   7.292 -28.329  1.00  0.00     0.256 C 
HETATM   13  N   UNL     1       0.772   8.256 -28.232  1.00  0.00    -0.322 N 
HETATM   14  H   UNL     1       1.215   8.559 -29.090  1.00  0.00     0.169 HD
HETATM   15  O   UNL     1      -0.797   6.737 -27.413  1.00  0.00    -0.267 OA
BRANCH  13  16
HETATM   16  C   UNL     1       1.223   8.874 -27.046  1.00  0.00     0.052 A 
HETATM   17  C   UNL     1       0.944  10.183 -26.665  1.00  0.00     0.145 A 
HETATM   18  N   UNL     1       1.407  10.760 -25.525  1.00  0.00    -0.271 NA
HETATM   19  C   UNL     1       2.185  10.001 -24.728  1.00  0.00     0.116 A 
HETATM   20  C   UNL     1       2.522   8.690 -25.014  1.00  0.00     0.021 A 
HETATM   21  C   UNL     1       2.029   8.121 -26.188  1.00  0.00     0.032 A 
ENDBRANCH  13  16
ENDBRANCH  10  12
BRANCH   9  22
HETATM   22  C   UNL     1      -2.707   8.082 -29.966  1.00  0.00    -0.029 A 
HETATM   23  C   UNL     1      -3.188   9.324 -29.518  1.00  0.00     0.009 A 
HETATM   24  C   UNL     1      -4.489   9.449 -29.029  1.00  0.00     0.001 A 
HETATM   25  C   UNL     1      -5.334   8.341 -28.996  1.00  0.00     0.000 A 
HETATM   26  C   UNL     1      -4.879   7.107 -29.455  1.00  0.00     0.001 A 
HETATM   27  C   UNL     1      -3.577   6.977 -29.939  1.00  0.00     0.009 A 
ENDBRANCH   9  22
TORSDOF 3
ENDMDL
MODEL 6
REMARK VINA RESULT:      -7.6      2.386      3.988
REMARK  3 active torsions:
REMARK  status: ('A' for Active; 'I' for Inactive)
REMARK    1  A    between atoms: C_9  and  C_10 
REMARK    2  A    between atoms: C_16  and  C_17 
REMARK       I    between atoms: C_17  and  N_18 
REMARK    3  A    between atoms: N_18  and  C_19 
ROOT
HETATM    1  C   UNL     1      -5.675   0.871 -29.766  1.00  0.00     0.070 C 
HETATM    2  C   UNL     1      -5.604   2.269 -30.329  1.00  0.00     0.037 C 
HETATM    3  N   UNL     1      -5.479   3.289 -29.390  1.00  0.00    -0.191 N 
HETATM    4  C   UNL     1      -5.637   4.593 -29.702  1.00  0.00     0.735 A 
HETATM    5  N   UNL     1      -5.787   4.955 -31.012  1.00  0.00    -0.092 N 
HETATM    6  N   UNL     1      -6.008   6.274 -31.106  1.00  0.00     0.012 NA
HETATM    7  N   UNL     1      -5.941   6.713 -29.852  1.00  0.00     0.033 NA
HETATM    8  N   UNL     1      -5.712   5.676 -28.967  1.00  0.00     0.030 NA
HETATM    9  C   UNL     1      -5.764   4.024 -32.137  1.00  0.00     0.198 C 
HETATM   10  C   UNL     1      -5.722   2.579 -31.645  1.00  0.00     0.062 C 
HETATM   11  H   UNL     1      -5.480   3.026 -28.407  1.00  0.00     0.184 HD
ENDROOT
BRANCH  10  12
HETATM   12  C   UNL     1      -5.939   1.571 -32.714  1.00  0.00     0.256 C 
HETATM   13  N   UNL     1      -5.300   0.374 -32.480  1.00  0.00    -0.322 N 
HETATM   14  H   UNL     1      -4.731   0.304 -31.646  1.00  0.00     0.169 HD
HETATM   15  O   UNL     1      -6.598   1.882 -33.696  1.00  0.00    -0.267 OA
BRANCH  13  16
HETATM   16  C   UNL     1      -5.362  -0.780 -33.290  1.00  0.00     0.052 A 
HETATM   17  C   UNL     1      -4.263  -1.502 -33.747  1.00  0.00     0.145 A 
HETATM   18  N   UNL     1      -4.350  -2.599 -34.543  1.00  0.00    -0.271 NA
HETATM   19  C   UNL     1      -5.587  -2.997 -34.903  1.00  0.00     0.116 A 
HETATM   20  C   UNL     1      -6.743  -2.351 -34.503  1.00  0.00     0.021 A 
HETATM   21  C   UNL     1      -6.626  -1.230 -33.683  1.00  0.00     0.032 A 
ENDBRANCH  13  16
ENDBRANCH  10  12
BRANCH   9  22
HETATM   22  C   UNL     1      -4.602   4.335 -33.079  1.00  0.00    -0.029 A 
HETATM   23  C   UNL     1      -4.797   4.911 -34.346  1.00  0.00     0.009 A 
HETATM   24  C   UNL     1      -3.710   5.194 -35.173  1.00  0.00     0.001 A 
HETATM   25  C   UNL     1      -2.413   4.924 -34.742  1.00  0.00     0.000 A 
HETATM   26  C   UNL     1      -2.201   4.372 -33.481  1.00  0.00     0.001 A 
HETATM   27  C   UNL     1      -3.286   4.081 -32.653  1.00  0.00     0.009 A 
ENDBRANCH   9  22
TORSDOF 3
ENDMDL
MODEL 7
REMARK VINA RESULT:      -7.5     15.172     18.311
REMARK  3 active torsions:
REMARK  status: ('A' for Active; 'I' for Inactive)
REMARK    1  A    between atoms: C_9  and  C_10 
REMARK    2  A    between atoms: C_16  and  C_17 
REMARK       I    between atoms: C_17  and  N_18 
REMARK    3  A    between atoms: N_18  and  C_19 
ROOT
HETATM    1  C   UNL     1      -1.639 -14.624 -35.694  1.00  0.00     0.070 C 
HETATM    2  C   UNL     1      -0.948 -14.767 -37.027  1.00  0.00     0.037 C 
HETATM    3  N   UNL     1       0.232 -15.505 -37.015  1.00  0.00    -0.191 N 
HETATM    4  C   UNL     1       1.087 -15.531 -38.060  1.00  0.00     0.735 A 
HETATM    5  N   UNL     1       0.729 -14.931 -39.234  1.00  0.00    -0.092 N 
HETATM    6  N   UNL     1       1.739 -14.998 -40.116  1.00  0.00     0.012 NA
HETATM    7  N   UNL     1       2.687 -15.685 -39.484  1.00  0.00     0.033 NA
HETATM    8  N   UNL     1       2.295 -16.022 -38.202  1.00  0.00     0.030 NA
HETATM    9  C   UNL     1      -0.549 -14.265 -39.469  1.00  0.00     0.198 C 
HETATM   10  C   UNL     1      -1.361 -14.180 -38.179  1.00  0.00     0.062 C 
HETATM   11  H   UNL     1       0.558 -15.858 -36.118  1.00  0.00     0.184 HD
ENDROOT
BRANCH  10  12
HETATM   12  C   UNL     1      -2.560 -13.309 -38.277  1.00  0.00     0.256 C 
HETATM   13  N   UNL     1      -3.728 -14.004 -38.504  1.00  0.00    -0.322 N 
HETATM   14  H   UNL     1      -3.660 -15.008 -38.615  1.00  0.00     0.169 HD
HETATM   15  O   UNL     1      -2.420 -12.097 -38.200  1.00  0.00    -0.267 OA
BRANCH  13  16
HETATM   16  C   UNL     1      -5.024 -13.454 -38.594  1.00  0.00     0.052 A 
HETATM   17  C   UNL     1      -5.975 -13.465 -37.578  1.00  0.00     0.145 A 
HETATM   18  N   UNL     1      -7.224 -12.944 -37.698  1.00  0.00    -0.271 NA
HETATM   19  C   UNL     1      -7.544 -12.389 -38.883  1.00  0.00     0.116 A 
HETATM   20  C   UNL     1      -6.673 -12.326 -39.957  1.00  0.00     0.021 A 
HETATM   21  C   UNL     1      -5.396 -12.864 -39.805  1.00  0.00     0.032 A 
ENDBRANCH  13  16
ENDBRANCH  10  12
BRANCH   9  22
HETATM   22  C   UNL     1      -1.329 -14.959 -40.584  1.00  0.00    -0.029 A 
HETATM   23  C   UNL     1      -2.150 -14.251 -41.479  1.00  0.00     0.009 A 
HETATM   24  C   UNL     1      -2.836 -14.917 -42.494  1.00  0.00     0.001 A 
HETATM   25  C   UNL     1      -2.701 -16.296 -42.642  1.00  0.00     0.000 A 
HETATM   26  C   UNL     1      -1.877 -17.010 -41.776  1.00  0.00     0.001 A 
HETATM   27  C   UNL     1      -1.193 -16.349 -40.755  1.00  0.00     0.009 A 
ENDBRANCH   9  22
TORSDOF 3
ENDMDL
MODEL 8
REMARK VINA RESULT:      -7.4      2.658      6.205
REMARK  3 active torsions:
REMARK  status: ('A' for Active; 'I' for Inactive)
REMARK    1  A    between atoms: C_9  and  C_10 
REMARK    2  A    between atoms: C_16  and  C_17 
REMARK       I    between atoms: C_17  and  N_18 
REMARK    3  A    between atoms: N_18  and  C_19 
ROOT
HETATM    1  C   UNL     1      -2.842  -0.043 -31.033  1.00  0.00     0.070 C 
HETATM    2  C   UNL     1      -3.889  -0.363 -32.071  1.00  0.00     0.037 C 
HETATM    3  N   UNL     1      -3.976  -1.701 -32.444  1.00  0.00    -0.191 N 
HETATM    4  C   UNL     1      -4.685  -2.116 -33.515  1.00  0.00     0.735 A 
HETATM    5  N   UNL     1      -5.470  -1.221 -34.187  1.00  0.00    -0.092 N 
HETATM    6  N   UNL     1      -6.027  -1.806 -35.258  1.00  0.00     0.012 NA
HETATM    7  N   UNL     1      -5.615  -3.069 -35.200  1.00  0.00     0.033 NA
HETATM    8  N   UNL     1      -4.778  -3.276 -34.119  1.00  0.00     0.030 NA
HETATM    9  C   UNL     1      -5.628   0.184 -33.818  1.00  0.00     0.198 C 
HETATM   10  C   UNL     1      -4.672   0.558 -32.688  1.00  0.00     0.062 C 
HETATM   11  H   UNL     1      -3.314  -2.350 -32.024  1.00  0.00     0.184 HD
ENDROOT
BRANCH  10  12
HETATM   12  C   UNL     1      -4.599   2.017 -32.419  1.00  0.00     0.256 C 
HETATM   13  N   UNL     1      -3.580   2.651 -33.095  1.00  0.00    -0.322 N 
HETATM   14  H   UNL     1      -2.971   2.078 -33.666  1.00  0.00     0.169 HD
HETATM   15  O   UNL     1      -5.381   2.512 -31.620  1.00  0.00    -0.267 OA
BRANCH  13  16
HETATM   16  C   UNL     1      -3.296   4.033 -33.075  1.00  0.00     0.052 A 
HETATM   17  C   UNL     1      -3.989   5.007 -33.787  1.00  0.00     0.145 A 
HETATM   18  N   UNL     1      -3.683   6.330 -33.765  1.00  0.00    -0.271 NA
HETATM   19  C   UNL     1      -2.637   6.703 -33.001  1.00  0.00     0.116 A 
HETATM   20  C   UNL     1      -1.882   5.816 -32.255  1.00  0.00     0.021 A 
HETATM   21  C   UNL     1      -2.221   4.463 -32.292  1.00  0.00     0.032 A 
ENDBRANCH  13  16
ENDBRANCH  10  12
BRANCH   9  22
HETATM   22  C   UNL     1      -7.080   0.492 -33.457  1.00  0.00    -0.029 A 
HETATM   23  C   UNL     1      -7.675   0.016 -32.276  1.00  0.00     0.009 A 
HETATM   24  C   UNL     1      -9.000   0.330 -31.971  1.00  0.00     0.001 A 
HETATM   25  C   UNL     1      -9.744   1.136 -32.830  1.00  0.00     0.000 A 
HETATM   26  C   UNL     1      -9.163   1.631 -33.995  1.00  0.00     0.001 A 
HETATM   27  C   UNL     1      -7.840   1.315 -34.307  1.00  0.00     0.009 A 
ENDBRANCH   9  22
TORSDOF 3
ENDMDL
MODEL 9
REMARK VINA RESULT:      -7.2      2.669      5.561
REMARK  3 active torsions:
REMARK  status: ('A' for Active; 'I' for Inactive)
REMARK    1  A    between atoms: C_9  and  C_10 
REMARK    2  A    between atoms: C_16  and  C_17 
REMARK       I    between atoms: C_17  and  N_18 
REMARK    3  A    between atoms: N_18  and  C_19 
ROOT
HETATM    1  C   UNL     1      -6.398   4.784 -29.282  1.00  0.00     0.070 C 
HETATM    2  C   UNL     1      -5.432   4.282 -30.326  1.00  0.00     0.037 C 
HETATM    3  N   UNL     1      -4.178   4.887 -30.323  1.00  0.00    -0.191 N 
HETATM    4  C   UNL     1      -3.288   4.725 -31.325  1.00  0.00     0.735 A 
HETATM    5  N   UNL     1      -3.554   3.826 -32.320  1.00  0.00    -0.092 N 
HETATM    6  N   UNL     1      -2.592   3.870 -33.254  1.00  0.00     0.012 NA
HETATM    7  N   UNL     1      -1.721   4.764 -32.794  1.00  0.00     0.033 NA
HETATM    8  N   UNL     1      -2.143   5.305 -31.594  1.00  0.00     0.030 NA
HETATM    9  C   UNL     1      -4.744   2.982 -32.378  1.00  0.00     0.198 C 
HETATM   10  C   UNL     1      -5.729   3.358 -31.274  1.00  0.00     0.062 C 
HETATM   11  H   UNL     1      -4.018   5.636 -29.654  1.00  0.00     0.184 HD
ENDROOT
BRANCH  10  12
HETATM   12  C   UNL     1      -7.062   2.715 -31.410  1.00  0.00     0.256 C 
HETATM   13  N   UNL     1      -7.833   3.255 -32.415  1.00  0.00    -0.322 N 
HETATM   14  H   UNL     1      -7.450   4.038 -32.929  1.00  0.00     0.169 HD
HETATM   15  O   UNL     1      -7.375   1.830 -30.626  1.00  0.00    -0.267 OA
BRANCH  13  16
HETATM   16  C   UNL     1      -9.117   2.821 -32.808  1.00  0.00     0.052 A 
HETATM   17  C   UNL     1     -10.320   3.385 -32.392  1.00  0.00     0.145 A 
HETATM   18  N   UNL     1     -11.544   2.935 -32.772  1.00  0.00    -0.271 NA
HETATM   19  C   UNL     1     -11.575   1.873 -33.602  1.00  0.00     0.116 A 
HETATM   20  C   UNL     1     -10.439   1.240 -34.073  1.00  0.00     0.021 A 
HETATM   21  C   UNL     1      -9.195   1.725 -33.672  1.00  0.00     0.032 A 
ENDBRANCH  13  16
ENDBRANCH  10  12
BRANCH   9  22
HETATM   22  C   UNL     1      -4.367   1.502 -32.319  1.00  0.00    -0.029 A 
HETATM   23  C   UNL     1      -3.458   0.998 -31.372  1.00  0.00     0.009 A 
HETATM   24  C   UNL     1      -3.148  -0.362 -31.339  1.00  0.00     0.001 A 
HETATM   25  C   UNL     1      -3.752  -1.240 -32.235  1.00  0.00     0.000 A 
HETATM   26  C   UNL     1      -4.670  -0.759 -33.166  1.00  0.00     0.001 A 
HETATM   27  C   UNL     1      -4.979   0.601 -33.208  1.00  0.00     0.009 A 
ENDBRANCH   9  22
TORSDOF 3
ENDMDL
MODEL 10
REMARK VINA RESULT:      -7.2      3.043      6.241
REMARK  3 active torsions:
REMARK  status: ('A' for Active; 'I' for Inactive)
REMARK    1  A    between atoms: C_9  and  C_10 
REMARK    2  A    between atoms: C_16  and  C_17 
REMARK       I    between atoms: C_17  and  N_18 
REMARK    3  A    between atoms: N_18  and  C_19 
ROOT
HETATM    1  C   UNL     1      -2.991   0.359 -31.221  1.00  0.00     0.070 C 
HETATM    2  C   UNL     1      -4.225   0.503 -32.077  1.00  0.00     0.037 C 
HETATM    3  N   UNL     1      -4.817  -0.689 -32.483  1.00  0.00    -0.191 N 
HETATM    4  C   UNL     1      -5.775  -0.743 -33.432  1.00  0.00     0.735 A 
HETATM    5  N   UNL     1      -6.297   0.421 -33.925  1.00  0.00    -0.092 N 
HETATM    6  N   UNL     1      -7.171   0.158 -34.907  1.00  0.00     0.012 NA
HETATM    7  N   UNL     1      -7.211  -1.170 -34.971  1.00  0.00     0.033 NA
HETATM    8  N   UNL     1      -6.345  -1.744 -34.058  1.00  0.00     0.030 NA
HETATM    9  C   UNL     1      -5.910   1.757 -33.478  1.00  0.00     0.198 C 
HETATM   10  C   UNL     1      -4.729   1.685 -32.514  1.00  0.00     0.062 C 
HETATM   11  H   UNL     1      -4.363  -1.558 -32.208  1.00  0.00     0.184 HD
ENDROOT
BRANCH  10  12
HETATM   12  C   UNL     1      -4.123   3.006 -32.203  1.00  0.00     0.256 C 
HETATM   13  N   UNL     1      -3.239   3.445 -33.163  1.00  0.00    -0.322 N 
HETATM   14  H   UNL     1      -3.061   2.833 -33.949  1.00  0.00     0.169 HD
HETATM   15  O   UNL     1      -4.406   3.553 -31.147  1.00  0.00    -0.267 OA
BRANCH  13  16
HETATM   16  C   UNL     1      -2.551   4.677 -33.164  1.00  0.00     0.052 A 
HETATM   17  C   UNL     1      -2.830   5.753 -34.002  1.00  0.00     0.145 A 
HETATM   18  N   UNL     1      -2.140   6.923 -33.996  1.00  0.00    -0.271 NA
HETATM   19  C   UNL     1      -1.122   7.028 -33.119  1.00  0.00     0.116 A 
HETATM   20  C   UNL     1      -0.762   6.019 -32.243  1.00  0.00     0.021 A 
HETATM   21  C   UNL     1      -1.491   4.830 -32.266  1.00  0.00     0.032 A 
ENDBRANCH  13  16
ENDBRANCH  10  12
BRANCH   9  22
HETATM   22  C   UNL     1      -7.100   2.491 -32.862  1.00  0.00    -0.029 A 
HETATM   23  C   UNL     1      -7.664   3.635 -33.454  1.00  0.00     0.009 A 
HETATM   24  C   UNL     1      -8.760   4.271 -32.871  1.00  0.00     0.001 A 
HETATM   25  C   UNL     1      -9.319   3.767 -31.699  1.00  0.00     0.000 A 
HETATM   26  C   UNL     1      -8.784   2.623 -31.110  1.00  0.00     0.001 A 
HETATM   27  C   UNL     1      -7.685   1.987 -31.687  1.00  0.00     0.009 A 
ENDBRANCH   9  22
TORSDOF 3
ENDMDL
