MODEL 1
REMARK VINA RESULT:      -8.7      0.000      0.000
REMARK  5 active torsions:
REMARK  status: ('A' for Active; 'I' for Inactive)
REMARK    1  A    between atoms: C_2  and  O_3 
REMARK    2  A    between atoms: O_3  and  C_4 
REMARK    3  A    between atoms: C_7  and  C_8 
REMARK       I    between atoms: C_8  and  N_9 
REMARK    4  A    between atoms: N_9  and  N_10 
REMARK    5  A    between atoms: C_11  and  C_12 
ROOT
HETATM    1  C   UNL     1     -10.909   1.384 -33.538  1.00  0.00     0.271 C 
HETATM    2  N   UNL     1     -10.359   0.270 -32.915  1.00  0.00    -0.243 N 
HETATM    3  O   UNL     1     -10.282   2.250 -34.142  1.00  0.00    -0.266 OA
HETATM    4  H   UNL     1     -10.964  -0.518 -32.706  1.00  0.00     0.192 HD
ENDROOT
BRANCH   2   5
HETATM    5  N   UNL     1      -9.025  -0.058 -32.859  1.00  0.00    -0.183 NA
HETATM    6  C   UNL     1      -8.410  -0.380 -33.951  1.00  0.00     0.153 C 
BRANCH   6   7
HETATM    7  C   UNL     1      -7.007  -0.762 -33.917  1.00  0.00     0.018 A 
HETATM    8  C   UNL     1      -6.494  -2.072 -34.205  1.00  0.00     0.004 A 
HETATM    9  C   UNL     1      -5.108  -2.021 -34.068  1.00  0.00     0.043 A 
HETATM   10  C   UNL     1      -7.086  -3.304 -34.563  1.00  0.00     0.014 A 
HETATM   11  C   UNL     1      -4.281  -3.133 -34.276  1.00  0.00     0.030 A 
HETATM   12  N   UNL     1      -4.787  -0.735 -33.710  1.00  0.00    -0.358 N 
HETATM   13  C   UNL     1      -4.893  -4.338 -34.631  1.00  0.00     0.002 A 
HETATM   14  C   UNL     1      -6.276  -4.425 -34.773  1.00  0.00     0.001 A 
HETATM   15  H   UNL     1      -3.844  -0.412 -33.542  1.00  0.00     0.166 HD
HETATM   16  C   UNL     1      -5.915   0.042 -33.615  1.00  0.00     0.018 A 
HETATM   17  C   UNL     1      -5.829   1.480 -33.249  1.00  0.00     0.069 C 
ENDBRANCH   6   7
ENDBRANCH   2   5
BRANCH   1  18
HETATM   18  C   UNL     1     -12.397   1.497 -33.472  1.00  0.00     0.033 A 
HETATM   19  C   UNL     1     -13.252   0.473 -33.893  1.00  0.00     0.020 A 
HETATM   20  C   UNL     1     -14.637   0.622 -33.764  1.00  0.00     0.038 A 
HETATM   21  C   UNL     1     -15.183   1.775 -33.194  1.00  0.00     0.068 A 
HETATM   22  C   UNL     1     -14.334   2.800 -32.780  1.00  0.00     0.038 A 
HETATM   23  C   UNL     1     -12.949   2.659 -32.914  1.00  0.00     0.020 A 
BRANCH  21  24
HETATM   24  O   UNL     1     -16.547   1.782 -33.103  1.00  0.00    -0.352 OA
BRANCH  24  25
HETATM   25  C   UNL     1     -17.115   2.633 -32.106  1.00  0.00     0.171 C 
HETATM   26  C   UNL     1     -18.367   3.264 -32.687  1.00  0.00     0.034 C 
ENDBRANCH  24  25
ENDBRANCH  21  24
ENDBRANCH   1  18
TORSDOF 5
ENDMDL
MODEL 2
REMARK VINA RESULT:      -8.2      2.584      3.170
REMARK  5 active torsions:
REMARK  status: ('A' for Active; 'I' for Inactive)
REMARK    1  A    between atoms: C_2  and  O_3 
REMARK    2  A    between atoms: O_3  and  C_4 
REMARK    3  A    between atoms: C_7  and  C_8 
REMARK       I    between atoms: C_8  and  N_9 
REMARK    4  A    between atoms: N_9  and  N_10 
REMARK    5  A    between atoms: C_11  and  C_12 
ROOT
HETATM    1  C   UNL     1      -9.876   0.766 -33.707  1.00  0.00     0.271 C 
HETATM    2  N   UNL     1      -8.540   0.766 -34.090  1.00  0.00    -0.243 N 
HETATM    3  O   UNL     1     -10.401  -0.035 -32.939  1.00  0.00    -0.266 OA
HETATM    4  H   UNL     1      -8.146   1.615 -34.481  1.00  0.00     0.192 HD
ENDROOT
BRANCH   2   5
HETATM    5  N   UNL     1      -7.576  -0.128 -33.687  1.00  0.00    -0.183 NA
HETATM    6  C   UNL     1      -6.383  -0.031 -34.180  1.00  0.00     0.153 C 
BRANCH   6   7
HETATM    7  C   UNL     1      -5.352  -0.983 -33.796  1.00  0.00     0.018 A 
HETATM    8  C   UNL     1      -5.348  -2.381 -34.120  1.00  0.00     0.004 A 
HETATM    9  C   UNL     1      -4.191  -2.936 -33.578  1.00  0.00     0.043 A 
HETATM   10  C   UNL     1      -6.232  -3.231 -34.822  1.00  0.00     0.014 A 
HETATM   11  C   UNL     1      -3.866  -4.293 -33.704  1.00  0.00     0.030 A 
HETATM   12  N   UNL     1      -3.516  -1.920 -32.946  1.00  0.00    -0.358 N 
HETATM   13  C   UNL     1      -4.757  -5.111 -34.405  1.00  0.00     0.002 A 
HETATM   14  C   UNL     1      -5.924  -4.590 -34.957  1.00  0.00     0.001 A 
HETATM   15  H   UNL     1      -2.637  -2.039 -32.462  1.00  0.00     0.166 HD
HETATM   16  C   UNL     1      -4.196  -0.733 -33.067  1.00  0.00     0.018 A 
HETATM   17  C   UNL     1      -3.663   0.521 -32.473  1.00  0.00     0.069 C 
ENDBRANCH   6   7
ENDBRANCH   2   5
BRANCH   1  18
HETATM   18  C   UNL     1     -10.714   1.865 -34.274  1.00  0.00     0.033 A 
HETATM   19  C   UNL     1     -10.203   3.136 -34.559  1.00  0.00     0.020 A 
HETATM   20  C   UNL     1     -11.029   4.108 -35.131  1.00  0.00     0.038 A 
HETATM   21  C   UNL     1     -12.360   3.822 -35.448  1.00  0.00     0.068 A 
HETATM   22  C   UNL     1     -12.873   2.558 -35.160  1.00  0.00     0.038 A 
HETATM   23  C   UNL     1     -12.053   1.585 -34.580  1.00  0.00     0.020 A 
BRANCH  21  24
HETATM   24  O   UNL     1     -13.048   4.851 -36.027  1.00  0.00    -0.352 OA
BRANCH  24  25
HETATM   25  C   UNL     1     -12.886   6.140 -35.433  1.00  0.00     0.171 C 
HETATM   26  C   UNL     1     -13.731   7.127 -36.218  1.00  0.00     0.034 C 
ENDBRANCH  24  25
ENDBRANCH  21  24
ENDBRANCH   1  18
TORSDOF 5
ENDMDL
MODEL 3
REMARK VINA RESULT:      -8.1      6.264     10.768
REMARK  5 active torsions:
REMARK  status: ('A' for Active; 'I' for Inactive)
REMARK    1  A    between atoms: C_2  and  O_3 
REMARK    2  A    between atoms: O_3  and  C_4 
REMARK    3  A    between atoms: C_7  and  C_8 
REMARK       I    between atoms: C_8  and  N_9 
REMARK    4  A    between atoms: N_9  and  N_10 
REMARK    5  A    between atoms: C_11  and  C_12 
ROOT
HETATM    1  C   UNL     1      -2.088   4.383 -32.263  1.00  0.00     0.271 C 
HETATM    2  N   UNL     1      -2.811   3.316 -31.743  1.00  0.00    -0.243 N 
HETATM    3  O   UNL     1      -1.875   4.592 -33.454  1.00  0.00    -0.266 OA
HETATM    4  H   UNL     1      -3.174   3.388 -30.798  1.00  0.00     0.192 HD
ENDROOT
BRANCH   2   5
HETATM    5  N   UNL     1      -3.408   2.308 -32.463  1.00  0.00    -0.183 NA
HETATM    6  C   UNL     1      -3.852   1.265 -31.837  1.00  0.00     0.153 C 
BRANCH   6   7
HETATM    7  C   UNL     1      -4.459   0.169 -32.576  1.00  0.00     0.018 A 
HETATM    8  C   UNL     1      -5.589   0.284 -33.453  1.00  0.00     0.004 A 
HETATM    9  C   UNL     1      -5.853  -0.984 -33.967  1.00  0.00     0.043 A 
HETATM   10  C   UNL     1      -6.422   1.353 -33.852  1.00  0.00     0.014 A 
HETATM   11  C   UNL     1      -6.899  -1.240 -34.863  1.00  0.00     0.030 A 
HETATM   12  N   UNL     1      -4.924  -1.839 -33.426  1.00  0.00    -0.358 N 
HETATM   13  C   UNL     1      -7.706  -0.163 -35.242  1.00  0.00     0.002 A 
HETATM   14  C   UNL     1      -7.473   1.116 -34.745  1.00  0.00     0.001 A 
HETATM   15  H   UNL     1      -4.879  -2.828 -33.626  1.00  0.00     0.166 HD
HETATM   16  C   UNL     1      -4.072  -1.164 -32.586  1.00  0.00     0.018 A 
HETATM   17  C   UNL     1      -2.969  -1.871 -31.883  1.00  0.00     0.069 C 
ENDBRANCH   6   7
ENDBRANCH   2   5
BRANCH   1  18
HETATM   18  C   UNL     1      -1.559   5.358 -31.262  1.00  0.00     0.033 A 
HETATM   19  C   UNL     1      -0.222   5.366 -30.848  1.00  0.00     0.020 A 
HETATM   20  C   UNL     1       0.221   6.334 -29.940  1.00  0.00     0.038 A 
HETATM   21  C   UNL     1      -0.650   7.313 -29.454  1.00  0.00     0.068 A 
HETATM   22  C   UNL     1      -1.983   7.303 -29.860  1.00  0.00     0.038 A 
HETATM   23  C   UNL     1      -2.433   6.333 -30.762  1.00  0.00     0.020 A 
BRANCH  21  24
HETATM   24  O   UNL     1      -0.083   8.213 -28.596  1.00  0.00    -0.352 OA
BRANCH  24  25
HETATM   25  C   UNL     1       1.001   7.736 -27.798  1.00  0.00     0.171 C 
HETATM   26  C   UNL     1       1.810   8.936 -27.339  1.00  0.00     0.034 C 
ENDBRANCH  24  25
ENDBRANCH  21  24
ENDBRANCH   1  18
TORSDOF 5
ENDMDL
MODEL 4
REMARK VINA RESULT:      -8.0      5.966     10.440
REMARK  5 active torsions:
REMARK  status: ('A' for Active; 'I' for Inactive)
REMARK    1  A    between atoms: C_2  and  O_3 
REMARK    2  A    between atoms: O_3  and  C_4 
REMARK    3  A    between atoms: C_7  and  C_8 
REMARK       I    between atoms: C_8  and  N_9 
REMARK    4  A    between atoms: N_9  and  N_10 
REMARK    5  A    between atoms: C_11  and  C_12 
ROOT
HETATM    1  C   UNL     1      -2.734   4.349 -32.628  1.00  0.00     0.271 C 
HETATM    2  N   UNL     1      -3.568   3.464 -31.955  1.00  0.00    -0.243 N 
HETATM    3  O   UNL     1      -2.720   4.539 -33.840  1.00  0.00    -0.266 OA
HETATM    4  H   UNL     1      -3.708   3.589 -30.958  1.00  0.00     0.192 HD
ENDROOT
BRANCH   2   5
HETATM    5  N   UNL     1      -4.514   2.644 -32.523  1.00  0.00    -0.183 NA
HETATM    6  C   UNL     1      -4.902   1.590 -31.879  1.00  0.00     0.153 C 
BRANCH   6   7
HETATM    7  C   UNL     1      -5.878   0.687 -32.470  1.00  0.00     0.018 A 
HETATM    8  C   UNL     1      -5.570  -0.524 -33.177  1.00  0.00     0.004 A 
HETATM    9  C   UNL     1      -6.775  -1.098 -33.575  1.00  0.00     0.043 A 
HETATM   10  C   UNL     1      -4.369  -1.183 -33.523  1.00  0.00     0.014 A 
HETATM   11  C   UNL     1      -6.846  -2.297 -34.295  1.00  0.00     0.030 A 
HETATM   12  N   UNL     1      -7.779  -0.272 -33.132  1.00  0.00    -0.358 N 
HETATM   13  C   UNL     1      -5.643  -2.929 -34.623  1.00  0.00     0.002 A 
HETATM   14  C   UNL     1      -4.421  -2.381 -34.244  1.00  0.00     0.001 A 
HETATM   15  H   UNL     1      -8.763  -0.444 -33.282  1.00  0.00     0.166 HD
HETATM   16  C   UNL     1      -7.261   0.809 -32.461  1.00  0.00     0.018 A 
HETATM   17  C   UNL     1      -8.150   1.847 -31.875  1.00  0.00     0.069 C 
ENDBRANCH   6   7
ENDBRANCH   2   5
BRANCH   1  18
HETATM   18  C   UNL     1      -1.804   5.144 -31.769  1.00  0.00     0.033 A 
HETATM   19  C   UNL     1      -0.422   5.179 -31.983  1.00  0.00     0.020 A 
HETATM   20  C   UNL     1       0.390   5.978 -31.171  1.00  0.00     0.038 A 
HETATM   21  C   UNL     1      -0.164   6.766 -30.159  1.00  0.00     0.068 A 
HETATM   22  C   UNL     1      -1.540   6.728 -29.940  1.00  0.00     0.038 A 
HETATM   23  C   UNL     1      -2.355   5.924 -30.743  1.00  0.00     0.020 A 
BRANCH  21  24
HETATM   24  O   UNL     1       0.736   7.519 -29.458  1.00  0.00    -0.352 OA
BRANCH  24  25
HETATM   25  C   UNL     1       0.675   7.424 -28.035  1.00  0.00     0.171 C 
HETATM   26  C   UNL     1       1.536   8.531 -27.453  1.00  0.00     0.034 C 
ENDBRANCH  24  25
ENDBRANCH  21  24
ENDBRANCH   1  18
TORSDOF 5
ENDMDL
MODEL 5
REMARK VINA RESULT:      -7.8      5.952      9.740
REMARK  5 active torsions:
REMARK  status: ('A' for Active; 'I' for Inactive)
REMARK    1  A    between atoms: C_2  and  O_3 
REMARK    2  A    between atoms: O_3  and  C_4 
REMARK    3  A    between atoms: C_7  and  C_8 
REMARK       I    between atoms: C_8  and  N_9 
REMARK    4  A    between atoms: N_9  and  N_10 
REMARK    5  A    between atoms: C_11  and  C_12 
ROOT
HETATM    1  C   UNL     1      -5.447   1.059 -31.929  1.00  0.00     0.271 C 
HETATM    2  N   UNL     1      -4.259   1.776 -32.001  1.00  0.00    -0.243 N 
HETATM    3  O   UNL     1      -6.412   1.339 -31.225  1.00  0.00    -0.266 OA
HETATM    4  H   UNL     1      -3.656   1.641 -32.806  1.00  0.00     0.192 HD
ENDROOT
BRANCH   2   5
HETATM    5  N   UNL     1      -3.951   2.916 -31.296  1.00  0.00    -0.183 NA
HETATM    6  C   UNL     1      -3.575   3.973 -31.942  1.00  0.00     0.153 C 
BRANCH   6   7
HETATM    7  C   UNL     1      -3.213   5.183 -31.221  1.00  0.00     0.018 A 
HETATM    8  C   UNL     1      -1.874   5.652 -31.003  1.00  0.00     0.004 A 
HETATM    9  C   UNL     1      -1.955   6.840 -30.281  1.00  0.00     0.043 A 
HETATM   10  C   UNL     1      -0.593   5.168 -31.350  1.00  0.00     0.014 A 
HETATM   11  C   UNL     1      -0.828   7.574 -29.891  1.00  0.00     0.030 A 
HETATM   12  N   UNL     1      -3.289   7.087 -30.063  1.00  0.00    -0.358 N 
HETATM   13  C   UNL     1       0.427   7.072 -30.249  1.00  0.00     0.002 A 
HETATM   14  C   UNL     1       0.546   5.886 -30.968  1.00  0.00     0.001 A 
HETATM   15  H   UNL     1      -3.643   7.889 -29.559  1.00  0.00     0.166 HD
HETATM   16  C   UNL     1      -4.066   6.103 -30.623  1.00  0.00     0.018 A 
HETATM   17  C   UNL     1      -5.548   6.149 -30.531  1.00  0.00     0.069 C 
ENDBRANCH   6   7
ENDBRANCH   2   5
BRANCH   1  18
HETATM   18  C   UNL     1      -5.537  -0.138 -32.820  1.00  0.00     0.033 A 
HETATM   19  C   UNL     1      -6.743  -0.576 -33.378  1.00  0.00     0.020 A 
HETATM   20  C   UNL     1      -6.753  -1.677 -34.240  1.00  0.00     0.038 A 
HETATM   21  C   UNL     1      -5.568  -2.337 -34.574  1.00  0.00     0.068 A 
HETATM   22  C   UNL     1      -4.366  -1.907 -34.014  1.00  0.00     0.038 A 
HETATM   23  C   UNL     1      -4.351  -0.811 -33.145  1.00  0.00     0.020 A 
BRANCH  21  24
HETATM   24  O   UNL     1      -5.715  -3.379 -35.445  1.00  0.00    -0.352 OA
BRANCH  24  25
HETATM   25  C   UNL     1      -6.033  -4.649 -34.874  1.00  0.00     0.171 C 
HETATM   26  C   UNL     1      -4.759  -5.236 -34.296  1.00  0.00     0.034 C 
ENDBRANCH  24  25
ENDBRANCH  21  24
ENDBRANCH   1  18
TORSDOF 5
ENDMDL
MODEL 6
REMARK VINA RESULT:      -7.6      2.480      2.594
REMARK  5 active torsions:
REMARK  status: ('A' for Active; 'I' for Inactive)
REMARK    1  A    between atoms: C_2  and  O_3 
REMARK    2  A    between atoms: O_3  and  C_4 
REMARK    3  A    between atoms: C_7  and  C_8 
REMARK       I    between atoms: C_8  and  N_9 
REMARK    4  A    between atoms: N_9  and  N_10 
REMARK    5  A    between atoms: C_11  and  C_12 
ROOT
HETATM    1  C   UNL     1      -9.939   1.159 -34.024  1.00  0.00     0.271 C 
HETATM    2  N   UNL     1      -8.741   1.262 -34.719  1.00  0.00    -0.243 N 
HETATM    3  O   UNL     1     -10.266   0.228 -33.294  1.00  0.00    -0.266 OA
HETATM    4  H   UNL     1      -8.446   2.175 -35.048  1.00  0.00     0.192 HD
ENDROOT
BRANCH   2   5
HETATM    5  N   UNL     1      -7.717   0.344 -34.720  1.00  0.00    -0.183 NA
HETATM    6  C   UNL     1      -6.983   0.219 -33.662  1.00  0.00     0.153 C 
BRANCH   6   7
HETATM    7  C   UNL     1      -5.873  -0.721 -33.646  1.00  0.00     0.018 A 
HETATM    8  C   UNL     1      -5.931  -2.083 -34.095  1.00  0.00     0.004 A 
HETATM    9  C   UNL     1      -4.666  -2.639 -33.921  1.00  0.00     0.043 A 
HETATM   10  C   UNL     1      -6.952  -2.901 -34.630  1.00  0.00     0.014 A 
HETATM   11  C   UNL     1      -4.363  -3.965 -34.256  1.00  0.00     0.030 A 
HETATM   12  N   UNL     1      -3.867  -1.658 -33.385  1.00  0.00    -0.358 N 
HETATM   13  C   UNL     1      -5.391  -4.750 -34.785  1.00  0.00     0.002 A 
HETATM   14  C   UNL     1      -6.668  -4.229 -34.969  1.00  0.00     0.001 A 
HETATM   15  H   UNL     1      -2.891  -1.785 -33.153  1.00  0.00     0.166 HD
HETATM   16  C   UNL     1      -4.573  -0.493 -33.213  1.00  0.00     0.018 A 
HETATM   17  C   UNL     1      -3.925   0.722 -32.655  1.00  0.00     0.069 C 
ENDBRANCH   6   7
ENDBRANCH   2   5
BRANCH   1  18
HETATM   18  C   UNL     1     -10.879   2.310 -34.176  1.00  0.00     0.033 A 
HETATM   19  C   UNL     1     -11.800   2.401 -35.226  1.00  0.00     0.020 A 
HETATM   20  C   UNL     1     -12.683   3.483 -35.288  1.00  0.00     0.038 A 
HETATM   21  C   UNL     1     -12.679   4.470 -34.299  1.00  0.00     0.068 A 
HETATM   22  C   UNL     1     -11.758   4.385 -33.255  1.00  0.00     0.038 A 
HETATM   23  C   UNL     1     -10.867   3.309 -33.193  1.00  0.00     0.020 A 
BRANCH  21  24
HETATM   24  O   UNL     1     -13.610   5.456 -34.465  1.00  0.00    -0.352 OA
BRANCH  24  25
HETATM   25  C   UNL     1     -13.704   6.426 -33.420  1.00  0.00     0.171 C 
HETATM   26  C   UNL     1     -15.175   6.707 -33.173  1.00  0.00     0.034 C 
ENDBRANCH  24  25
ENDBRANCH  21  24
ENDBRANCH   1  18
TORSDOF 5
ENDMDL
MODEL 7
REMARK VINA RESULT:      -7.6      2.680      9.569
REMARK  5 active torsions:
REMARK  status: ('A' for Active; 'I' for Inactive)
REMARK    1  A    between atoms: C_2  and  O_3 
REMARK    2  A    between atoms: O_3  and  C_4 
REMARK    3  A    between atoms: C_7  and  C_8 
REMARK       I    between atoms: C_8  and  N_9 
REMARK    4  A    between atoms: N_9  and  N_10 
REMARK    5  A    between atoms: C_11  and  C_12 
ROOT
HETATM    1  C   UNL     1      -7.987   0.335 -32.946  1.00  0.00     0.271 C 
HETATM    2  N   UNL     1      -9.295   0.015 -33.287  1.00  0.00    -0.243 N 
HETATM    3  O   UNL     1      -7.634   1.321 -32.307  1.00  0.00    -0.266 OA
HETATM    4  H   UNL     1      -9.510  -0.942 -33.550  1.00  0.00     0.192 HD
ENDROOT
BRANCH   2   5
HETATM    5  N   UNL     1     -10.420   0.743 -32.978  1.00  0.00    -0.183 NA
HETATM    6  C   UNL     1     -11.090   1.302 -33.934  1.00  0.00     0.153 C 
BRANCH   6   7
HETATM    7  C   UNL     1     -12.265   2.105 -33.634  1.00  0.00     0.018 A 
HETATM    8  C   UNL     1     -12.257   3.507 -33.326  1.00  0.00     0.004 A 
HETATM    9  C   UNL     1     -13.577   3.898 -33.108  1.00  0.00     0.043 A 
HETATM   10  C   UNL     1     -11.243   4.483 -33.203  1.00  0.00     0.014 A 
HETATM   11  C   UNL     1     -13.939   5.211 -32.781  1.00  0.00     0.030 A 
HETATM   12  N   UNL     1     -14.359   2.781 -33.275  1.00  0.00    -0.358 N 
HETATM   13  C   UNL     1     -12.915   6.156 -32.669  1.00  0.00     0.002 A 
HETATM   14  C   UNL     1     -11.585   5.799 -32.875  1.00  0.00     0.001 A 
HETATM   15  H   UNL     1     -15.365   2.773 -33.175  1.00  0.00     0.166 HD
HETATM   16  C   UNL     1     -13.590   1.689 -33.594  1.00  0.00     0.018 A 
HETATM   17  C   UNL     1     -14.207   0.359 -33.834  1.00  0.00     0.069 C 
ENDBRANCH   6   7
ENDBRANCH   2   5
BRANCH   1  18
HETATM   18  C   UNL     1      -6.944  -0.641 -33.387  1.00  0.00     0.033 A 
HETATM   19  C   UNL     1      -7.251  -1.808 -34.095  1.00  0.00     0.020 A 
HETATM   20  C   UNL     1      -6.225  -2.658 -34.518  1.00  0.00     0.038 A 
HETATM   21  C   UNL     1      -4.886  -2.347 -34.265  1.00  0.00     0.068 A 
HETATM   22  C   UNL     1      -4.578  -1.188 -33.554  1.00  0.00     0.038 A 
HETATM   23  C   UNL     1      -5.601  -0.338 -33.122  1.00  0.00     0.020 A 
BRANCH  21  24
HETATM   24  O   UNL     1      -3.983  -3.247 -34.755  1.00  0.00    -0.352 OA
BRANCH  24  25
HETATM   25  C   UNL     1      -3.964  -4.533 -34.135  1.00  0.00     0.171 C 
HETATM   26  C   UNL     1      -3.295  -4.390 -32.780  1.00  0.00     0.034 C 
ENDBRANCH  24  25
ENDBRANCH  21  24
ENDBRANCH   1  18
TORSDOF 5
ENDMDL
MODEL 8
REMARK VINA RESULT:      -7.5      6.348     10.393
REMARK  5 active torsions:
REMARK  status: ('A' for Active; 'I' for Inactive)
REMARK    1  A    between atoms: C_2  and  O_3 
REMARK    2  A    between atoms: O_3  and  C_4 
REMARK    3  A    between atoms: C_7  and  C_8 
REMARK       I    between atoms: C_8  and  N_9 
REMARK    4  A    between atoms: N_9  and  N_10 
REMARK    5  A    between atoms: C_11  and  C_12 
ROOT
HETATM    1  C   UNL     1      -3.566   1.693 -31.830  1.00  0.00     0.271 C 
HETATM    2  N   UNL     1      -3.895   3.014 -32.106  1.00  0.00    -0.243 N 
HETATM    3  O   UNL     1      -2.803   1.314 -30.946  1.00  0.00    -0.266 OA
HETATM    4  H   UNL     1      -4.735   3.204 -32.643  1.00  0.00     0.192 HD
ENDROOT
BRANCH   2   5
HETATM    5  N   UNL     1      -3.425   4.126 -31.449  1.00  0.00    -0.183 NA
HETATM    6  C   UNL     1      -2.307   4.656 -31.831  1.00  0.00     0.153 C 
BRANCH   6   7
HETATM    7  C   UNL     1      -1.769   5.814 -31.134  1.00  0.00     0.018 A 
HETATM    8  C   UNL     1      -2.437   7.075 -30.977  1.00  0.00     0.004 A 
HETATM    9  C   UNL     1      -1.594   7.910 -30.247  1.00  0.00     0.043 A 
HETATM   10  C   UNL     1      -3.685   7.586 -31.397  1.00  0.00     0.014 A 
HETATM   11  C   UNL     1      -1.933   9.227 -29.909  1.00  0.00     0.030 A 
HETATM   12  N   UNL     1      -0.457   7.192 -29.971  1.00  0.00    -0.358 N 
HETATM   13  C   UNL     1      -3.174   9.707 -30.337  1.00  0.00     0.002 A 
HETATM   14  C   UNL     1      -4.040   8.900 -31.071  1.00  0.00     0.001 A 
HETATM   15  H   UNL     1       0.331   7.553 -29.451  1.00  0.00     0.166 HD
HETATM   16  C   UNL     1      -0.541   5.925 -30.494  1.00  0.00     0.018 A 
HETATM   17  C   UNL     1       0.566   4.948 -30.321  1.00  0.00     0.069 C 
ENDBRANCH   6   7
ENDBRANCH   2   5
BRANCH   1  18
HETATM   18  C   UNL     1      -4.236   0.665 -32.682  1.00  0.00     0.033 A 
HETATM   19  C   UNL     1      -3.637  -0.558 -33.004  1.00  0.00     0.020 A 
HETATM   20  C   UNL     1      -4.335  -1.497 -33.770  1.00  0.00     0.038 A 
HETATM   21  C   UNL     1      -5.639  -1.243 -34.202  1.00  0.00     0.068 A 
HETATM   22  C   UNL     1      -6.236  -0.022 -33.889  1.00  0.00     0.038 A 
HETATM   23  C   UNL     1      -5.539   0.924 -33.130  1.00  0.00     0.020 A 
BRANCH  21  24
HETATM   24  O   UNL     1      -6.216  -2.253 -34.919  1.00  0.00    -0.352 OA
BRANCH  24  25
HETATM   25  C   UNL     1      -5.506  -3.492 -34.959  1.00  0.00     0.171 C 
HETATM   26  C   UNL     1      -6.489  -4.584 -35.340  1.00  0.00     0.034 C 
ENDBRANCH  24  25
ENDBRANCH  21  24
ENDBRANCH   1  18
TORSDOF 5
ENDMDL
MODEL 9
REMARK VINA RESULT:      -7.4      6.559     10.413
REMARK  5 active torsions:
REMARK  status: ('A' for Active; 'I' for Inactive)
REMARK    1  A    between atoms: C_2  and  O_3 
REMARK    2  A    between atoms: O_3  and  C_4 
REMARK    3  A    between atoms: C_7  and  C_8 
REMARK       I    between atoms: C_8  and  N_9 
REMARK    4  A    between atoms: N_9  and  N_10 
REMARK    5  A    between atoms: C_11  and  C_12 
ROOT
HETATM    1  C   UNL     1      -4.397   2.253 -32.311  1.00  0.00     0.271 C 
HETATM    2  N   UNL     1      -3.103   2.672 -32.024  1.00  0.00    -0.243 N 
HETATM    3  O   UNL     1      -5.410   2.939 -32.215  1.00  0.00    -0.266 OA
HETATM    4  H   UNL     1      -2.325   2.144 -32.405  1.00  0.00     0.192 HD
ENDROOT
BRANCH   2   5
HETATM    5  N   UNL     1      -2.730   3.918 -31.580  1.00  0.00    -0.183 NA
HETATM    6  C   UNL     1      -1.693   4.489 -32.105  1.00  0.00     0.153 C 
BRANCH   6   7
HETATM    7  C   UNL     1      -1.256   5.793 -31.632  1.00  0.00     0.018 A 
HETATM    8  C   UNL     1      -0.518   6.036 -30.424  1.00  0.00     0.004 A 
HETATM    9  C   UNL     1      -0.291   7.407 -30.337  1.00  0.00     0.043 A 
HETATM   10  C   UNL     1      -0.027   5.210 -29.388  1.00  0.00     0.014 A 
HETATM   11  C   UNL     1       0.405   7.999 -29.275  1.00  0.00     0.030 A 
HETATM   12  N   UNL     1      -0.868   7.981 -31.444  1.00  0.00    -0.358 N 
HETATM   13  C   UNL     1       0.881   7.158 -28.265  1.00  0.00     0.002 A 
HETATM   14  C   UNL     1       0.669   5.783 -28.318  1.00  0.00     0.001 A 
HETATM   15  H   UNL     1      -0.857   8.972 -31.640  1.00  0.00     0.166 HD
HETATM   16  C   UNL     1      -1.453   7.027 -32.240  1.00  0.00     0.018 A 
HETATM   17  C   UNL     1      -2.138   7.397 -33.505  1.00  0.00     0.069 C 
ENDBRANCH   6   7
ENDBRANCH   2   5
BRANCH   1  18
HETATM   18  C   UNL     1      -4.530   0.848 -32.801  1.00  0.00     0.033 A 
HETATM   19  C   UNL     1      -3.550  -0.127 -32.580  1.00  0.00     0.020 A 
HETATM   20  C   UNL     1      -3.755  -1.436 -33.027  1.00  0.00     0.038 A 
HETATM   21  C   UNL     1      -4.940  -1.796 -33.674  1.00  0.00     0.068 A 
HETATM   22  C   UNL     1      -5.915  -0.825 -33.901  1.00  0.00     0.038 A 
HETATM   23  C   UNL     1      -5.712   0.487 -33.463  1.00  0.00     0.020 A 
BRANCH  21  24
HETATM   24  O   UNL     1      -5.023  -3.111 -34.034  1.00  0.00    -0.352 OA
BRANCH  24  25
HETATM   25  C   UNL     1      -5.597  -3.387 -35.313  1.00  0.00     0.171 C 
HETATM   26  C   UNL     1      -6.651  -4.464 -35.132  1.00  0.00     0.034 C 
ENDBRANCH  24  25
ENDBRANCH  21  24
ENDBRANCH   1  18
TORSDOF 5
ENDMDL
MODEL 10
REMARK VINA RESULT:      -7.1     14.802     16.667
REMARK  5 active torsions:
REMARK  status: ('A' for Active; 'I' for Inactive)
REMARK    1  A    between atoms: C_2  and  O_3 
REMARK    2  A    between atoms: O_3  and  C_4 
REMARK    3  A    between atoms: C_7  and  C_8 
REMARK       I    between atoms: C_8  and  N_9 
REMARK    4  A    between atoms: N_9  and  N_10 
REMARK    5  A    between atoms: C_11  and  C_12 
ROOT
HETATM    1  C   UNL     1      -6.403 -14.907 -33.775  1.00  0.00     0.271 C 
HETATM    2  N   UNL     1      -5.471 -15.195 -34.765  1.00  0.00    -0.243 N 
HETATM    3  O   UNL     1      -7.376 -14.169 -33.899  1.00  0.00    -0.266 OA
HETATM    4  H   UNL     1      -4.891 -16.020 -34.662  1.00  0.00     0.192 HD
ENDROOT
BRANCH   2   5
HETATM    5  N   UNL     1      -5.468 -14.703 -36.049  1.00  0.00    -0.183 NA
HETATM    6  C   UNL     1      -4.937 -13.545 -36.278  1.00  0.00     0.153 C 
BRANCH   6   7
HETATM    7  C   UNL     1      -4.948 -12.986 -37.621  1.00  0.00     0.018 A 
HETATM    8  C   UNL     1      -6.117 -12.789 -38.430  1.00  0.00     0.004 A 
HETATM    9  C   UNL     1      -5.705 -12.228 -39.637  1.00  0.00     0.043 A 
HETATM   10  C   UNL     1      -7.495 -13.045 -38.248  1.00  0.00     0.014 A 
HETATM   11  C   UNL     1      -6.594 -11.904 -40.669  1.00  0.00     0.030 A 
HETATM   12  N   UNL     1      -4.340 -12.089 -39.570  1.00  0.00    -0.358 N 
HETATM   13  C   UNL     1      -7.951 -12.166 -40.462  1.00  0.00     0.002 A 
HETATM   14  C   UNL     1      -8.398 -12.730 -39.269  1.00  0.00     0.001 A 
HETATM   15  H   UNL     1      -3.772 -11.706 -40.312  1.00  0.00     0.166 HD
HETATM   16  C   UNL     1      -3.862 -12.537 -38.363  1.00  0.00     0.018 A 
HETATM   17  C   UNL     1      -2.411 -12.484 -38.044  1.00  0.00     0.069 C 
ENDBRANCH   6   7
ENDBRANCH   2   5
BRANCH   1  18
HETATM   18  C   UNL     1      -6.190 -15.592 -32.464  1.00  0.00     0.033 A 
HETATM   19  C   UNL     1      -5.409 -15.042 -31.442  1.00  0.00     0.020 A 
HETATM   20  C   UNL     1      -5.285 -15.714 -30.221  1.00  0.00     0.038 A 
HETATM   21  C   UNL     1      -5.952 -16.921 -29.995  1.00  0.00     0.068 A 
HETATM   22  C   UNL     1      -6.725 -17.474 -31.015  1.00  0.00     0.038 A 
HETATM   23  C   UNL     1      -6.846 -16.811 -32.240  1.00  0.00     0.020 A 
BRANCH  21  24
HETATM   24  O   UNL     1      -5.767 -17.457 -28.752  1.00  0.00    -0.352 OA
BRANCH  24  25
HETATM   25  C   UNL     1      -6.805 -18.309 -28.265  1.00  0.00     0.171 C 
HETATM   26  C   UNL     1      -7.989 -17.437 -27.888  1.00  0.00     0.034 C 
ENDBRANCH  24  25
ENDBRANCH  21  24
ENDBRANCH   1  18
TORSDOF 5
ENDMDL
