MODEL 1
REMARK VINA RESULT:     -10.7      0.000      0.000
REMARK  5 active torsions:
REMARK  status: ('A' for Active; 'I' for Inactive)
REMARK    1  A    between atoms: C_4  and  N_5 
REMARK    2  A    between atoms: C_7  and  C_8 
REMARK       I    between atoms: C_8  and  N_9 
REMARK    3  A    between atoms: N_9  and  N_10 
REMARK       I    between atoms: N_10  and  C_11 
REMARK    4  A    between atoms: C_11  and  C_12 
REMARK    5  A    between atoms: C_16  and  C_17 
ROOT
HETATM    1  C   UNL     1      -4.105   1.982 -31.898  1.00  0.00     0.286 C 
HETATM    2  N   UNL     1      -4.109   3.357 -31.860  1.00  0.00    -0.262 N 
HETATM    3  O   UNL     1      -3.363   1.274 -31.230  1.00  0.00    -0.264 OA
HETATM    4  H   UNL     1      -4.722   3.925 -32.446  1.00  0.00     0.190 HD
ENDROOT
BRANCH   2   5
HETATM    5  N   UNL     1      -3.194   3.990 -31.018  1.00  0.00    -0.262 N 
HETATM    6  C   UNL     1      -2.095   4.637 -31.541  1.00  0.00     0.288 C 
HETATM    7  O   UNL     1      -1.903   4.732 -32.752  1.00  0.00    -0.264 OA
HETATM    8  H   UNL     1      -3.342   3.872 -30.019  1.00  0.00     0.190 HD
BRANCH   6   9
HETATM    9  C   UNL     1      -1.200   5.192 -30.561  1.00  0.00     0.121 A 
HETATM   10  N   UNL     1      -0.094   4.522 -30.120  1.00  0.00    -0.272 N 
HETATM   11  H   UNL     1       0.216   3.597 -30.407  1.00  0.00     0.189 HD
HETATM   12  N   UNL     1       0.639   5.200 -29.223  1.00  0.00    -0.174 NA
HETATM   13  C   UNL     1      -0.023   6.353 -29.043  1.00  0.00     0.089 A 
HETATM   14  C   UNL     1      -1.181   6.387 -29.870  1.00  0.00     0.071 A 
BRANCH  13  15
HETATM   15  C   UNL     1       0.450   7.390 -28.120  1.00  0.00    -0.006 A 
HETATM   16  C   UNL     1      -0.097   8.682 -28.157  1.00  0.00     0.014 A 
HETATM   17  C   UNL     1       0.335   9.668 -27.265  1.00  0.00     0.001 A 
HETATM   18  C   UNL     1       1.323   9.376 -26.328  1.00  0.00     0.000 A 
HETATM   19  C   UNL     1       1.883   8.101 -26.284  1.00  0.00     0.001 A 
HETATM   20  C   UNL     1       1.450   7.114 -27.173  1.00  0.00     0.014 A 
ENDBRANCH  13  15
ENDBRANCH   6   9
ENDBRANCH   2   5
BRANCH   1  21
HETATM   21  C   UNL     1      -5.113   1.360 -32.851  1.00  0.00     0.125 C 
HETATM   22  N   UNL     1      -4.951   0.128 -33.229  1.00  0.00    -0.164 NA
HETATM   23  N   UNL     1      -5.894  -0.440 -34.082  1.00  0.00    -0.201 N 
HETATM   24  C   UNL     1      -6.874   0.327 -34.742  1.00  0.00     0.245 C 
HETATM   25  C   UNL     1      -6.657   1.816 -34.652  1.00  0.00     0.111 C 
HETATM   26  O   UNL     1      -7.827  -0.088 -35.402  1.00  0.00    -0.271 OA
HETATM   27  C   UNL     1      -6.282   2.202 -33.248  1.00  0.00     0.076 C 
BRANCH  23  28
HETATM   28  C   UNL     1      -5.753  -1.866 -34.243  1.00  0.00     0.062 A 
HETATM   29  C   UNL     1      -4.570  -2.552 -33.922  1.00  0.00     0.038 A 
HETATM   30  C   UNL     1      -4.449  -3.944 -34.083  1.00  0.00    -0.060 A 
HETATM   31  C   UNL     1      -3.179  -4.649 -33.701  1.00  0.00     0.048 C 
HETATM   32  C   UNL     1      -5.539  -4.675 -34.556  1.00  0.00     0.007 A 
HETATM   33  C   UNL     1      -6.726  -4.023 -34.875  1.00  0.00     0.003 A 
HETATM   34  C   UNL     1      -6.831  -2.637 -34.717  1.00  0.00     0.032 A 
ENDBRANCH  23  28
ENDBRANCH   1  21
TORSDOF 5
ENDMDL
MODEL 2
REMARK VINA RESULT:     -10.6      0.792      1.601
REMARK  5 active torsions:
REMARK  status: ('A' for Active; 'I' for Inactive)
REMARK    1  A    between atoms: C_4  and  N_5 
REMARK    2  A    between atoms: C_7  and  C_8 
REMARK       I    between atoms: C_8  and  N_9 
REMARK    3  A    between atoms: N_9  and  N_10 
REMARK       I    between atoms: N_10  and  C_11 
REMARK    4  A    between atoms: C_11  and  C_12 
REMARK    5  A    between atoms: C_16  and  C_17 
ROOT
HETATM    1  C   UNL     1      -4.581   2.707 -31.488  1.00  0.00     0.286 C 
HETATM    2  N   UNL     1      -3.418   3.295 -31.928  1.00  0.00    -0.262 N 
HETATM    3  O   UNL     1      -4.994   2.767 -30.337  1.00  0.00    -0.264 OA
HETATM    4  H   UNL     1      -3.083   3.209 -32.888  1.00  0.00     0.190 HD
ENDROOT
BRANCH   2   5
HETATM    5  N   UNL     1      -2.645   3.990 -30.997  1.00  0.00    -0.262 N 
HETATM    6  C   UNL     1      -1.551   4.723 -31.406  1.00  0.00     0.288 C 
HETATM    7  O   UNL     1      -1.245   4.840 -32.590  1.00  0.00    -0.264 OA
HETATM    8  H   UNL     1      -2.885   3.855 -30.018  1.00  0.00     0.190 HD
BRANCH   6   9
HETATM    9  C   UNL     1      -0.807   5.338 -30.340  1.00  0.00     0.121 A 
HETATM   10  N   UNL     1       0.157   4.667 -29.641  1.00  0.00    -0.272 N 
HETATM   11  H   UNL     1       0.448   3.703 -29.773  1.00  0.00     0.189 HD
HETATM   12  N   UNL     1       0.765   5.403 -28.697  1.00  0.00    -0.174 NA
HETATM   13  C   UNL     1       0.162   6.601 -28.757  1.00  0.00     0.089 A 
HETATM   14  C   UNL     1      -0.827   6.600 -29.779  1.00  0.00     0.071 A 
BRANCH  13  15
HETATM   15  C   UNL     1       0.536   7.708 -27.871  1.00  0.00    -0.006 A 
HETATM   16  C   UNL     1       1.578   7.558 -26.943  1.00  0.00     0.014 A 
HETATM   17  C   UNL     1       1.953   8.618 -26.111  1.00  0.00     0.001 A 
HETATM   18  C   UNL     1       1.287   9.838 -26.193  1.00  0.00     0.000 A 
HETATM   19  C   UNL     1       0.244  10.001 -27.102  1.00  0.00     0.001 A 
HETATM   20  C   UNL     1      -0.129   8.943 -27.936  1.00  0.00     0.014 A 
ENDBRANCH  13  15
ENDBRANCH   6   9
ENDBRANCH   2   5
BRANCH   1  21
HETATM   21  C   UNL     1      -5.363   1.949 -32.549  1.00  0.00     0.125 C 
HETATM   22  N   UNL     1      -4.981   0.754 -32.883  1.00  0.00    -0.164 NA
HETATM   23  N   UNL     1      -5.719   0.058 -33.839  1.00  0.00    -0.201 N 
HETATM   24  C   UNL     1      -6.707   0.678 -34.629  1.00  0.00     0.245 C 
HETATM   25  C   UNL     1      -6.716   2.183 -34.536  1.00  0.00     0.111 C 
HETATM   26  O   UNL     1      -7.500   0.133 -35.395  1.00  0.00    -0.271 OA
HETATM   27  C   UNL     1      -6.580   2.617 -33.103  1.00  0.00     0.076 C 
BRANCH  23  28
HETATM   28  C   UNL     1      -5.357  -1.332 -33.957  1.00  0.00     0.062 A 
HETATM   29  C   UNL     1      -6.143  -2.264 -34.657  1.00  0.00     0.038 A 
HETATM   30  C   UNL     1      -5.774  -3.617 -34.764  1.00  0.00    -0.060 A 
HETATM   31  C   UNL     1      -6.623  -4.578 -35.546  1.00  0.00     0.048 C 
HETATM   32  C   UNL     1      -4.585  -4.051 -34.177  1.00  0.00     0.007 A 
HETATM   33  C   UNL     1      -3.784  -3.149 -33.485  1.00  0.00     0.003 A 
HETATM   34  C   UNL     1      -4.165  -1.807 -33.379  1.00  0.00     0.032 A 
ENDBRANCH  23  28
ENDBRANCH   1  21
TORSDOF 5
ENDMDL
MODEL 3
REMARK VINA RESULT:     -10.4      2.061     11.432
REMARK  5 active torsions:
REMARK  status: ('A' for Active; 'I' for Inactive)
REMARK    1  A    between atoms: C_4  and  N_5 
REMARK    2  A    between atoms: C_7  and  C_8 
REMARK       I    between atoms: C_8  and  N_9 
REMARK    3  A    between atoms: N_9  and  N_10 
REMARK       I    between atoms: N_10  and  C_11 
REMARK    4  A    between atoms: C_11  and  C_12 
REMARK    5  A    between atoms: C_16  and  C_17 
ROOT
HETATM    1  C   UNL     1      -1.982   4.982 -31.455  1.00  0.00     0.286 C 
HETATM    2  N   UNL     1      -2.973   4.203 -30.904  1.00  0.00    -0.262 N 
HETATM    3  O   UNL     1      -1.144   4.575 -32.248  1.00  0.00    -0.264 OA
HETATM    4  H   UNL     1      -3.646   4.561 -30.225  1.00  0.00     0.190 HD
ENDROOT
BRANCH   2   5
HETATM    5  N   UNL     1      -3.015   2.853 -31.257  1.00  0.00    -0.262 N 
HETATM    6  C   UNL     1      -3.986   2.387 -32.117  1.00  0.00     0.288 C 
HETATM    7  O   UNL     1      -4.809   3.131 -32.645  1.00  0.00    -0.264 OA
HETATM    8  H   UNL     1      -2.354   2.242 -30.785  1.00  0.00     0.190 HD
BRANCH   6   9
HETATM    9  C   UNL     1      -3.953   0.967 -32.347  1.00  0.00     0.121 A 
HETATM   10  N   UNL     1      -3.119   0.134 -31.655  1.00  0.00    -0.272 N 
HETATM   11  H   UNL     1      -2.450   0.397 -30.938  1.00  0.00     0.189 HD
HETATM   12  N   UNL     1      -3.240  -1.162 -31.983  1.00  0.00    -0.174 NA
HETATM   13  C   UNL     1      -4.173  -1.185 -32.948  1.00  0.00     0.089 A 
HETATM   14  C   UNL     1      -4.647   0.132 -33.201  1.00  0.00     0.071 A 
BRANCH  13  15
HETATM   15  C   UNL     1      -4.599  -2.431 -33.593  1.00  0.00    -0.006 A 
HETATM   16  C   UNL     1      -3.839  -3.602 -33.453  1.00  0.00     0.014 A 
HETATM   17  C   UNL     1      -4.252  -4.799 -34.046  1.00  0.00     0.001 A 
HETATM   18  C   UNL     1      -5.427  -4.838 -34.792  1.00  0.00     0.000 A 
HETATM   19  C   UNL     1      -6.189  -3.682 -34.949  1.00  0.00     0.001 A 
HETATM   20  C   UNL     1      -5.778  -2.487 -34.353  1.00  0.00     0.014 A 
ENDBRANCH  13  15
ENDBRANCH   6   9
ENDBRANCH   2   5
BRANCH   1  21
HETATM   21  C   UNL     1      -1.984   6.436 -31.011  1.00  0.00     0.125 C 
HETATM   22  N   UNL     1      -1.437   6.752 -29.876  1.00  0.00    -0.164 NA
HETATM   23  N   UNL     1      -1.421   8.091 -29.490  1.00  0.00    -0.201 N 
HETATM   24  C   UNL     1      -2.179   9.077 -30.154  1.00  0.00     0.245 C 
HETATM   25  C   UNL     1      -3.187   8.527 -31.131  1.00  0.00     0.111 C 
HETATM   26  O   UNL     1      -2.131  10.295 -29.982  1.00  0.00    -0.271 OA
HETATM   27  C   UNL     1      -2.567   7.434 -31.958  1.00  0.00     0.076 C 
BRANCH  23  28
HETATM   28  C   UNL     1      -0.588   8.359 -28.346  1.00  0.00     0.062 A 
HETATM   29  C   UNL     1      -1.106   8.800 -27.116  1.00  0.00     0.038 A 
HETATM   30  C   UNL     1      -0.277   9.055 -26.008  1.00  0.00    -0.060 A 
HETATM   31  C   UNL     1      -0.869   9.496 -24.700  1.00  0.00     0.048 C 
HETATM   32  C   UNL     1       1.098   8.849 -26.120  1.00  0.00     0.007 A 
HETATM   33  C   UNL     1       1.637   8.406 -27.322  1.00  0.00     0.003 A 
HETATM   34  C   UNL     1       0.804   8.162 -28.419  1.00  0.00     0.032 A 
ENDBRANCH  23  28
ENDBRANCH   1  21
TORSDOF 5
ENDMDL
MODEL 4
REMARK VINA RESULT:     -10.0      2.358     11.311
REMARK  5 active torsions:
REMARK  status: ('A' for Active; 'I' for Inactive)
REMARK    1  A    between atoms: C_4  and  N_5 
REMARK    2  A    between atoms: C_7  and  C_8 
REMARK       I    between atoms: C_8  and  N_9 
REMARK    3  A    between atoms: N_9  and  N_10 
REMARK       I    between atoms: N_10  and  C_11 
REMARK    4  A    between atoms: C_11  and  C_12 
REMARK    5  A    between atoms: C_16  and  C_17 
ROOT
HETATM    1  C   UNL     1      -1.823   4.559 -31.783  1.00  0.00     0.286 C 
HETATM    2  N   UNL     1      -2.573   3.600 -31.143  1.00  0.00    -0.262 N 
HETATM    3  O   UNL     1      -1.680   4.629 -32.997  1.00  0.00    -0.264 OA
HETATM    4  H   UNL     1      -2.656   3.549 -30.127  1.00  0.00     0.190 HD
ENDROOT
BRANCH   2   5
HETATM    5  N   UNL     1      -3.198   2.629 -31.927  1.00  0.00    -0.262 N 
HETATM    6  C   UNL     1      -4.450   2.160 -31.590  1.00  0.00     0.288 C 
HETATM    7  O   UNL     1      -5.084   2.605 -30.636  1.00  0.00    -0.264 OA
HETATM    8  H   UNL     1      -2.649   2.241 -32.690  1.00  0.00     0.190 HD
BRANCH   6   9
HETATM    9  C   UNL     1      -4.951   1.117 -32.445  1.00  0.00     0.121 A 
HETATM   10  N   UNL     1      -5.854   1.360 -33.441  1.00  0.00    -0.272 N 
HETATM   11  H   UNL     1      -6.268   2.255 -33.686  1.00  0.00     0.189 HD
HETATM   12  N   UNL     1      -6.192   0.274 -34.154  1.00  0.00    -0.174 NA
HETATM   13  C   UNL     1      -5.506  -0.732 -33.590  1.00  0.00     0.089 A 
HETATM   14  C   UNL     1      -4.712  -0.241 -32.517  1.00  0.00     0.071 A 
BRANCH  13  15
HETATM   15  C   UNL     1      -5.601  -2.112 -34.077  1.00  0.00    -0.006 A 
HETATM   16  C   UNL     1      -4.483  -2.959 -34.044  1.00  0.00     0.014 A 
HETATM   17  C   UNL     1      -4.574  -4.282 -34.487  1.00  0.00     0.001 A 
HETATM   18  C   UNL     1      -5.782  -4.773 -34.973  1.00  0.00     0.000 A 
HETATM   19  C   UNL     1      -6.900  -3.943 -35.022  1.00  0.00     0.001 A 
HETATM   20  C   UNL     1      -6.810  -2.621 -34.577  1.00  0.00     0.014 A 
ENDBRANCH  13  15
ENDBRANCH   6   9
ENDBRANCH   2   5
BRANCH   1  21
HETATM   21  C   UNL     1      -1.154   5.572 -30.868  1.00  0.00     0.125 C 
HETATM   22  N   UNL     1      -1.855   6.141 -29.935  1.00  0.00    -0.164 NA
HETATM   23  N   UNL     1      -1.226   7.049 -29.085  1.00  0.00    -0.201 N 
HETATM   24  C   UNL     1       0.063   7.557 -29.342  1.00  0.00     0.245 C 
HETATM   25  C   UNL     1       0.587   7.240 -30.720  1.00  0.00     0.111 C 
HETATM   26  O   UNL     1       0.755   8.249 -28.595  1.00  0.00    -0.271 OA
HETATM   27  C   UNL     1       0.309   5.803 -31.064  1.00  0.00     0.076 C 
BRANCH  23  28
HETATM   28  C   UNL     1      -2.024   7.434 -27.948  1.00  0.00     0.062 A 
HETATM   29  C   UNL     1      -3.161   8.252 -28.061  1.00  0.00     0.038 A 
HETATM   30  C   UNL     1      -3.930   8.616 -26.940  1.00  0.00    -0.060 A 
HETATM   31  C   UNL     1      -5.157   9.467 -27.103  1.00  0.00     0.048 C 
HETATM   32  C   UNL     1      -3.571   8.140 -25.679  1.00  0.00     0.007 A 
HETATM   33  C   UNL     1      -2.455   7.322 -25.539  1.00  0.00     0.003 A 
HETATM   34  C   UNL     1      -1.694   6.973 -26.660  1.00  0.00     0.032 A 
ENDBRANCH  23  28
ENDBRANCH   1  21
TORSDOF 5
ENDMDL
MODEL 5
REMARK VINA RESULT:      -9.5      2.069     11.367
REMARK  5 active torsions:
REMARK  status: ('A' for Active; 'I' for Inactive)
REMARK    1  A    between atoms: C_4  and  N_5 
REMARK    2  A    between atoms: C_7  and  C_8 
REMARK       I    between atoms: C_8  and  N_9 
REMARK    3  A    between atoms: N_9  and  N_10 
REMARK       I    between atoms: N_10  and  C_11 
REMARK    4  A    between atoms: C_11  and  C_12 
REMARK    5  A    between atoms: C_16  and  C_17 
ROOT
HETATM    1  C   UNL     1      -3.120   4.717 -31.500  1.00  0.00     0.286 C 
HETATM    2  N   UNL     1      -4.461   4.451 -31.651  1.00  0.00    -0.262 N 
HETATM    3  O   UNL     1      -2.229   3.894 -31.662  1.00  0.00    -0.264 OA
HETATM    4  H   UNL     1      -5.187   5.149 -31.485  1.00  0.00     0.190 HD
ENDROOT
BRANCH   2   5
HETATM    5  N   UNL     1      -4.835   3.150 -31.992  1.00  0.00    -0.262 N 
HETATM    6  C   UNL     1      -5.597   2.915 -33.116  1.00  0.00     0.288 C 
HETATM    7  O   UNL     1      -5.931   3.815 -33.883  1.00  0.00    -0.264 OA
HETATM    8  H   UNL     1      -4.585   2.420 -31.330  1.00  0.00     0.190 HD
BRANCH   6   9
HETATM    9  C   UNL     1      -5.964   1.538 -33.316  1.00  0.00     0.121 A 
HETATM   10  N   UNL     1      -7.243   1.090 -33.140  1.00  0.00    -0.272 N 
HETATM   11  H   UNL     1      -8.049   1.638 -32.854  1.00  0.00     0.189 HD
HETATM   12  N   UNL     1      -7.407  -0.218 -33.394  1.00  0.00    -0.174 NA
HETATM   13  C   UNL     1      -6.183  -0.658 -33.726  1.00  0.00     0.089 A 
HETATM   14  C   UNL     1      -5.252   0.417 -33.694  1.00  0.00     0.071 A 
BRANCH  13  15
HETATM   15  C   UNL     1      -5.925  -2.058 -34.076  1.00  0.00    -0.006 A 
HETATM   16  C   UNL     1      -4.625  -2.583 -34.004  1.00  0.00     0.014 A 
HETATM   17  C   UNL     1      -4.377  -3.923 -34.315  1.00  0.00     0.001 A 
HETATM   18  C   UNL     1      -5.423  -4.754 -34.707  1.00  0.00     0.000 A 
HETATM   19  C   UNL     1      -6.718  -4.247 -34.793  1.00  0.00     0.001 A 
HETATM   20  C   UNL     1      -6.967  -2.908 -34.479  1.00  0.00     0.014 A 
ENDBRANCH  13  15
ENDBRANCH   6   9
ENDBRANCH   2   5
BRANCH   1  21
HETATM   21  C   UNL     1      -2.787   6.148 -31.107  1.00  0.00     0.125 C 
HETATM   22  N   UNL     1      -2.138   6.367 -30.005  1.00  0.00    -0.164 NA
HETATM   23  N   UNL     1      -1.815   7.680 -29.667  1.00  0.00    -0.201 N 
HETATM   24  C   UNL     1      -2.368   8.789 -30.337  1.00  0.00     0.245 C 
HETATM   25  C   UNL     1      -3.512   8.447 -31.258  1.00  0.00     0.111 C 
HETATM   26  O   UNL     1      -2.050   9.972 -30.210  1.00  0.00    -0.271 OA
HETATM   27  C   UNL     1      -3.180   7.224 -32.067  1.00  0.00     0.076 C 
BRANCH  23  28
HETATM   28  C   UNL     1      -0.895   7.790 -28.563  1.00  0.00     0.062 A 
HETATM   29  C   UNL     1      -1.164   8.571 -27.426  1.00  0.00     0.038 A 
HETATM   30  C   UNL     1      -0.255   8.666 -26.356  1.00  0.00    -0.060 A 
HETATM   31  C   UNL     1      -0.589   9.487 -25.144  1.00  0.00     0.048 C 
HETATM   32  C   UNL     1       0.941   7.950 -26.409  1.00  0.00     0.007 A 
HETATM   33  C   UNL     1       1.230   7.163 -27.518  1.00  0.00     0.003 A 
HETATM   34  C   UNL     1       0.321   7.082 -28.579  1.00  0.00     0.032 A 
ENDBRANCH  23  28
ENDBRANCH   1  21
TORSDOF 5
ENDMDL
MODEL 6
REMARK VINA RESULT:      -9.4      2.759     11.203
REMARK  5 active torsions:
REMARK  status: ('A' for Active; 'I' for Inactive)
REMARK    1  A    between atoms: C_4  and  N_5 
REMARK    2  A    between atoms: C_7  and  C_8 
REMARK       I    between atoms: C_8  and  N_9 
REMARK    3  A    between atoms: N_9  and  N_10 
REMARK       I    between atoms: N_10  and  C_11 
REMARK    4  A    between atoms: C_11  and  C_12 
REMARK    5  A    between atoms: C_16  and  C_17 
ROOT
HETATM    1  C   UNL     1      -5.357   5.432 -30.208  1.00  0.00     0.286 C 
HETATM    2  N   UNL     1      -4.627   4.269 -30.129  1.00  0.00    -0.262 N 
HETATM    3  O   UNL     1      -6.355   5.576 -30.902  1.00  0.00    -0.264 OA
HETATM    4  H   UNL     1      -3.783   4.182 -29.561  1.00  0.00     0.190 HD
ENDROOT
BRANCH   2   5
HETATM    5  N   UNL     1      -5.038   3.186 -30.906  1.00  0.00    -0.262 N 
HETATM    6  C   UNL     1      -4.108   2.337 -31.468  1.00  0.00     0.288 C 
HETATM    7  O   UNL     1      -2.901   2.460 -31.269  1.00  0.00    -0.264 OA
HETATM    8  H   UNL     1      -6.035   3.117 -31.095  1.00  0.00     0.190 HD
BRANCH   6   9
HETATM    9  C   UNL     1      -4.664   1.300 -32.296  1.00  0.00     0.121 A 
HETATM   10  N   UNL     1      -5.643   1.548 -33.217  1.00  0.00    -0.272 N 
HETATM   11  H   UNL     1      -6.083   2.441 -33.417  1.00  0.00     0.189 HD
HETATM   12  N   UNL     1      -6.025   0.468 -33.917  1.00  0.00    -0.174 NA
HETATM   13  C   UNL     1      -5.288  -0.539 -33.422  1.00  0.00     0.089 A 
HETATM   14  C   UNL     1      -4.418  -0.054 -32.406  1.00  0.00     0.071 A 
BRANCH  13  15
HETATM   15  C   UNL     1      -5.408  -1.913 -33.919  1.00  0.00    -0.006 A 
HETATM   16  C   UNL     1      -4.329  -2.804 -33.820  1.00  0.00     0.014 A 
HETATM   17  C   UNL     1      -4.445  -4.122 -34.273  1.00  0.00     0.001 A 
HETATM   18  C   UNL     1      -5.639  -4.563 -34.836  1.00  0.00     0.000 A 
HETATM   19  C   UNL     1      -6.718  -3.689 -34.951  1.00  0.00     0.001 A 
HETATM   20  C   UNL     1      -6.603  -2.372 -34.496  1.00  0.00     0.014 A 
ENDBRANCH  13  15
ENDBRANCH   6   9
ENDBRANCH   2   5
BRANCH   1  21
HETATM   21  C   UNL     1      -4.841   6.577 -29.350  1.00  0.00     0.125 C 
HETATM   22  N   UNL     1      -3.571   6.650 -29.089  1.00  0.00    -0.164 NA
HETATM   23  N   UNL     1      -3.105   7.717 -28.324  1.00  0.00    -0.201 N 
HETATM   24  C   UNL     1      -3.972   8.579 -27.623  1.00  0.00     0.245 C 
HETATM   25  C   UNL     1      -5.401   8.101 -27.562  1.00  0.00     0.111 C 
HETATM   26  O   UNL     1      -3.675   9.620 -27.036  1.00  0.00    -0.271 OA
HETATM   27  C   UNL     1      -5.839   7.599 -28.910  1.00  0.00     0.076 C 
BRANCH  23  28
HETATM   28  C   UNL     1      -1.669   7.834 -28.298  1.00  0.00     0.062 A 
HETATM   29  C   UNL     1      -0.962   8.258 -27.160  1.00  0.00     0.038 A 
HETATM   30  C   UNL     1       0.441   8.365 -27.152  1.00  0.00    -0.060 A 
HETATM   31  C   UNL     1       1.165   8.793 -25.908  1.00  0.00     0.048 C 
HETATM   32  C   UNL     1       1.160   8.023 -28.297  1.00  0.00     0.007 A 
HETATM   33  C   UNL     1       0.487   7.592 -29.435  1.00  0.00     0.003 A 
HETATM   34  C   UNL     1      -0.909   7.497 -29.434  1.00  0.00     0.032 A 
ENDBRANCH  23  28
ENDBRANCH   1  21
TORSDOF 5
ENDMDL
MODEL 7
REMARK VINA RESULT:      -9.3      2.504      4.072
REMARK  5 active torsions:
REMARK  status: ('A' for Active; 'I' for Inactive)
REMARK    1  A    between atoms: C_4  and  N_5 
REMARK    2  A    between atoms: C_7  and  C_8 
REMARK       I    between atoms: C_8  and  N_9 
REMARK    3  A    between atoms: N_9  and  N_10 
REMARK       I    between atoms: N_10  and  C_11 
REMARK    4  A    between atoms: C_11  and  C_12 
REMARK    5  A    between atoms: C_16  and  C_17 
ROOT
HETATM    1  C   UNL     1      -5.029   2.879 -31.552  1.00  0.00     0.286 C 
HETATM    2  N   UNL     1      -3.675   2.848 -31.796  1.00  0.00    -0.262 N 
HETATM    3  O   UNL     1      -5.588   3.718 -30.858  1.00  0.00    -0.264 OA
HETATM    4  H   UNL     1      -3.230   2.123 -32.359  1.00  0.00     0.190 HD
ENDROOT
BRANCH   2   5
HETATM    5  N   UNL     1      -2.882   3.827 -31.196  1.00  0.00    -0.262 N 
HETATM    6  C   UNL     1      -1.963   4.535 -31.943  1.00  0.00     0.288 C 
HETATM    7  O   UNL     1      -1.842   4.378 -33.156  1.00  0.00    -0.264 OA
HETATM    8  H   UNL     1      -2.964   3.921 -30.187  1.00  0.00     0.190 HD
BRANCH   6   9
HETATM    9  C   UNL     1      -1.168   5.468 -31.190  1.00  0.00     0.121 A 
HETATM   10  N   UNL     1      -0.499   6.501 -31.782  1.00  0.00    -0.272 N 
HETATM   11  H   UNL     1      -0.474   6.726 -32.773  1.00  0.00     0.189 HD
HETATM   12  N   UNL     1       0.173   7.285 -30.925  1.00  0.00    -0.174 NA
HETATM   13  C   UNL     1      -0.039   6.733 -29.720  1.00  0.00     0.089 A 
HETATM   14  C   UNL     1      -0.879   5.593 -29.845  1.00  0.00     0.071 A 
BRANCH  13  15
HETATM   15  C   UNL     1       0.537   7.292 -28.492  1.00  0.00    -0.006 A 
HETATM   16  C   UNL     1       1.312   8.461 -28.537  1.00  0.00     0.014 A 
HETATM   17  C   UNL     1       1.846   9.011 -27.368  1.00  0.00     0.001 A 
HETATM   18  C   UNL     1       1.616   8.397 -26.140  1.00  0.00     0.000 A 
HETATM   19  C   UNL     1       0.856   7.230 -26.079  1.00  0.00     0.001 A 
HETATM   20  C   UNL     1       0.320   6.682 -27.247  1.00  0.00     0.014 A 
ENDBRANCH  13  15
ENDBRANCH   6   9
ENDBRANCH   2   5
BRANCH   1  21
HETATM   21  C   UNL     1      -5.830   1.772 -32.219  1.00  0.00     0.125 C 
HETATM   22  N   UNL     1      -7.089   1.964 -32.469  1.00  0.00    -0.164 NA
HETATM   23  N   UNL     1      -7.808   0.953 -33.104  1.00  0.00    -0.201 N 
HETATM   24  C   UNL     1      -7.296  -0.349 -33.266  1.00  0.00     0.245 C 
HETATM   25  C   UNL     1      -6.037  -0.620 -32.481  1.00  0.00     0.111 C 
HETATM   26  O   UNL     1      -7.786  -1.267 -33.924  1.00  0.00    -0.271 OA
HETATM   27  C   UNL     1      -5.085   0.536 -32.610  1.00  0.00     0.076 C 
BRANCH  23  28
HETATM   28  C   UNL     1      -9.119   1.357 -33.546  1.00  0.00     0.062 A 
HETATM   29  C   UNL     1     -10.258   0.552 -33.380  1.00  0.00     0.038 A 
HETATM   30  C   UNL     1     -11.531   0.964 -33.817  1.00  0.00    -0.060 A 
HETATM   31  C   UNL     1     -12.731   0.090 -33.595  1.00  0.00     0.048 C 
HETATM   32  C   UNL     1     -11.677   2.215 -34.415  1.00  0.00     0.007 A 
HETATM   33  C   UNL     1     -10.568   3.036 -34.586  1.00  0.00     0.003 A 
HETATM   34  C   UNL     1      -9.306   2.613 -34.154  1.00  0.00     0.032 A 
ENDBRANCH  23  28
ENDBRANCH   1  21
TORSDOF 5
ENDMDL
MODEL 8
REMARK VINA RESULT:      -9.3      2.551     11.191
REMARK  5 active torsions:
REMARK  status: ('A' for Active; 'I' for Inactive)
REMARK    1  A    between atoms: C_4  and  N_5 
REMARK    2  A    between atoms: C_7  and  C_8 
REMARK       I    between atoms: C_8  and  N_9 
REMARK    3  A    between atoms: N_9  and  N_10 
REMARK       I    between atoms: N_10  and  C_11 
REMARK    4  A    between atoms: C_11  and  C_12 
REMARK    5  A    between atoms: C_16  and  C_17 
ROOT
HETATM    1  C   UNL     1      -4.709   4.627 -31.290  1.00  0.00     0.286 C 
HETATM    2  N   UNL     1      -4.706   4.404 -32.648  1.00  0.00    -0.262 N 
HETATM    3  O   UNL     1      -4.913   3.763 -30.448  1.00  0.00    -0.264 OA
HETATM    4  H   UNL     1      -4.558   5.147 -33.331  1.00  0.00     0.190 HD
ENDROOT
BRANCH   2   5
HETATM    5  N   UNL     1      -4.974   3.110 -33.097  1.00  0.00    -0.262 N 
HETATM    6  C   UNL     1      -6.177   2.816 -33.701  1.00  0.00     0.288 C 
HETATM    7  O   UNL     1      -7.031   3.673 -33.917  1.00  0.00    -0.264 OA
HETATM    8  H   UNL     1      -4.277   2.402 -32.879  1.00  0.00     0.190 HD
BRANCH   6   9
HETATM    9  C   UNL     1      -6.348   1.433 -34.059  1.00  0.00     0.121 A 
HETATM   10  N   UNL     1      -7.401   0.998 -34.813  1.00  0.00    -0.272 N 
HETATM   11  H   UNL     1      -8.158   1.562 -35.189  1.00  0.00     0.189 HD
HETATM   12  N   UNL     1      -7.387  -0.319 -35.070  1.00  0.00    -0.174 NA
HETATM   13  C   UNL     1      -6.296  -0.779 -34.439  1.00  0.00     0.089 A 
HETATM   14  C   UNL     1      -5.615   0.292 -33.797  1.00  0.00     0.071 A 
BRANCH  13  15
HETATM   15  C   UNL     1      -5.916  -2.196 -34.466  1.00  0.00    -0.006 A 
HETATM   16  C   UNL     1      -6.856  -3.178 -34.815  1.00  0.00     0.014 A 
HETATM   17  C   UNL     1      -6.494  -4.528 -34.863  1.00  0.00     0.001 A 
HETATM   18  C   UNL     1      -5.191  -4.912 -34.560  1.00  0.00     0.000 A 
HETATM   19  C   UNL     1      -4.248  -3.950 -34.203  1.00  0.00     0.001 A 
HETATM   20  C   UNL     1      -4.608  -2.601 -34.157  1.00  0.00     0.014 A 
ENDBRANCH  13  15
ENDBRANCH   6   9
ENDBRANCH   2   5
BRANCH   1  21
HETATM   21  C   UNL     1      -4.430   6.062 -30.872  1.00  0.00     0.125 C 
HETATM   22  N   UNL     1      -3.697   6.285 -29.824  1.00  0.00    -0.164 NA
HETATM   23  N   UNL     1      -3.426   7.604 -29.464  1.00  0.00    -0.201 N 
HETATM   24  C   UNL     1      -4.106   8.697 -30.036  1.00  0.00     0.245 C 
HETATM   25  C   UNL     1      -5.307   8.313 -30.864  1.00  0.00     0.111 C 
HETATM   26  O   UNL     1      -3.852   9.893 -29.891  1.00  0.00    -0.271 OA
HETATM   27  C   UNL     1      -4.976   7.143 -31.748  1.00  0.00     0.076 C 
BRANCH  23  28
HETATM   28  C   UNL     1      -2.417   7.736 -28.444  1.00  0.00     0.062 A 
HETATM   29  C   UNL     1      -1.071   8.007 -28.739  1.00  0.00     0.038 A 
HETATM   30  C   UNL     1      -0.098   8.134 -27.730  1.00  0.00    -0.060 A 
HETATM   31  C   UNL     1       1.326   8.455 -28.081  1.00  0.00     0.048 C 
HETATM   32  C   UNL     1      -0.478   8.008 -26.394  1.00  0.00     0.007 A 
HETATM   33  C   UNL     1      -1.806   7.746 -26.072  1.00  0.00     0.003 A 
HETATM   34  C   UNL     1      -2.762   7.615 -27.084  1.00  0.00     0.032 A 
ENDBRANCH  23  28
ENDBRANCH   1  21
TORSDOF 5
ENDMDL
MODEL 9
REMARK VINA RESULT:      -9.2      3.618     11.028
REMARK  5 active torsions:
REMARK  status: ('A' for Active; 'I' for Inactive)
REMARK    1  A    between atoms: C_4  and  N_5 
REMARK    2  A    between atoms: C_7  and  C_8 
REMARK       I    between atoms: C_8  and  N_9 
REMARK    3  A    between atoms: N_9  and  N_10 
REMARK       I    between atoms: N_10  and  C_11 
REMARK    4  A    between atoms: C_11  and  C_12 
REMARK    5  A    between atoms: C_16  and  C_17 
ROOT
HETATM    1  C   UNL     1      -6.131   3.939 -29.610  1.00  0.00     0.286 C 
HETATM    2  N   UNL     1      -4.877   3.467 -29.925  1.00  0.00    -0.262 N 
HETATM    3  O   UNL     1      -7.163   3.293 -29.732  1.00  0.00    -0.264 OA
HETATM    4  H   UNL     1      -4.034   4.034 -29.837  1.00  0.00     0.190 HD
ENDROOT
BRANCH   2   5
HETATM    5  N   UNL     1      -4.776   2.172 -30.435  1.00  0.00    -0.262 N 
HETATM    6  C   UNL     1      -3.687   1.805 -31.196  1.00  0.00     0.288 C 
HETATM    7  O   UNL     1      -2.747   2.568 -31.409  1.00  0.00    -0.264 OA
HETATM    8  H   UNL     1      -5.576   1.563 -30.285  1.00  0.00     0.190 HD
BRANCH   6   9
HETATM    9  C   UNL     1      -3.739   0.463 -31.712  1.00  0.00     0.121 A 
HETATM   10  N   UNL     1      -2.853  -0.503 -31.324  1.00  0.00    -0.272 N 
HETATM   11  H   UNL     1      -2.086  -0.401 -30.666  1.00  0.00     0.189 HD
HETATM   12  N   UNL     1      -3.065  -1.702 -31.889  1.00  0.00    -0.174 NA
HETATM   13  C   UNL     1      -4.117  -1.516 -32.702  1.00  0.00     0.089 A 
HETATM   14  C   UNL     1      -4.570  -0.170 -32.615  1.00  0.00     0.071 A 
BRANCH  13  15
HETATM   15  C   UNL     1      -4.672  -2.598 -33.522  1.00  0.00    -0.006 A 
HETATM   16  C   UNL     1      -5.866  -2.412 -34.234  1.00  0.00     0.014 A 
HETATM   17  C   UNL     1      -6.389  -3.432 -35.034  1.00  0.00     0.001 A 
HETATM   18  C   UNL     1      -5.726  -4.653 -35.129  1.00  0.00     0.000 A 
HETATM   19  C   UNL     1      -4.543  -4.858 -34.421  1.00  0.00     0.001 A 
HETATM   20  C   UNL     1      -4.019  -3.837 -33.623  1.00  0.00     0.014 A 
ENDBRANCH  13  15
ENDBRANCH   6   9
ENDBRANCH   2   5
BRANCH   1  21
HETATM   21  C   UNL     1      -6.169   5.363 -29.079  1.00  0.00     0.125 C 
HETATM   22  N   UNL     1      -5.223   5.768 -28.287  1.00  0.00    -0.164 NA
HETATM   23  N   UNL     1      -5.253   7.083 -27.826  1.00  0.00    -0.201 N 
HETATM   24  C   UNL     1      -6.382   7.912 -27.981  1.00  0.00     0.245 C 
HETATM   25  C   UNL     1      -7.620   7.187 -28.447  1.00  0.00     0.111 C 
HETATM   26  O   UNL     1      -6.464   9.115 -27.735  1.00  0.00    -0.271 OA
HETATM   27  C   UNL     1      -7.279   6.239 -29.563  1.00  0.00     0.076 C 
BRANCH  23  28
HETATM   28  C   UNL     1      -4.044   7.496 -27.160  1.00  0.00     0.062 A 
HETATM   29  C   UNL     1      -4.006   7.835 -25.797  1.00  0.00     0.038 A 
HETATM   30  C   UNL     1      -2.817   8.235 -25.161  1.00  0.00    -0.060 A 
HETATM   31  C   UNL     1      -2.808   8.560 -23.695  1.00  0.00     0.048 C 
HETATM   32  C   UNL     1      -1.631   8.280 -25.895  1.00  0.00     0.007 A 
HETATM   33  C   UNL     1      -1.637   7.943 -27.244  1.00  0.00     0.003 A 
HETATM   34  C   UNL     1      -2.828   7.554 -27.866  1.00  0.00     0.032 A 
ENDBRANCH  23  28
ENDBRANCH   1  21
TORSDOF 5
ENDMDL
MODEL 10
REMARK VINA RESULT:      -9.2      5.444      9.755
REMARK  5 active torsions:
REMARK  status: ('A' for Active; 'I' for Inactive)
REMARK    1  A    between atoms: C_4  and  N_5 
REMARK    2  A    between atoms: C_7  and  C_8 
REMARK       I    between atoms: C_8  and  N_9 
REMARK    3  A    between atoms: N_9  and  N_10 
REMARK       I    between atoms: N_10  and  C_11 
REMARK    4  A    between atoms: C_11  and  C_12 
REMARK    5  A    between atoms: C_16  and  C_17 
ROOT
HETATM    1  C   UNL     1      -6.334   1.923 -33.308  1.00  0.00     0.286 C 
HETATM    2  N   UNL     1      -7.488   1.271 -33.675  1.00  0.00    -0.262 N 
HETATM    3  O   UNL     1      -6.207   3.140 -33.279  1.00  0.00    -0.264 OA
HETATM    4  H   UNL     1      -7.561   0.253 -33.715  1.00  0.00     0.190 HD
ENDROOT
BRANCH   2   5
HETATM    5  N   UNL     1      -8.582   2.046 -34.061  1.00  0.00    -0.262 N 
HETATM    6  C   UNL     1      -9.861   1.537 -33.985  1.00  0.00     0.288 C 
HETATM    7  O   UNL     1     -10.097   0.419 -33.532  1.00  0.00    -0.264 OA
HETATM    8  H   UNL     1      -8.372   2.954 -34.469  1.00  0.00     0.190 HD
BRANCH   6   9
HETATM    9  C   UNL     1     -10.889   2.417 -34.473  1.00  0.00     0.121 A 
HETATM   10  N   UNL     1     -11.752   2.052 -35.467  1.00  0.00    -0.272 N 
HETATM   11  H   UNL     1     -11.772   1.166 -35.965  1.00  0.00     0.189 HD
HETATM   12  N   UNL     1     -12.661   2.989 -35.779  1.00  0.00    -0.174 NA
HETATM   13  C   UNL     1     -12.371   4.026 -34.977  1.00  0.00     0.089 A 
HETATM   14  C   UNL     1     -11.267   3.702 -34.139  1.00  0.00     0.071 A 
BRANCH  13  15
HETATM   15  C   UNL     1     -13.138   5.275 -35.007  1.00  0.00    -0.006 A 
HETATM   16  C   UNL     1     -13.721   5.782 -33.836  1.00  0.00     0.014 A 
HETATM   17  C   UNL     1     -14.436   6.984 -33.855  1.00  0.00     0.001 A 
HETATM   18  C   UNL     1     -14.581   7.691 -35.045  1.00  0.00     0.000 A 
HETATM   19  C   UNL     1     -14.016   7.196 -36.220  1.00  0.00     0.001 A 
HETATM   20  C   UNL     1     -13.300   5.996 -36.201  1.00  0.00     0.014 A 
ENDBRANCH  13  15
ENDBRANCH   6   9
ENDBRANCH   2   5
BRANCH   1  21
HETATM   21  C   UNL     1      -5.177   1.017 -32.919  1.00  0.00     0.125 C 
HETATM   22  N   UNL     1      -5.279  -0.262 -33.121  1.00  0.00    -0.164 NA
HETATM   23  N   UNL     1      -4.203  -1.081 -32.785  1.00  0.00    -0.201 N 
HETATM   24  C   UNL     1      -3.114  -0.620 -32.019  1.00  0.00     0.245 C 
HETATM   25  C   UNL     1      -3.332   0.732 -31.387  1.00  0.00     0.111 C 
HETATM   26  O   UNL     1      -2.062  -1.215 -31.785  1.00  0.00    -0.271 OA
HETATM   27  C   UNL     1      -3.949   1.676 -32.380  1.00  0.00     0.076 C 
BRANCH  23  28
HETATM   28  C   UNL     1      -4.325  -2.433 -33.267  1.00  0.00     0.062 A 
HETATM   29  C   UNL     1      -5.313  -2.825 -34.186  1.00  0.00     0.038 A 
HETATM   30  C   UNL     1      -5.417  -4.149 -34.649  1.00  0.00    -0.060 A 
HETATM   31  C   UNL     1      -6.467  -4.525 -35.654  1.00  0.00     0.048 C 
HETATM   32  C   UNL     1      -4.503  -5.104 -34.201  1.00  0.00     0.007 A 
HETATM   33  C   UNL     1      -3.510  -4.743 -33.297  1.00  0.00     0.003 A 
HETATM   34  C   UNL     1      -3.421  -3.424 -32.839  1.00  0.00     0.032 A 
ENDBRANCH  23  28
ENDBRANCH   1  21
TORSDOF 5
ENDMDL
