MODEL 1
REMARK VINA RESULT:      -8.8      0.000      0.000
REMARK  3 active torsions:
REMARK  status: ('A' for Active; 'I' for Inactive)
REMARK    1  A    between atoms: C_5  and  C_6 
REMARK       I    between atoms: C_6  and  N_7 
REMARK    2  A    between atoms: N_7  and  C_8 
REMARK    3  A    between atoms: C_15  and  C_16 
REMARK       I    between atoms: C_16  and  N_17 
ROOT
HETATM    1  C   UNL     1      -7.551   0.610 -34.348  1.00  0.00     0.035 A 
HETATM    2  C   UNL     1      -7.419  -0.760 -34.634  1.00  0.00     0.046 A 
HETATM    3  C   UNL     1      -6.227  -1.435 -34.298  1.00  0.00     0.030 A 
HETATM    4  C   UNL     1      -5.205  -0.721 -33.689  1.00  0.00     0.063 A 
HETATM    5  N   UNL     1      -4.198  -1.625 -33.494  1.00  0.00    -0.277 N 
HETATM    6  H   UNL     1      -3.292  -1.452 -33.074  1.00  0.00     0.189 HD
HETATM    7  N   UNL     1      -4.478  -2.870 -33.917  1.00  0.00    -0.168 NA
HETATM    8  C   UNL     1      -5.731  -2.766 -34.417  1.00  0.00     0.156 A 
HETATM    9  C   UNL     1      -5.303   0.637 -33.387  1.00  0.00     0.034 A 
HETATM   10  C   UNL     1      -6.498   1.287 -33.726  1.00  0.00     0.032 A 
ENDROOT
BRANCH   1  11
HETATM   11  N   UNL     1      -8.767   1.219 -34.720  1.00  0.00    -0.326 N 
HETATM   12  C   UNL     1      -9.954   1.277 -33.994  1.00  0.00     0.240 C 
HETATM   13  O   UNL     1     -10.131   0.770 -32.889  1.00  0.00    -0.272 OA
HETATM   14  H   UNL     1      -8.752   1.758 -35.580  1.00  0.00     0.169 HD
BRANCH  12  15
HETATM   15  C   UNL     1     -11.073   2.035 -34.754  1.00  0.00     0.172 C 
HETATM   16  C   UNL     1     -12.452   1.854 -34.134  1.00  0.00    -0.029 A 
HETATM   17  C   UNL     1     -13.050   2.792 -33.267  1.00  0.00    -0.050 A 
HETATM   18  C   UNL     1     -13.141   0.655 -34.413  1.00  0.00     0.009 A 
HETATM   19  C   UNL     1     -14.318   2.515 -32.724  1.00  0.00     0.007 A 
HETATM   20  C   UNL     1     -12.433   4.134 -32.938  1.00  0.00     0.049 C 
HETATM   21  C   UNL     1     -14.983   1.325 -33.015  1.00  0.00     0.001 A 
HETATM   22  C   UNL     1     -14.394   0.393 -33.860  1.00  0.00     0.001 A 
HETATM   23  C   UNL     1     -10.946   4.284 -33.233  1.00  0.00     0.080 C 
HETATM   24  S   UNL     1     -10.592   3.796 -34.941  1.00  0.00    -0.149 SA
ENDBRANCH  12  15
ENDBRANCH   1  11
BRANCH   8  25
HETATM   25  C   UNL     1      -6.427  -3.926 -34.989  1.00  0.00     0.270 C 
HETATM   26  N   UNL     1      -7.488  -4.364 -34.245  1.00  0.00    -0.365 N 
HETATM   27  H   UNL     1      -7.714  -3.874 -33.386  1.00  0.00     0.159 HD
HETATM   28  H   UNL     1      -8.032  -5.152 -34.559  1.00  0.00     0.159 HD
HETATM   29  O   UNL     1      -6.112  -4.476 -36.040  1.00  0.00    -0.266 OA
ENDBRANCH   8  25
TORSDOF 3
ENDMDL
MODEL 2
REMARK VINA RESULT:      -8.8      1.925      3.051
REMARK  3 active torsions:
REMARK  status: ('A' for Active; 'I' for Inactive)
REMARK    1  A    between atoms: C_5  and  C_6 
REMARK       I    between atoms: C_6  and  N_7 
REMARK    2  A    between atoms: N_7  and  C_8 
REMARK    3  A    between atoms: C_15  and  C_16 
REMARK       I    between atoms: C_16  and  N_17 
ROOT
HETATM    1  C   UNL     1      -7.974   0.448 -34.252  1.00  0.00     0.035 A 
HETATM    2  C   UNL     1      -7.328   0.824 -33.062  1.00  0.00     0.046 A 
HETATM    3  C   UNL     1      -6.168   0.139 -32.647  1.00  0.00     0.030 A 
HETATM    4  C   UNL     1      -5.691  -0.901 -33.431  1.00  0.00     0.063 A 
HETATM    5  N   UNL     1      -4.581  -1.366 -32.781  1.00  0.00    -0.277 N 
HETATM    6  H   UNL     1      -3.978  -2.129 -33.067  1.00  0.00     0.189 HD
HETATM    7  N   UNL     1      -4.289  -0.713 -31.643  1.00  0.00    -0.168 NA
HETATM    8  C   UNL     1      -5.263   0.221 -31.548  1.00  0.00     0.156 A 
HETATM    9  C   UNL     1      -6.303  -1.299 -34.619  1.00  0.00     0.034 A 
HETATM   10  C   UNL     1      -7.453  -0.601 -35.015  1.00  0.00     0.032 A 
ENDROOT
BRANCH   1  11
HETATM   11  N   UNL     1      -9.132   1.174 -34.600  1.00  0.00    -0.326 N 
HETATM   12  C   UNL     1     -10.402   1.087 -34.035  1.00  0.00     0.240 C 
HETATM   13  O   UNL     1     -10.718   0.321 -33.128  1.00  0.00    -0.272 OA
HETATM   14  H   UNL     1      -9.006   1.914 -35.284  1.00  0.00     0.169 HD
BRANCH  12  15
HETATM   15  C   UNL     1     -11.413   2.052 -34.705  1.00  0.00     0.172 C 
HETATM   16  C   UNL     1     -12.814   1.961 -34.117  1.00  0.00    -0.029 A 
HETATM   17  C   UNL     1     -13.316   2.855 -33.148  1.00  0.00    -0.050 A 
HETATM   18  C   UNL     1     -13.630   0.891 -34.537  1.00  0.00     0.009 A 
HETATM   19  C   UNL     1     -14.617   2.665 -32.646  1.00  0.00     0.007 A 
HETATM   20  C   UNL     1     -12.555   4.069 -32.661  1.00  0.00     0.049 C 
HETATM   21  C   UNL     1     -15.408   1.602 -33.077  1.00  0.00     0.001 A 
HETATM   22  C   UNL     1     -14.915   0.713 -34.023  1.00  0.00     0.001 A 
HETATM   23  C   UNL     1     -11.056   4.079 -32.929  1.00  0.00     0.080 C 
HETATM   24  S   UNL     1     -10.730   3.755 -34.682  1.00  0.00    -0.149 SA
ENDBRANCH  12  15
ENDBRANCH   1  11
BRANCH   8  25
HETATM   25  C   UNL     1      -5.311   1.168 -30.426  1.00  0.00     0.270 C 
HETATM   26  N   UNL     1      -6.036   0.726 -29.353  1.00  0.00    -0.365 N 
HETATM   27  H   UNL     1      -6.469  -0.190 -29.404  1.00  0.00     0.159 HD
HETATM   28  H   UNL     1      -6.123   1.303 -28.532  1.00  0.00     0.159 HD
HETATM   29  O   UNL     1      -4.760   2.264 -30.418  1.00  0.00    -0.266 OA
ENDBRANCH   8  25
TORSDOF 3
ENDMDL
MODEL 3
REMARK VINA RESULT:      -8.7      5.413      8.032
REMARK  3 active torsions:
REMARK  status: ('A' for Active; 'I' for Inactive)
REMARK    1  A    between atoms: C_5  and  C_6 
REMARK       I    between atoms: C_6  and  N_7 
REMARK    2  A    between atoms: N_7  and  C_8 
REMARK    3  A    between atoms: C_15  and  C_16 
REMARK       I    between atoms: C_16  and  N_17 
ROOT
HETATM    1  C   UNL     1      -4.308   3.766 -33.064  1.00  0.00     0.035 A 
HETATM    2  C   UNL     1      -3.142   4.050 -32.334  1.00  0.00     0.046 A 
HETATM    3  C   UNL     1      -2.304   5.111 -32.736  1.00  0.00     0.030 A 
HETATM    4  C   UNL     1      -2.657   5.854 -33.853  1.00  0.00     0.063 A 
HETATM    5  N   UNL     1      -1.669   6.789 -33.993  1.00  0.00    -0.277 N 
HETATM    6  H   UNL     1      -1.598   7.502 -34.711  1.00  0.00     0.189 HD
HETATM    7  N   UNL     1      -0.706   6.725 -33.059  1.00  0.00    -0.168 NA
HETATM    8  C   UNL     1      -1.086   5.692 -32.273  1.00  0.00     0.156 A 
HETATM    9  C   UNL     1      -3.808   5.603 -34.599  1.00  0.00     0.034 A 
HETATM   10  C   UNL     1      -4.628   4.545 -34.179  1.00  0.00     0.032 A 
ENDROOT
BRANCH   1  11
HETATM   11  N   UNL     1      -5.093   2.686 -32.608  1.00  0.00    -0.326 N 
HETATM   12  C   UNL     1      -6.137   2.713 -31.688  1.00  0.00     0.240 C 
HETATM   13  O   UNL     1      -6.532   3.716 -31.099  1.00  0.00    -0.272 OA
HETATM   14  H   UNL     1      -4.939   1.796 -33.073  1.00  0.00     0.169 HD
BRANCH  12  15
HETATM   15  C   UNL     1      -6.745   1.308 -31.446  1.00  0.00     0.172 C 
HETATM   16  C   UNL     1      -6.708   0.414 -32.678  1.00  0.00    -0.029 A 
HETATM   17  C   UNL     1      -5.719  -0.566 -32.905  1.00  0.00    -0.050 A 
HETATM   18  C   UNL     1      -7.696   0.619 -33.663  1.00  0.00     0.009 A 
HETATM   19  C   UNL     1      -5.758  -1.320 -34.092  1.00  0.00     0.007 A 
HETATM   20  C   UNL     1      -4.643  -0.913 -31.898  1.00  0.00     0.049 C 
HETATM   21  C   UNL     1      -6.745  -1.103 -35.052  1.00  0.00     0.001 A 
HETATM   22  C   UNL     1      -7.715  -0.132 -34.838  1.00  0.00     0.001 A 
HETATM   23  C   UNL     1      -4.392   0.111 -30.799  1.00  0.00     0.080 C 
HETATM   24  S   UNL     1      -5.947   0.547 -29.979  1.00  0.00    -0.149 SA
ENDBRANCH  12  15
ENDBRANCH   1  11
BRANCH   8  25
HETATM   25  C   UNL     1      -0.293   5.281 -31.107  1.00  0.00     0.270 C 
HETATM   26  N   UNL     1      -0.860   5.604 -29.904  1.00  0.00    -0.365 N 
HETATM   27  H   UNL     1      -1.754   6.082 -29.902  1.00  0.00     0.159 HD
HETATM   28  H   UNL     1      -0.393   5.359 -29.046  1.00  0.00     0.159 HD
HETATM   29  O   UNL     1       0.784   4.698 -31.170  1.00  0.00    -0.266 OA
ENDBRANCH   8  25
TORSDOF 3
ENDMDL
MODEL 4
REMARK VINA RESULT:      -8.5      3.410      7.897
REMARK  3 active torsions:
REMARK  status: ('A' for Active; 'I' for Inactive)
REMARK    1  A    between atoms: C_5  and  C_6 
REMARK       I    between atoms: C_6  and  N_7 
REMARK    2  A    between atoms: N_7  and  C_8 
REMARK    3  A    between atoms: C_15  and  C_16 
REMARK       I    between atoms: C_16  and  N_17 
ROOT
HETATM    1  C   UNL     1      -8.264   2.929 -33.458  1.00  0.00     0.035 A 
HETATM    2  C   UNL     1      -9.535   2.861 -34.054  1.00  0.00     0.046 A 
HETATM    3  C   UNL     1     -10.139   4.032 -34.554  1.00  0.00     0.030 A 
HETATM    4  C   UNL     1      -9.457   5.235 -34.442  1.00  0.00     0.063 A 
HETATM    5  N   UNL     1     -10.282   6.172 -35.000  1.00  0.00    -0.277 N 
HETATM    6  H   UNL     1     -10.107   7.168 -35.088  1.00  0.00     0.189 HD
HETATM    7  N   UNL     1     -11.440   5.683 -35.473  1.00  0.00    -0.168 NA
HETATM    8  C   UNL     1     -11.365   4.360 -35.205  1.00  0.00     0.156 A 
HETATM    9  C   UNL     1      -8.194   5.340 -33.860  1.00  0.00     0.034 A 
HETATM   10  C   UNL     1      -7.611   4.162 -33.373  1.00  0.00     0.032 A 
ENDROOT
BRANCH   1  11
HETATM   11  N   UNL     1      -7.726   1.719 -32.974  1.00  0.00    -0.326 N 
HETATM   12  C   UNL     1      -6.970   0.778 -33.668  1.00  0.00     0.240 C 
HETATM   13  O   UNL     1      -6.664   0.856 -34.855  1.00  0.00    -0.272 OA
HETATM   14  H   UNL     1      -7.824   1.554 -31.977  1.00  0.00     0.169 HD
BRANCH  12  15
HETATM   15  C   UNL     1      -6.571  -0.428 -32.780  1.00  0.00     0.172 C 
HETATM   16  C   UNL     1      -6.098  -1.635 -33.579  1.00  0.00    -0.029 A 
HETATM   17  C   UNL     1      -4.740  -1.945 -33.800  1.00  0.00    -0.050 A 
HETATM   18  C   UNL     1      -7.084  -2.455 -34.167  1.00  0.00     0.009 A 
HETATM   19  C   UNL     1      -4.409  -3.069 -34.579  1.00  0.00     0.007 A 
HETATM   20  C   UNL     1      -3.597  -1.172 -33.177  1.00  0.00     0.049 C 
HETATM   21  C   UNL     1      -5.399  -3.868 -35.149  1.00  0.00     0.001 A 
HETATM   22  C   UNL     1      -6.737  -3.561 -34.944  1.00  0.00     0.001 A 
HETATM   23  C   UNL     1      -3.933   0.212 -32.639  1.00  0.00     0.080 C 
HETATM   24  S   UNL     1      -5.356   0.123 -31.520  1.00  0.00    -0.149 SA
ENDBRANCH  12  15
ENDBRANCH   1  11
BRANCH   8  25
HETATM   25  C   UNL     1     -12.450   3.440 -35.571  1.00  0.00     0.270 C 
HETATM   26  N   UNL     1     -13.446   3.350 -34.638  1.00  0.00    -0.365 N 
HETATM   27  H   UNL     1     -13.370   3.905 -33.793  1.00  0.00     0.159 HD
HETATM   28  H   UNL     1     -14.236   2.747 -34.802  1.00  0.00     0.159 HD
HETATM   29  O   UNL     1     -12.491   2.796 -36.615  1.00  0.00    -0.266 OA
ENDBRANCH   8  25
TORSDOF 3
ENDMDL
MODEL 5
REMARK VINA RESULT:      -8.3      3.054      8.181
REMARK  3 active torsions:
REMARK  status: ('A' for Active; 'I' for Inactive)
REMARK    1  A    between atoms: C_5  and  C_6 
REMARK       I    between atoms: C_6  and  N_7 
REMARK    2  A    between atoms: N_7  and  C_8 
REMARK    3  A    between atoms: C_15  and  C_16 
REMARK       I    between atoms: C_16  and  N_17 
ROOT
HETATM    1  C   UNL     1     -10.620   1.609 -33.981  1.00  0.00     0.035 A 
HETATM    2  C   UNL     1     -10.269   2.958 -34.162  1.00  0.00     0.046 A 
HETATM    3  C   UNL     1     -11.184   3.846 -34.763  1.00  0.00     0.030 A 
HETATM    4  C   UNL     1     -12.419   3.361 -35.165  1.00  0.00     0.063 A 
HETATM    5  N   UNL     1     -13.072   4.434 -35.706  1.00  0.00    -0.277 N 
HETATM    6  H   UNL     1     -14.003   4.446 -36.107  1.00  0.00     0.189 HD
HETATM    7  N   UNL     1     -12.371   5.580 -35.684  1.00  0.00    -0.168 NA
HETATM    8  C   UNL     1     -11.201   5.231 -35.102  1.00  0.00     0.156 A 
HETATM    9  C   UNL     1     -12.804   2.030 -34.998  1.00  0.00     0.034 A 
HETATM   10  C   UNL     1     -11.879   1.165 -34.395  1.00  0.00     0.032 A 
ENDROOT
BRANCH   1  11
HETATM   11  N   UNL     1      -9.652   0.778 -33.380  1.00  0.00    -0.326 N 
HETATM   12  C   UNL     1      -8.439   0.349 -33.914  1.00  0.00     0.240 C 
HETATM   13  O   UNL     1      -8.027   0.625 -35.037  1.00  0.00    -0.272 OA
HETATM   14  H   UNL     1      -9.814   0.535 -32.408  1.00  0.00     0.169 HD
BRANCH  12  15
HETATM   15  C   UNL     1      -7.656  -0.565 -32.937  1.00  0.00     0.172 C 
HETATM   16  C   UNL     1      -6.656  -1.476 -33.635  1.00  0.00    -0.029 A 
HETATM   17  C   UNL     1      -5.278  -1.194 -33.737  1.00  0.00    -0.050 A 
HETATM   18  C   UNL     1      -7.155  -2.643 -34.251  1.00  0.00     0.009 A 
HETATM   19  C   UNL     1      -4.442  -2.089 -34.430  1.00  0.00     0.007 A 
HETATM   20  C   UNL     1      -4.620  -0.004 -33.072  1.00  0.00     0.049 C 
HETATM   21  C   UNL     1      -4.955  -3.238 -35.029  1.00  0.00     0.001 A 
HETATM   22  C   UNL     1      -6.313  -3.515 -34.941  1.00  0.00     0.001 A 
HETATM   23  C   UNL     1      -5.547   1.122 -32.633  1.00  0.00     0.080 C 
HETATM   24  S   UNL     1      -6.898   0.464 -31.620  1.00  0.00    -0.149 SA
ENDBRANCH  12  15
ENDBRANCH   1  11
BRANCH   8  25
HETATM   25  C   UNL     1     -10.131   6.214 -34.880  1.00  0.00     0.270 C 
HETATM   26  N   UNL     1      -9.974   7.109 -35.903  1.00  0.00    -0.365 N 
HETATM   27  H   UNL     1     -10.584   7.037 -36.709  1.00  0.00     0.159 HD
HETATM   28  H   UNL     1      -9.268   7.825 -35.839  1.00  0.00     0.159 HD
HETATM   29  O   UNL     1      -9.426   6.256 -33.877  1.00  0.00    -0.266 OA
ENDBRANCH   8  25
TORSDOF 3
ENDMDL
MODEL 6
REMARK VINA RESULT:      -8.3      5.714      8.849
REMARK  3 active torsions:
REMARK  status: ('A' for Active; 'I' for Inactive)
REMARK    1  A    between atoms: C_5  and  C_6 
REMARK       I    between atoms: C_6  and  N_7 
REMARK    2  A    between atoms: N_7  and  C_8 
REMARK    3  A    between atoms: C_15  and  C_16 
REMARK       I    between atoms: C_16  and  N_17 
ROOT
HETATM    1  C   UNL     1      -3.217   3.580 -32.513  1.00  0.00     0.035 A 
HETATM    2  C   UNL     1      -2.418   4.126 -31.494  1.00  0.00     0.046 A 
HETATM    3  C   UNL     1      -1.604   5.245 -31.764  1.00  0.00     0.030 A 
HETATM    4  C   UNL     1      -1.612   5.783 -33.043  1.00  0.00     0.063 A 
HETATM    5  N   UNL     1      -0.738   6.834 -33.000  1.00  0.00    -0.277 N 
HETATM    6  H   UNL     1      -0.491   7.456 -33.762  1.00  0.00     0.189 HD
HETATM    7  N   UNL     1      -0.165   7.032 -31.801  1.00  0.00    -0.168 NA
HETATM    8  C   UNL     1      -0.692   6.057 -31.027  1.00  0.00     0.156 A 
HETATM    9  C   UNL     1      -2.395   5.270 -34.078  1.00  0.00     0.034 A 
HETATM   10  C   UNL     1      -3.199   4.159 -33.785  1.00  0.00     0.032 A 
ENDROOT
BRANCH   1  11
HETATM   11  N   UNL     1      -3.998   2.457 -32.171  1.00  0.00    -0.326 N 
HETATM   12  C   UNL     1      -5.289   2.149 -32.593  1.00  0.00     0.240 C 
HETATM   13  O   UNL     1      -5.972   2.847 -33.339  1.00  0.00    -0.272 OA
HETATM   14  H   UNL     1      -3.533   1.740 -31.623  1.00  0.00     0.169 HD
BRANCH  12  15
HETATM   15  C   UNL     1      -5.807   0.821 -31.984  1.00  0.00     0.172 C 
HETATM   16  C   UNL     1      -5.749  -0.350 -32.955  1.00  0.00    -0.029 A 
HETATM   17  C   UNL     1      -4.710  -1.305 -32.969  1.00  0.00    -0.050 A 
HETATM   18  C   UNL     1      -6.772  -0.449 -33.920  1.00  0.00     0.009 A 
HETATM   19  C   UNL     1      -4.736  -2.334 -33.928  1.00  0.00     0.007 A 
HETATM   20  C   UNL     1      -3.590  -1.333 -31.952  1.00  0.00     0.049 C 
HETATM   21  C   UNL     1      -5.759  -2.415 -34.872  1.00  0.00     0.001 A 
HETATM   22  C   UNL     1      -6.778  -1.472 -34.869  1.00  0.00     0.001 A 
HETATM   23  C   UNL     1      -3.371  -0.055 -31.154  1.00  0.00     0.080 C 
HETATM   24  S   UNL     1      -4.928   0.495 -30.407  1.00  0.00    -0.149 SA
ENDBRANCH  12  15
ENDBRANCH   1  11
BRANCH   8  25
HETATM   25  C   UNL     1      -0.325   5.918 -29.611  1.00  0.00     0.270 C 
HETATM   26  N   UNL     1       0.408   4.797 -29.331  1.00  0.00    -0.365 N 
HETATM   27  H   UNL     1       0.639   4.167 -30.091  1.00  0.00     0.159 HD
HETATM   28  H   UNL     1       0.711   4.617 -28.388  1.00  0.00     0.159 HD
HETATM   29  O   UNL     1      -0.630   6.719 -28.733  1.00  0.00    -0.266 OA
ENDBRANCH   8  25
TORSDOF 3
ENDMDL
MODEL 7
REMARK VINA RESULT:      -8.1      5.823      9.013
REMARK  3 active torsions:
REMARK  status: ('A' for Active; 'I' for Inactive)
REMARK    1  A    between atoms: C_5  and  C_6 
REMARK       I    between atoms: C_6  and  N_7 
REMARK    2  A    between atoms: N_7  and  C_8 
REMARK    3  A    between atoms: C_15  and  C_16 
REMARK       I    between atoms: C_16  and  N_17 
ROOT
HETATM    1  C   UNL     1      -3.361   4.119 -32.494  1.00  0.00     0.035 A 
HETATM    2  C   UNL     1      -3.703   5.327 -31.863  1.00  0.00     0.046 A 
HETATM    3  C   UNL     1      -2.976   6.500 -32.152  1.00  0.00     0.030 A 
HETATM    4  C   UNL     1      -1.929   6.429 -33.060  1.00  0.00     0.063 A 
HETATM    5  N   UNL     1      -1.422   7.697 -33.128  1.00  0.00    -0.277 N 
HETATM    6  H   UNL     1      -0.642   8.015 -33.694  1.00  0.00     0.189 HD
HETATM    7  N   UNL     1      -2.052   8.591 -32.348  1.00  0.00    -0.168 NA
HETATM    8  C   UNL     1      -3.016   7.864 -31.739  1.00  0.00     0.156 A 
HETATM    9  C   UNL     1      -1.564   5.249 -33.708  1.00  0.00     0.034 A 
HETATM   10  C   UNL     1      -2.304   4.096 -33.407  1.00  0.00     0.032 A 
ENDROOT
BRANCH   1  11
HETATM   11  N   UNL     1      -4.128   2.987 -32.150  1.00  0.00    -0.326 N 
HETATM   12  C   UNL     1      -5.233   2.464 -32.817  1.00  0.00     0.240 C 
HETATM   13  O   UNL     1      -5.735   2.941 -33.831  1.00  0.00    -0.272 OA
HETATM   14  H   UNL     1      -3.781   2.432 -31.373  1.00  0.00     0.169 HD
BRANCH  12  15
HETATM   15  C   UNL     1      -5.805   1.206 -32.113  1.00  0.00     0.172 C 
HETATM   16  C   UNL     1      -5.853  -0.019 -33.015  1.00  0.00    -0.029 A 
HETATM   17  C   UNL     1      -4.874  -1.035 -33.009  1.00  0.00    -0.050 A 
HETATM   18  C   UNL     1      -6.916  -0.110 -33.937  1.00  0.00     0.009 A 
HETATM   19  C   UNL     1      -4.996  -2.113 -33.904  1.00  0.00     0.007 A 
HETATM   20  C   UNL     1      -3.720  -1.073 -32.030  1.00  0.00     0.049 C 
HETATM   21  C   UNL     1      -6.057  -2.185 -34.806  1.00  0.00     0.001 A 
HETATM   22  C   UNL     1      -7.017  -1.183 -34.823  1.00  0.00     0.001 A 
HETATM   23  C   UNL     1      -3.396   0.232 -31.317  1.00  0.00     0.080 C 
HETATM   24  S   UNL     1      -4.888   0.917 -30.550  1.00  0.00    -0.149 SA
ENDBRANCH  12  15
ENDBRANCH   1  11
BRANCH   8  25
HETATM   25  C   UNL     1      -3.952   8.476 -30.786  1.00  0.00     0.270 C 
HETATM   26  N   UNL     1      -3.590   8.329 -29.475  1.00  0.00    -0.365 N 
HETATM   27  H   UNL     1      -2.734   7.831 -29.261  1.00  0.00     0.159 HD
HETATM   28  H   UNL     1      -4.167   8.719 -28.747  1.00  0.00     0.159 HD
HETATM   29  O   UNL     1      -4.975   9.075 -31.104  1.00  0.00    -0.266 OA
ENDBRANCH   8  25
TORSDOF 3
ENDMDL
MODEL 8
REMARK VINA RESULT:      -8.0      4.967      6.978
REMARK  3 active torsions:
REMARK  status: ('A' for Active; 'I' for Inactive)
REMARK    1  A    between atoms: C_5  and  C_6 
REMARK       I    between atoms: C_6  and  N_7 
REMARK    2  A    between atoms: N_7  and  C_8 
REMARK    3  A    between atoms: C_15  and  C_16 
REMARK       I    between atoms: C_16  and  N_17 
ROOT
HETATM    1  C   UNL     1      -3.749   0.381 -32.240  1.00  0.00     0.035 A 
HETATM    2  C   UNL     1      -4.609  -0.344 -33.083  1.00  0.00     0.046 A 
HETATM    3  C   UNL     1      -4.429  -1.733 -33.242  1.00  0.00     0.030 A 
HETATM    4  C   UNL     1      -3.395  -2.355 -32.557  1.00  0.00     0.063 A 
HETATM    5  N   UNL     1      -3.468  -3.674 -32.909  1.00  0.00    -0.277 N 
HETATM    6  H   UNL     1      -2.862  -4.426 -32.599  1.00  0.00     0.189 HD
HETATM    7  N   UNL     1      -4.466  -3.968 -33.760  1.00  0.00    -0.168 NA
HETATM    8  C   UNL     1      -5.069  -2.776 -33.974  1.00  0.00     0.156 A 
HETATM    9  C   UNL     1      -2.525  -1.669 -31.710  1.00  0.00     0.034 A 
HETATM   10  C   UNL     1      -2.726  -0.289 -31.563  1.00  0.00     0.032 A 
ENDROOT
BRANCH   1  11
HETATM   11  N   UNL     1      -3.985   1.767 -32.136  1.00  0.00    -0.326 N 
HETATM   12  C   UNL     1      -4.717   2.441 -31.163  1.00  0.00     0.240 C 
HETATM   13  O   UNL     1      -5.305   1.907 -30.226  1.00  0.00    -0.272 OA
HETATM   14  H   UNL     1      -3.488   2.355 -32.798  1.00  0.00     0.169 HD
BRANCH  12  15
HETATM   15  C   UNL     1      -4.749   3.972 -31.404  1.00  0.00     0.172 C 
HETATM   16  C   UNL     1      -3.622   4.464 -32.302  1.00  0.00    -0.029 A 
HETATM   17  C   UNL     1      -3.772   4.714 -33.682  1.00  0.00    -0.050 A 
HETATM   18  C   UNL     1      -2.349   4.631 -31.719  1.00  0.00     0.009 A 
HETATM   19  C   UNL     1      -2.658   5.139 -34.429  1.00  0.00     0.007 A 
HETATM   20  C   UNL     1      -5.098   4.623 -34.406  1.00  0.00     0.049 C 
HETATM   21  C   UNL     1      -1.409   5.301 -33.832  1.00  0.00     0.001 A 
HETATM   22  C   UNL     1      -1.253   5.046 -32.476  1.00  0.00     0.001 A 
HETATM   23  C   UNL     1      -6.201   3.846 -33.699  1.00  0.00     0.080 C 
HETATM   24  S   UNL     1      -6.414   4.456 -32.006  1.00  0.00    -0.149 SA
ENDBRANCH  12  15
ENDBRANCH   1  11
BRANCH   8  25
HETATM   25  C   UNL     1      -6.234  -2.654 -34.861  1.00  0.00     0.270 C 
HETATM   26  N   UNL     1      -6.751  -3.852 -35.272  1.00  0.00    -0.365 N 
HETATM   27  H   UNL     1      -6.314  -4.706 -34.947  1.00  0.00     0.159 HD
HETATM   28  H   UNL     1      -7.555  -3.871 -35.879  1.00  0.00     0.159 HD
HETATM   29  O   UNL     1      -6.725  -1.588 -35.218  1.00  0.00    -0.266 OA
ENDBRANCH   8  25
TORSDOF 3
ENDMDL
MODEL 9
REMARK VINA RESULT:      -8.0      3.224      8.454
REMARK  3 active torsions:
REMARK  status: ('A' for Active; 'I' for Inactive)
REMARK    1  A    between atoms: C_5  and  C_6 
REMARK       I    between atoms: C_6  and  N_7 
REMARK    2  A    between atoms: N_7  and  C_8 
REMARK    3  A    between atoms: C_15  and  C_16 
REMARK       I    between atoms: C_16  and  N_17 
ROOT
HETATM    1  C   UNL     1     -11.253   1.868 -33.920  1.00  0.00     0.035 A 
HETATM    2  C   UNL     1     -11.720   2.667 -32.864  1.00  0.00     0.046 A 
HETATM    3  C   UNL     1     -13.107   2.809 -32.651  1.00  0.00     0.030 A 
HETATM    4  C   UNL     1     -13.983   2.149 -33.501  1.00  0.00     0.063 A 
HETATM    5  N   UNL     1     -15.234   2.476 -33.056  1.00  0.00    -0.277 N 
HETATM    6  H   UNL     1     -16.120   2.174 -33.445  1.00  0.00     0.189 HD
HETATM    7  N   UNL     1     -15.249   3.287 -31.985  1.00  0.00    -0.168 NA
HETATM    8  C   UNL     1     -13.940   3.500 -31.723  1.00  0.00     0.156 A 
HETATM    9  C   UNL     1     -13.555   1.345 -34.557  1.00  0.00     0.034 A 
HETATM   10  C   UNL     1     -12.172   1.216 -34.747  1.00  0.00     0.032 A 
ENDROOT
BRANCH   1  11
HETATM   11  N   UNL     1      -9.854   1.779 -34.076  1.00  0.00    -0.326 N 
HETATM   12  C   UNL     1      -8.972   0.917 -33.431  1.00  0.00     0.240 C 
HETATM   13  O   UNL     1      -9.291   0.087 -32.584  1.00  0.00    -0.272 OA
HETATM   14  H   UNL     1      -9.450   2.351 -34.812  1.00  0.00     0.169 HD
BRANCH  12  15
HETATM   15  C   UNL     1      -7.502   1.137 -33.873  1.00  0.00     0.172 C 
HETATM   16  C   UNL     1      -6.490   0.814 -32.783  1.00  0.00    -0.029 A 
HETATM   17  C   UNL     1      -5.791  -0.408 -32.701  1.00  0.00    -0.050 A 
HETATM   18  C   UNL     1      -6.282   1.781 -31.778  1.00  0.00     0.009 A 
HETATM   19  C   UNL     1      -4.896  -0.619 -31.635  1.00  0.00     0.007 A 
HETATM   20  C   UNL     1      -5.890  -1.497 -33.748  1.00  0.00     0.049 C 
HETATM   21  C   UNL     1      -4.704   0.351 -30.653  1.00  0.00     0.001 A 
HETATM   22  C   UNL     1      -5.397   1.552 -30.723  1.00  0.00     0.001 A 
HETATM   23  C   UNL     1      -7.086  -1.422 -34.687  1.00  0.00     0.080 C 
HETATM   24  S   UNL     1      -7.197   0.225 -35.435  1.00  0.00    -0.149 SA
ENDBRANCH  12  15
ENDBRANCH   1  11
BRANCH   8  25
HETATM   25  C   UNL     1     -13.509   4.348 -30.603  1.00  0.00     0.270 C 
HETATM   26  N   UNL     1     -12.596   3.757 -29.774  1.00  0.00    -0.365 N 
HETATM   27  H   UNL     1     -12.289   2.814 -29.984  1.00  0.00     0.159 HD
HETATM   28  H   UNL     1     -12.237   4.262 -28.980  1.00  0.00     0.159 HD
HETATM   29  O   UNL     1     -13.912   5.489 -30.402  1.00  0.00    -0.266 OA
ENDBRANCH   8  25
TORSDOF 3
ENDMDL
MODEL 10
REMARK VINA RESULT:      -8.0      5.695      8.279
REMARK  3 active torsions:
REMARK  status: ('A' for Active; 'I' for Inactive)
REMARK    1  A    between atoms: C_5  and  C_6 
REMARK       I    between atoms: C_6  and  N_7 
REMARK    2  A    between atoms: N_7  and  C_8 
REMARK    3  A    between atoms: C_15  and  C_16 
REMARK       I    between atoms: C_16  and  N_17 
ROOT
HETATM    1  C   UNL     1      -4.050   3.381 -32.780  1.00  0.00     0.035 A 
HETATM    2  C   UNL     1      -2.870   3.880 -32.201  1.00  0.00     0.046 A 
HETATM    3  C   UNL     1      -2.372   5.138 -32.597  1.00  0.00     0.030 A 
HETATM    4  C   UNL     1      -3.066   5.858 -33.559  1.00  0.00     0.063 A 
HETATM    5  N   UNL     1      -2.352   7.011 -33.735  1.00  0.00    -0.277 N 
HETATM    6  H   UNL     1      -2.565   7.773 -34.369  1.00  0.00     0.189 HD
HETATM    7  N   UNL     1      -1.255   7.108 -32.965  1.00  0.00    -0.168 NA
HETATM    8  C   UNL     1      -1.255   5.957 -32.256  1.00  0.00     0.156 A 
HETATM    9  C   UNL     1      -4.242   5.397 -34.151  1.00  0.00     0.034 A 
HETATM   10  C   UNL     1      -4.720   4.144 -33.739  1.00  0.00     0.032 A 
ENDROOT
BRANCH   1  11
HETATM   11  N   UNL     1      -4.483   2.113 -32.340  1.00  0.00    -0.326 N 
HETATM   12  C   UNL     1      -3.806   1.212 -31.523  1.00  0.00     0.240 C 
HETATM   13  O   UNL     1      -2.680   1.384 -31.063  1.00  0.00    -0.272 OA
HETATM   14  H   UNL     1      -5.440   1.864 -32.571  1.00  0.00     0.169 HD
BRANCH  12  15
HETATM   15  C   UNL     1      -4.621  -0.083 -31.273  1.00  0.00     0.172 C 
HETATM   16  C   UNL     1      -6.032  -0.027 -31.841  1.00  0.00    -0.029 A 
HETATM   17  C   UNL     1      -6.401  -0.590 -33.081  1.00  0.00    -0.050 A 
HETATM   18  C   UNL     1      -7.007   0.672 -31.099  1.00  0.00     0.009 A 
HETATM   19  C   UNL     1      -7.728  -0.457 -33.529  1.00  0.00     0.007 A 
HETATM   20  C   UNL     1      -5.458  -1.407 -33.937  1.00  0.00     0.049 C 
HETATM   21  C   UNL     1      -8.676   0.236 -32.779  1.00  0.00     0.001 A 
HETATM   22  C   UNL     1      -8.316   0.802 -31.563  1.00  0.00     0.001 A 
HETATM   23  C   UNL     1      -3.973  -1.260 -33.636  1.00  0.00     0.080 C 
HETATM   24  S   UNL     1      -3.660  -1.528 -31.871  1.00  0.00    -0.149 SA
ENDBRANCH  12  15
ENDBRANCH   1  11
BRANCH   8  25
HETATM   25  C   UNL     1      -0.204   5.660 -31.273  1.00  0.00     0.270 C 
HETATM   26  N   UNL     1       0.043   6.680 -30.395  1.00  0.00    -0.365 N 
HETATM   27  H   UNL     1      -0.497   7.534 -30.479  1.00  0.00     0.159 HD
HETATM   28  H   UNL     1       0.744   6.569 -29.680  1.00  0.00     0.159 HD
HETATM   29  O   UNL     1       0.413   4.602 -31.215  1.00  0.00    -0.266 OA
ENDBRANCH   8  25
TORSDOF 3
ENDMDL
