MODEL 1
REMARK VINA RESULT:      -8.8      0.000      0.000
REMARK  7 active torsions:
REMARK  status: ('A' for Active; 'I' for Inactive)
REMARK    1  A    between atoms: C_7  and  C_8 
REMARK    2  A    between atoms: C_8  and  C_9 
REMARK    3  A    between atoms: C_9  and  C_10 
REMARK    4  A    between atoms: C_10  and  O_11 
REMARK    5  A    between atoms: C_13  and  C_14 
REMARK    6  A    between atoms: C_22  and  C_23 
REMARK       I    between atoms: C_23  and  N_24 
REMARK    7  A    between atoms: N_24  and  C_25 
ROOT
HETATM    1  C   UNL     1      -8.717   5.505 -30.950  1.00  0.00     0.070 C 
HETATM    2  C   UNL     1      -7.888   5.034 -32.121  1.00  0.00     0.037 C 
HETATM    3  N   UNL     1      -6.794   5.833 -32.433  1.00  0.00    -0.192 N 
HETATM    4  C   UNL     1      -5.834   5.463 -33.300  1.00  0.00     0.726 A 
HETATM    5  N   UNL     1      -5.982   4.308 -34.017  1.00  0.00    -0.083 N 
HETATM    6  N   UNL     1      -4.911   4.083 -34.811  1.00  0.00    -0.140 NA
HETATM    7  C   UNL     1      -4.138   5.134 -34.491  1.00  0.00     0.166 A 
HETATM    8  N   UNL     1      -4.680   6.010 -33.582  1.00  0.00    -0.046 NA
HETATM    9  C   UNL     1      -7.164   3.436 -33.929  1.00  0.00     0.204 C 
HETATM   10  C   UNL     1      -8.116   3.892 -32.822  1.00  0.00     0.062 C 
HETATM   11  H   UNL     1      -6.603   6.626 -31.826  1.00  0.00     0.184 HD
ENDROOT
BRANCH  10  12
HETATM   12  C   UNL     1      -9.280   3.012 -32.528  1.00  0.00     0.256 C 
HETATM   13  N   UNL     1     -10.301   3.128 -33.449  1.00  0.00    -0.323 N 
HETATM   14  H   UNL     1     -10.147   3.739 -34.241  1.00  0.00     0.169 HD
HETATM   15  O   UNL     1      -9.251   2.271 -31.557  1.00  0.00    -0.267 OA
BRANCH  13  16
HETATM   16  C   UNL     1     -11.588   2.552 -33.358  1.00  0.00     0.035 A 
HETATM   17  C   UNL     1     -12.701   3.206 -32.816  1.00  0.00     0.032 A 
HETATM   18  C   UNL     1     -13.954   2.586 -32.799  1.00  0.00     0.044 A 
HETATM   19  C   UNL     1     -14.095   1.310 -33.326  1.00  0.00     0.116 A 
HETATM   20  F   UNL     1     -15.297   0.720 -33.319  1.00  0.00    -0.206 F 
HETATM   21  C   UNL     1     -13.005   0.640 -33.863  1.00  0.00     0.044 A 
HETATM   22  C   UNL     1     -11.751   1.259 -33.877  1.00  0.00     0.032 A 
ENDBRANCH  13  16
ENDBRANCH  10  12
BRANCH   9  23
HETATM   23  C   UNL     1      -6.750   1.965 -33.924  1.00  0.00    -0.005 A 
HETATM   24  C   UNL     1      -5.969   1.367 -32.911  1.00  0.00     0.064 A 
HETATM   25 CL   UNL     1      -5.407   2.305 -31.561  1.00  0.00    -0.082 Cl
HETATM   26  C   UNL     1      -5.646  -0.000 -32.992  1.00  0.00     0.056 A 
HETATM   27 CL   UNL     1      -4.700  -0.808 -31.788  1.00  0.00    -0.083 Cl
HETATM   28  C   UNL     1      -6.088  -0.771 -34.071  1.00  0.00     0.026 A 
HETATM   29  C   UNL     1      -6.853  -0.191 -35.077  1.00  0.00     0.002 A 
HETATM   30  C   UNL     1      -7.180   1.162 -35.004  1.00  0.00     0.011 A 
ENDBRANCH   9  23
BRANCH   7  31
HETATM   31  C   UNL     1      -2.746   5.274 -34.988  1.00  0.00     0.085 C 
BRANCH  31  32
HETATM   32  C   UNL     1      -1.716   5.314 -33.855  1.00  0.00     0.034 C 
BRANCH  32  33
HETATM   33  C   UNL     1      -1.064   6.677 -33.639  1.00  0.00     0.164 C 
BRANCH  33  34
HETATM   34  O   UNL     1      -1.804   7.706 -34.278  1.00  0.00    -0.401 OA
HETATM   35  H   UNL     1      -2.688   7.715 -33.859  1.00  0.00     0.209 HD
ENDBRANCH  33  34
ENDBRANCH  32  33
ENDBRANCH  31  32
ENDBRANCH   7  31
TORSDOF 7
ENDMDL
MODEL 2
REMARK VINA RESULT:      -8.7      1.383      1.805
REMARK  7 active torsions:
REMARK  status: ('A' for Active; 'I' for Inactive)
REMARK    1  A    between atoms: C_7  and  C_8 
REMARK    2  A    between atoms: C_8  and  C_9 
REMARK    3  A    between atoms: C_9  and  C_10 
REMARK    4  A    between atoms: C_10  and  O_11 
REMARK    5  A    between atoms: C_13  and  C_14 
REMARK    6  A    between atoms: C_22  and  C_23 
REMARK       I    between atoms: C_23  and  N_24 
REMARK    7  A    between atoms: N_24  and  C_25 
ROOT
HETATM    1  C   UNL     1      -9.008   5.961 -32.171  1.00  0.00     0.070 C 
HETATM    2  C   UNL     1      -7.883   5.244 -32.880  1.00  0.00     0.037 C 
HETATM    3  N   UNL     1      -6.760   6.019 -33.144  1.00  0.00    -0.192 N 
HETATM    4  C   UNL     1      -5.594   5.505 -33.576  1.00  0.00     0.726 A 
HETATM    5  N   UNL     1      -5.521   4.178 -33.899  1.00  0.00    -0.083 N 
HETATM    6  N   UNL     1      -4.271   3.834 -34.281  1.00  0.00    -0.140 NA
HETATM    7  C   UNL     1      -3.632   5.006 -34.130  1.00  0.00     0.166 A 
HETATM    8  N   UNL     1      -4.416   6.055 -33.717  1.00  0.00    -0.046 NA
HETATM    9  C   UNL     1      -6.668   3.257 -33.839  1.00  0.00     0.204 C 
HETATM   10  C   UNL     1      -7.892   3.927 -33.213  1.00  0.00     0.062 C 
HETATM   11  H   UNL     1      -6.755   6.974 -32.795  1.00  0.00     0.184 HD
ENDROOT
BRANCH  10  12
HETATM   12  C   UNL     1      -9.077   3.062 -32.958  1.00  0.00     0.256 C 
HETATM   13  N   UNL     1      -9.746   2.696 -34.108  1.00  0.00    -0.323 N 
HETATM   14  H   UNL     1      -9.351   2.993 -34.991  1.00  0.00     0.169 HD
HETATM   15  O   UNL     1      -9.355   2.736 -31.813  1.00  0.00    -0.267 OA
BRANCH  13  16
HETATM   16  C   UNL     1     -10.986   2.021 -34.183  1.00  0.00     0.035 A 
HETATM   17  C   UNL     1     -11.234   0.775 -33.596  1.00  0.00     0.032 A 
HETATM   18  C   UNL     1     -12.502   0.190 -33.677  1.00  0.00     0.044 A 
HETATM   19  C   UNL     1     -13.522   0.852 -34.347  1.00  0.00     0.116 A 
HETATM   20  F   UNL     1     -14.738   0.296 -34.416  1.00  0.00    -0.206 F 
HETATM   21  C   UNL     1     -13.296   2.085 -34.942  1.00  0.00     0.044 A 
HETATM   22  C   UNL     1     -12.028   2.669 -34.862  1.00  0.00     0.032 A 
ENDBRANCH  13  16
ENDBRANCH  10  12
BRANCH   9  23
HETATM   23  C   UNL     1      -6.245   1.907 -33.259  1.00  0.00    -0.005 A 
HETATM   24  C   UNL     1      -6.403   0.674 -33.930  1.00  0.00     0.064 A 
HETATM   25 CL   UNL     1      -7.116   0.617 -35.512  1.00  0.00    -0.082 Cl
HETATM   26  C   UNL     1      -5.974  -0.516 -33.314  1.00  0.00     0.056 A 
HETATM   27 CL   UNL     1      -6.125  -2.065 -34.073  1.00  0.00    -0.083 Cl
HETATM   28  C   UNL     1      -5.399  -0.490 -32.041  1.00  0.00     0.026 A 
HETATM   29  C   UNL     1      -5.245   0.717 -31.369  1.00  0.00     0.002 A 
HETATM   30  C   UNL     1      -5.664   1.903 -31.971  1.00  0.00     0.011 A 
ENDBRANCH   9  23
BRANCH   7  31
HETATM   31  C   UNL     1      -2.160   5.131 -34.277  1.00  0.00     0.085 C 
BRANCH  31  32
HETATM   32  C   UNL     1      -1.472   5.572 -32.982  1.00  0.00     0.034 C 
BRANCH  32  33
HETATM   33  C   UNL     1      -1.158   7.064 -32.908  1.00  0.00     0.164 C 
BRANCH  33  34
HETATM   34  O   UNL     1      -1.617   7.743 -34.067  1.00  0.00    -0.401 OA
HETATM   35  H   UNL     1      -2.265   7.151 -34.498  1.00  0.00     0.209 HD
ENDBRANCH  33  34
ENDBRANCH  32  33
ENDBRANCH  31  32
ENDBRANCH   7  31
TORSDOF 7
ENDMDL
MODEL 3
REMARK VINA RESULT:      -8.5      3.880      6.438
REMARK  7 active torsions:
REMARK  status: ('A' for Active; 'I' for Inactive)
REMARK    1  A    between atoms: C_7  and  C_8 
REMARK    2  A    between atoms: C_8  and  C_9 
REMARK    3  A    between atoms: C_9  and  C_10 
REMARK    4  A    between atoms: C_10  and  O_11 
REMARK    5  A    between atoms: C_13  and  C_14 
REMARK    6  A    between atoms: C_22  and  C_23 
REMARK       I    between atoms: C_23  and  N_24 
REMARK    7  A    between atoms: N_24  and  C_25 
ROOT
HETATM    1  C   UNL     1     -10.499   0.092 -33.000  1.00  0.00     0.070 C 
HETATM    2  C   UNL     1      -9.764   1.396 -32.796  1.00  0.00     0.037 C 
HETATM    3  N   UNL     1     -10.465   2.368 -32.093  1.00  0.00    -0.192 N 
HETATM    4  C   UNL     1      -9.900   3.502 -31.640  1.00  0.00     0.726 A 
HETATM    5  N   UNL     1      -8.609   3.796 -31.983  1.00  0.00    -0.083 N 
HETATM    6  N   UNL     1      -8.201   4.953 -31.415  1.00  0.00    -0.140 NA
HETATM    7  C   UNL     1      -9.296   5.285 -30.711  1.00  0.00     0.166 A 
HETATM    8  N   UNL     1     -10.363   4.428 -30.840  1.00  0.00    -0.046 NA
HETATM    9  C   UNL     1      -7.785   2.953 -32.864  1.00  0.00     0.204 C 
HETATM   10  C   UNL     1      -8.491   1.639 -33.203  1.00  0.00     0.062 C 
HETATM   11  H   UNL     1     -11.378   2.115 -31.724  1.00  0.00     0.184 HD
ENDROOT
BRANCH  10  12
HETATM   12  C   UNL     1      -7.706   0.630 -33.967  1.00  0.00     0.256 C 
HETATM   13  N   UNL     1      -7.273  -0.428 -33.193  1.00  0.00    -0.323 N 
HETATM   14  H   UNL     1      -7.565  -0.446 -32.225  1.00  0.00     0.169 HD
HETATM   15  O   UNL     1      -7.523   0.784 -35.165  1.00  0.00    -0.267 OA
BRANCH  13  16
HETATM   16  C   UNL     1      -6.380  -1.450 -33.587  1.00  0.00     0.035 A 
HETATM   17  C   UNL     1      -6.725  -2.500 -34.447  1.00  0.00     0.032 A 
HETATM   18  C   UNL     1      -5.773  -3.451 -34.826  1.00  0.00     0.044 A 
HETATM   19  C   UNL     1      -4.475  -3.354 -34.344  1.00  0.00     0.116 A 
HETATM   20  F   UNL     1      -3.561  -4.260 -34.716  1.00  0.00    -0.206 F 
HETATM   21  C   UNL     1      -4.113  -2.326 -33.486  1.00  0.00     0.044 A 
HETATM   22  C   UNL     1      -5.065  -1.375 -33.105  1.00  0.00     0.032 A 
ENDBRANCH  13  16
ENDBRANCH  10  12
BRANCH   9  23
HETATM   23  C   UNL     1      -6.355   2.854 -32.333  1.00  0.00    -0.005 A 
HETATM   24  C   UNL     1      -5.233   3.423 -32.973  1.00  0.00     0.064 A 
HETATM   25 CL   UNL     1      -5.417   4.300 -34.461  1.00  0.00    -0.082 Cl
HETATM   26  C   UNL     1      -3.956   3.284 -32.399  1.00  0.00     0.056 A 
HETATM   27 CL   UNL     1      -2.531   3.959 -33.118  1.00  0.00    -0.083 Cl
HETATM   28  C   UNL     1      -3.787   2.581 -31.204  1.00  0.00     0.026 A 
HETATM   29  C   UNL     1      -4.884   2.011 -30.568  1.00  0.00     0.002 A 
HETATM   30  C   UNL     1      -6.154   2.146 -31.127  1.00  0.00     0.011 A 
ENDBRANCH   9  23
BRANCH   7  31
HETATM   31  C   UNL     1      -9.313   6.428 -29.763  1.00  0.00     0.085 C 
BRANCH  31  32
HETATM   32  C   UNL     1      -7.931   6.724 -29.174  1.00  0.00     0.034 C 
BRANCH  32  33
HETATM   33  C   UNL     1      -7.487   5.757 -28.079  1.00  0.00     0.164 C 
BRANCH  33  34
HETATM   34  O   UNL     1      -6.675   4.720 -28.610  1.00  0.00    -0.401 OA
HETATM   35  H   UNL     1      -7.280   4.090 -29.050  1.00  0.00     0.209 HD
ENDBRANCH  33  34
ENDBRANCH  32  33
ENDBRANCH  31  32
ENDBRANCH   7  31
TORSDOF 7
ENDMDL
MODEL 4
REMARK VINA RESULT:      -8.4      3.851      6.706
REMARK  7 active torsions:
REMARK  status: ('A' for Active; 'I' for Inactive)
REMARK    1  A    between atoms: C_7  and  C_8 
REMARK    2  A    between atoms: C_8  and  C_9 
REMARK    3  A    between atoms: C_9  and  C_10 
REMARK    4  A    between atoms: C_10  and  O_11 
REMARK    5  A    between atoms: C_13  and  C_14 
REMARK    6  A    between atoms: C_22  and  C_23 
REMARK       I    between atoms: C_23  and  N_24 
REMARK    7  A    between atoms: N_24  and  C_25 
ROOT
HETATM    1  C   UNL     1      -3.314   2.349 -32.309  1.00  0.00     0.070 C 
HETATM    2  C   UNL     1      -4.634   2.604 -31.621  1.00  0.00     0.037 C 
HETATM    3  N   UNL     1      -4.591   3.521 -30.577  1.00  0.00    -0.192 N 
HETATM    4  C   UNL     1      -5.693   4.025 -29.992  1.00  0.00     0.726 A 
HETATM    5  N   UNL     1      -6.923   3.534 -30.335  1.00  0.00    -0.083 N 
HETATM    6  N   UNL     1      -7.911   4.177 -29.673  1.00  0.00    -0.140 NA
HETATM    7  C   UNL     1      -7.197   5.071 -28.969  1.00  0.00     0.166 A 
HETATM    8  N   UNL     1      -5.835   4.994 -29.125  1.00  0.00    -0.046 NA
HETATM    9  C   UNL     1      -7.127   2.442 -31.301  1.00  0.00     0.204 C 
HETATM   10  C   UNL     1      -5.818   2.048 -31.987  1.00  0.00     0.062 C 
HETATM   11  H   UNL     1      -3.705   3.986 -30.396  1.00  0.00     0.184 HD
ENDROOT
BRANCH  10  12
HETATM   12  C   UNL     1      -5.909   1.055 -33.093  1.00  0.00     0.256 C 
HETATM   13  N   UNL     1      -5.888  -0.254 -32.657  1.00  0.00    -0.323 N 
HETATM   14  H   UNL     1      -5.869  -0.411 -31.658  1.00  0.00     0.169 HD
HETATM   15  O   UNL     1      -6.009   1.441 -34.249  1.00  0.00    -0.267 OA
BRANCH  13  16
HETATM   16  C   UNL     1      -5.796  -1.410 -33.465  1.00  0.00     0.035 A 
HETATM   17  C   UNL     1      -4.593  -2.054 -33.774  1.00  0.00     0.032 A 
HETATM   18  C   UNL     1      -4.587  -3.220 -34.546  1.00  0.00     0.044 A 
HETATM   19  C   UNL     1      -5.786  -3.743 -35.009  1.00  0.00     0.116 A 
HETATM   20  F   UNL     1      -5.780  -4.866 -35.739  1.00  0.00    -0.206 F 
HETATM   21  C   UNL     1      -6.990  -3.118 -34.720  1.00  0.00     0.044 A 
HETATM   22  C   UNL     1      -6.996  -1.951 -33.950  1.00  0.00     0.032 A 
ENDBRANCH  13  16
ENDBRANCH  10  12
BRANCH   9  23
HETATM   23  C   UNL     1      -8.322   2.739 -32.207  1.00  0.00    -0.005 A 
HETATM   24  C   UNL     1      -9.362   1.820 -32.471  1.00  0.00     0.064 A 
HETATM   25 CL   UNL     1      -9.342   0.237 -31.757  1.00  0.00    -0.082 Cl
HETATM   26  C   UNL     1     -10.425   2.192 -33.314  1.00  0.00     0.056 A 
HETATM   27 CL   UNL     1     -11.740   1.126 -33.681  1.00  0.00    -0.083 Cl
HETATM   28  C   UNL     1     -10.458   3.461 -33.899  1.00  0.00     0.026 A 
HETATM   29  C   UNL     1      -9.436   4.371 -33.650  1.00  0.00     0.002 A 
HETATM   30  C   UNL     1      -8.380   4.013 -32.814  1.00  0.00     0.011 A 
ENDBRANCH   9  23
BRANCH   7  31
HETATM   31  C   UNL     1      -7.840   6.147 -28.173  1.00  0.00     0.085 C 
BRANCH  31  32
HETATM   32  C   UNL     1      -8.913   6.904 -28.963  1.00  0.00     0.034 C 
BRANCH  32  33
HETATM   33  C   UNL     1      -9.762   7.857 -28.125  1.00  0.00     0.164 C 
BRANCH  33  34
HETATM   34  O   UNL     1      -9.759   7.478 -26.757  1.00  0.00    -0.401 OA
HETATM   35  H   UNL     1      -9.004   6.868 -26.638  1.00  0.00     0.209 HD
ENDBRANCH  33  34
ENDBRANCH  32  33
ENDBRANCH  31  32
ENDBRANCH   7  31
TORSDOF 7
ENDMDL
MODEL 5
REMARK VINA RESULT:      -8.0      4.000      7.126
REMARK  7 active torsions:
REMARK  status: ('A' for Active; 'I' for Inactive)
REMARK    1  A    between atoms: C_7  and  C_8 
REMARK    2  A    between atoms: C_8  and  C_9 
REMARK    3  A    between atoms: C_9  and  C_10 
REMARK    4  A    between atoms: C_10  and  O_11 
REMARK    5  A    between atoms: C_13  and  C_14 
REMARK    6  A    between atoms: C_22  and  C_23 
REMARK       I    between atoms: C_23  and  N_24 
REMARK    7  A    between atoms: N_24  and  C_25 
ROOT
HETATM    1  C   UNL     1     -10.630  -0.688 -32.750  1.00  0.00     0.070 C 
HETATM    2  C   UNL     1     -10.130   0.616 -33.325  1.00  0.00     0.037 C 
HETATM    3  N   UNL     1     -11.116   1.554 -33.612  1.00  0.00    -0.192 N 
HETATM    4  C   UNL     1     -10.847   2.833 -33.931  1.00  0.00     0.726 A 
HETATM    5  N   UNL     1      -9.548   3.224 -34.111  1.00  0.00    -0.083 N 
HETATM    6  N   UNL     1      -9.468   4.544 -34.393  1.00  0.00    -0.140 NA
HETATM    7  C   UNL     1     -10.764   4.892 -34.332  1.00  0.00     0.166 A 
HETATM    8  N   UNL     1     -11.638   3.865 -34.070  1.00  0.00    -0.046 NA
HETATM    9  C   UNL     1      -8.398   2.311 -34.012  1.00  0.00     0.204 C 
HETATM   10  C   UNL     1      -8.822   0.926 -33.520  1.00  0.00     0.062 C 
HETATM   11  H   UNL     1     -12.074   1.320 -33.364  1.00  0.00     0.184 HD
ENDROOT
BRANCH  10  12
HETATM   12  C   UNL     1      -7.735  -0.050 -33.235  1.00  0.00     0.256 C 
HETATM   13  N   UNL     1      -7.309  -0.738 -34.354  1.00  0.00    -0.323 N 
HETATM   14  H   UNL     1      -7.722  -0.484 -35.242  1.00  0.00     0.169 HD
HETATM   15  O   UNL     1      -7.301  -0.161 -32.098  1.00  0.00    -0.267 OA
BRANCH  13  16
HETATM   16  C   UNL     1      -6.415  -1.832 -34.381  1.00  0.00     0.035 A 
HETATM   17  C   UNL     1      -5.058  -1.742 -34.050  1.00  0.00     0.032 A 
HETATM   18  C   UNL     1      -4.245  -2.879 -34.059  1.00  0.00     0.044 A 
HETATM   19  C   UNL     1      -4.790  -4.109 -34.399  1.00  0.00     0.116 A 
HETATM   20  F   UNL     1      -4.014  -5.201 -34.397  1.00  0.00    -0.206 F 
HETATM   21  C   UNL     1      -6.131  -4.222 -34.737  1.00  0.00     0.044 A 
HETATM   22  C   UNL     1      -6.944  -3.084 -34.730  1.00  0.00     0.032 A 
ENDBRANCH  13  16
ENDBRANCH  10  12
BRANCH   9  23
HETATM   23  C   UNL     1      -7.238   2.982 -33.275  1.00  0.00    -0.005 A 
HETATM   24  C   UNL     1      -7.259   3.312 -31.902  1.00  0.00     0.064 A 
HETATM   25 CL   UNL     1      -8.658   2.965 -30.933  1.00  0.00    -0.082 Cl
HETATM   26  C   UNL     1      -6.136   3.922 -31.313  1.00  0.00     0.056 A 
HETATM   27 CL   UNL     1      -6.080   4.350 -29.636  1.00  0.00    -0.083 Cl
HETATM   28  C   UNL     1      -5.002   4.210 -32.077  1.00  0.00     0.026 A 
HETATM   29  C   UNL     1      -4.974   3.896 -33.431  1.00  0.00     0.002 A 
HETATM   30  C   UNL     1      -6.080   3.289 -34.023  1.00  0.00     0.011 A 
ENDBRANCH   9  23
BRANCH   7  31
HETATM   31  C   UNL     1     -11.210   6.305 -34.419  1.00  0.00     0.085 C 
BRANCH  31  32
HETATM   32  C   UNL     1     -12.303   6.514 -35.472  1.00  0.00     0.034 C 
BRANCH  32  33
HETATM   33  C   UNL     1     -13.699   6.746 -34.899  1.00  0.00     0.164 C 
BRANCH  33  34
HETATM   34  O   UNL     1     -14.189   5.579 -34.255  1.00  0.00    -0.401 OA
HETATM   35  H   UNL     1     -13.751   4.818 -34.687  1.00  0.00     0.209 HD
ENDBRANCH  33  34
ENDBRANCH  32  33
ENDBRANCH  31  32
ENDBRANCH   7  31
TORSDOF 7
ENDMDL
MODEL 6
REMARK VINA RESULT:      -7.9      5.501      8.333
REMARK  7 active torsions:
REMARK  status: ('A' for Active; 'I' for Inactive)
REMARK    1  A    between atoms: C_7  and  C_8 
REMARK    2  A    between atoms: C_8  and  C_9 
REMARK    3  A    between atoms: C_9  and  C_10 
REMARK    4  A    between atoms: C_10  and  O_11 
REMARK    5  A    between atoms: C_13  and  C_14 
REMARK    6  A    between atoms: C_22  and  C_23 
REMARK       I    between atoms: C_23  and  N_24 
REMARK    7  A    between atoms: N_24  and  C_25 
ROOT
HETATM    1  C   UNL     1      -7.357   4.952 -28.608  1.00  0.00     0.070 C 
HETATM    2  C   UNL     1      -6.417   4.112 -29.440  1.00  0.00     0.037 C 
HETATM    3  N   UNL     1      -6.743   2.763 -29.523  1.00  0.00    -0.192 N 
HETATM    4  C   UNL     1      -6.147   1.912 -30.378  1.00  0.00     0.726 A 
HETATM    5  N   UNL     1      -5.082   2.338 -31.122  1.00  0.00    -0.083 N 
HETATM    6  N   UNL     1      -4.634   1.363 -31.943  1.00  0.00    -0.140 NA
HETATM    7  C   UNL     1      -5.506   0.380 -31.662  1.00  0.00     0.166 A 
HETATM    8  N   UNL     1      -6.435   0.676 -30.694  1.00  0.00    -0.046 NA
HETATM    9  C   UNL     1      -4.505   3.689 -31.024  1.00  0.00     0.204 C 
HETATM   10  C   UNL     1      -5.346   4.594 -30.122  1.00  0.00     0.062 C 
HETATM   11  H   UNL     1      -7.604   2.459 -29.076  1.00  0.00     0.184 HD
ENDROOT
BRANCH  10  12
HETATM   12  C   UNL     1      -4.955   6.029 -30.054  1.00  0.00     0.256 C 
HETATM   13  N   UNL     1      -3.787   6.246 -29.351  1.00  0.00    -0.323 N 
HETATM   14  H   UNL     1      -3.293   5.433 -29.006  1.00  0.00     0.169 HD
HETATM   15  O   UNL     1      -5.643   6.873 -30.609  1.00  0.00    -0.267 OA
BRANCH  13  16
HETATM   16  C   UNL     1      -3.249   7.498 -28.978  1.00  0.00     0.035 A 
HETATM   17  C   UNL     1      -3.352   8.041 -27.692  1.00  0.00     0.032 A 
HETATM   18  C   UNL     1      -2.755   9.269 -27.387  1.00  0.00     0.044 A 
HETATM   19  C   UNL     1      -2.054   9.954 -28.369  1.00  0.00     0.116 A 
HETATM   20  F   UNL     1      -1.473  11.124 -28.073  1.00  0.00    -0.206 F 
HETATM   21  C   UNL     1      -1.943   9.437 -29.652  1.00  0.00     0.044 A 
HETATM   22  C   UNL     1      -2.542   8.211 -29.958  1.00  0.00     0.032 A 
ENDBRANCH  13  16
ENDBRANCH  10  12
BRANCH   9  23
HETATM   23  C   UNL     1      -4.155   4.228 -32.412  1.00  0.00    -0.005 A 
HETATM   24  C   UNL     1      -2.870   4.682 -32.782  1.00  0.00     0.064 A 
HETATM   25 CL   UNL     1      -1.563   4.659 -31.639  1.00  0.00    -0.082 Cl
HETATM   26  C   UNL     1      -2.646   5.153 -34.089  1.00  0.00     0.056 A 
HETATM   27 CL   UNL     1      -1.099   5.720 -34.623  1.00  0.00    -0.083 Cl
HETATM   28  C   UNL     1      -3.685   5.180 -35.022  1.00  0.00     0.026 A 
HETATM   29  C   UNL     1      -4.955   4.741 -34.667  1.00  0.00     0.002 A 
HETATM   30  C   UNL     1      -5.188   4.270 -33.375  1.00  0.00     0.011 A 
ENDBRANCH   9  23
BRANCH   7  31
HETATM   31  C   UNL     1      -5.543  -0.891 -32.429  1.00  0.00     0.085 C 
BRANCH  31  32
HETATM   32  C   UNL     1      -4.170  -1.284 -32.983  1.00  0.00     0.034 C 
BRANCH  32  33
HETATM   33  C   UNL     1      -3.223  -1.895 -31.954  1.00  0.00     0.164 C 
BRANCH  33  34
HETATM   34  O   UNL     1      -2.307  -0.927 -31.462  1.00  0.00    -0.401 OA
HETATM   35  H   UNL     1      -2.741  -0.057 -31.562  1.00  0.00     0.209 HD
ENDBRANCH  33  34
ENDBRANCH  32  33
ENDBRANCH  31  32
ENDBRANCH   7  31
TORSDOF 7
ENDMDL
MODEL 7
REMARK VINA RESULT:      -7.9      4.435      6.454
REMARK  7 active torsions:
REMARK  status: ('A' for Active; 'I' for Inactive)
REMARK    1  A    between atoms: C_7  and  C_8 
REMARK    2  A    between atoms: C_8  and  C_9 
REMARK    3  A    between atoms: C_9  and  C_10 
REMARK    4  A    between atoms: C_10  and  O_11 
REMARK    5  A    between atoms: C_13  and  C_14 
REMARK    6  A    between atoms: C_22  and  C_23 
REMARK       I    between atoms: C_23  and  N_24 
REMARK    7  A    between atoms: N_24  and  C_25 
ROOT
HETATM    1  C   UNL     1      -5.889   0.713 -29.495  1.00  0.00     0.070 C 
HETATM    2  C   UNL     1      -6.161   2.007 -30.224  1.00  0.00     0.037 C 
HETATM    3  N   UNL     1      -6.707   3.022 -29.447  1.00  0.00    -0.192 N 
HETATM    4  C   UNL     1      -6.821   4.294 -29.869  1.00  0.00     0.726 A 
HETATM    5  N   UNL     1      -6.509   4.605 -31.164  1.00  0.00    -0.083 N 
HETATM    6  N   UNL     1      -6.652   5.929 -31.399  1.00  0.00    -0.140 NA
HETATM    7  C   UNL     1      -7.023   6.360 -30.182  1.00  0.00     0.166 A 
HETATM    8  N   UNL     1      -7.155   5.383 -29.225  1.00  0.00    -0.046 NA
HETATM    9  C   UNL     1      -6.079   3.613 -32.162  1.00  0.00     0.204 C 
HETATM   10  C   UNL     1      -5.865   2.237 -31.530  1.00  0.00     0.062 C 
HETATM   11  H   UNL     1      -6.826   2.841 -28.453  1.00  0.00     0.184 HD
ENDROOT
BRANCH  10  12
HETATM   12  C   UNL     1      -5.287   1.177 -32.401  1.00  0.00     0.256 C 
HETATM   13  N   UNL     1      -6.214   0.241 -32.812  1.00  0.00    -0.323 N 
HETATM   14  H   UNL     1      -7.177   0.388 -32.538  1.00  0.00     0.169 HD
HETATM   15  O   UNL     1      -4.101   1.211 -32.694  1.00  0.00    -0.267 OA
BRANCH  13  16
HETATM   16  C   UNL     1      -5.947  -0.962 -33.505  1.00  0.00     0.035 A 
HETATM   17  C   UNL     1      -4.671  -1.521 -33.637  1.00  0.00     0.032 A 
HETATM   18  C   UNL     1      -4.492  -2.739 -34.301  1.00  0.00     0.044 A 
HETATM   19  C   UNL     1      -5.591  -3.398 -34.833  1.00  0.00     0.116 A 
HETATM   20  F   UNL     1      -5.420  -4.569 -35.460  1.00  0.00    -0.206 F 
HETATM   21  C   UNL     1      -6.865  -2.859 -34.720  1.00  0.00     0.044 A 
HETATM   22  C   UNL     1      -7.043  -1.641 -34.057  1.00  0.00     0.032 A 
ENDBRANCH  13  16
ENDBRANCH  10  12
BRANCH   9  23
HETATM   23  C   UNL     1      -4.939   4.167 -33.017  1.00  0.00    -0.005 A 
HETATM   24  C   UNL     1      -3.640   4.428 -32.529  1.00  0.00     0.064 A 
HETATM   25 CL   UNL     1      -3.246   4.128 -30.864  1.00  0.00    -0.082 Cl
HETATM   26  C   UNL     1      -2.655   4.932 -33.399  1.00  0.00     0.056 A 
HETATM   27 CL   UNL     1      -1.037   5.271 -32.880  1.00  0.00    -0.083 Cl
HETATM   28  C   UNL     1      -2.952   5.181 -34.741  1.00  0.00     0.026 A 
HETATM   29  C   UNL     1      -4.230   4.933 -35.230  1.00  0.00     0.002 A 
HETATM   30  C   UNL     1      -5.212   4.432 -34.378  1.00  0.00     0.011 A 
ENDBRANCH   9  23
BRANCH   7  31
HETATM   31  C   UNL     1      -7.161   7.803 -29.860  1.00  0.00     0.085 C 
BRANCH  31  32
HETATM   32  C   UNL     1      -7.137   8.076 -28.353  1.00  0.00     0.034 C 
BRANCH  32  33
HETATM   33  C   UNL     1      -8.512   8.299 -27.728  1.00  0.00     0.164 C 
BRANCH  33  34
HETATM   34  O   UNL     1      -9.142   7.065 -27.419  1.00  0.00    -0.401 OA
HETATM   35  H   UNL     1      -9.760   6.876 -28.153  1.00  0.00     0.209 HD
ENDBRANCH  33  34
ENDBRANCH  32  33
ENDBRANCH  31  32
ENDBRANCH   7  31
TORSDOF 7
ENDMDL
MODEL 8
REMARK VINA RESULT:      -7.7      2.271      3.985
REMARK  7 active torsions:
REMARK  status: ('A' for Active; 'I' for Inactive)
REMARK    1  A    between atoms: C_7  and  C_8 
REMARK    2  A    between atoms: C_8  and  C_9 
REMARK    3  A    between atoms: C_9  and  C_10 
REMARK    4  A    between atoms: C_10  and  O_11 
REMARK    5  A    between atoms: C_13  and  C_14 
REMARK    6  A    between atoms: C_22  and  C_23 
REMARK       I    between atoms: C_23  and  N_24 
REMARK    7  A    between atoms: N_24  and  C_25 
ROOT
HETATM    1  C   UNL     1      -6.670  -1.076 -33.506  1.00  0.00     0.070 C 
HETATM    2  C   UNL     1      -6.291   0.217 -32.825  1.00  0.00     0.037 C 
HETATM    3  N   UNL     1      -4.928   0.485 -32.778  1.00  0.00    -0.192 N 
HETATM    4  C   UNL     1      -4.421   1.674 -32.402  1.00  0.00     0.726 A 
HETATM    5  N   UNL     1      -5.259   2.640 -31.917  1.00  0.00    -0.083 N 
HETATM    6  N   UNL     1      -4.583   3.772 -31.620  1.00  0.00    -0.140 NA
HETATM    7  C   UNL     1      -3.339   3.423 -31.987  1.00  0.00     0.166 A 
HETATM    8  N   UNL     1      -3.200   2.138 -32.453  1.00  0.00    -0.046 NA
HETATM    9  C   UNL     1      -6.709   2.453 -31.742  1.00  0.00     0.204 C 
HETATM   10  C   UNL     1      -7.176   1.118 -32.323  1.00  0.00     0.062 C 
HETATM   11  H   UNL     1      -4.304  -0.167 -33.248  1.00  0.00     0.184 HD
ENDROOT
BRANCH  10  12
HETATM   12  C   UNL     1      -8.644   0.868 -32.344  1.00  0.00     0.256 C 
HETATM   13  N   UNL     1      -9.225   1.117 -33.570  1.00  0.00    -0.323 N 
HETATM   14  H   UNL     1      -8.612   1.385 -34.330  1.00  0.00     0.169 HD
HETATM   15  O   UNL     1      -9.205   0.463 -31.336  1.00  0.00    -0.267 OA
BRANCH  13  16
HETATM   16  C   UNL     1     -10.608   1.130 -33.861  1.00  0.00     0.035 A 
HETATM   17  C   UNL     1     -11.231   2.098 -34.655  1.00  0.00     0.032 A 
HETATM   18  C   UNL     1     -12.599   2.019 -34.934  1.00  0.00     0.044 A 
HETATM   19  C   UNL     1     -13.345   0.970 -34.416  1.00  0.00     0.116 A 
HETATM   20  F   UNL     1     -14.654   0.889 -34.692  1.00  0.00    -0.206 F 
HETATM   21  C   UNL     1     -12.750   0.002 -33.621  1.00  0.00     0.044 A 
HETATM   22  C   UNL     1     -11.382   0.082 -33.341  1.00  0.00     0.032 A 
ENDBRANCH  13  16
ENDBRANCH  10  12
BRANCH   9  23
HETATM   23  C   UNL     1      -7.471   3.704 -32.179  1.00  0.00    -0.005 A 
HETATM   24  C   UNL     1      -8.136   4.576 -31.290  1.00  0.00     0.064 A 
HETATM   25 CL   UNL     1      -8.131   4.265 -29.581  1.00  0.00    -0.082 Cl
HETATM   26  C   UNL     1      -8.805   5.708 -31.791  1.00  0.00     0.056 A 
HETATM   27 CL   UNL     1      -9.638   6.828 -30.766  1.00  0.00    -0.083 Cl
HETATM   28  C   UNL     1      -8.822   5.974 -33.162  1.00  0.00     0.026 A 
HETATM   29  C   UNL     1      -8.175   5.119 -34.047  1.00  0.00     0.002 A 
HETATM   30  C   UNL     1      -7.507   3.996 -33.561  1.00  0.00     0.011 A 
ENDBRANCH   9  23
BRANCH   7  31
HETATM   31  C   UNL     1      -2.216   4.394 -32.005  1.00  0.00     0.085 C 
BRANCH  31  32
HETATM   32  C   UNL     1      -1.890   4.893 -33.416  1.00  0.00     0.034 C 
BRANCH  32  33
HETATM   33  C   UNL     1      -2.585   6.196 -33.804  1.00  0.00     0.164 C 
BRANCH  33  34
HETATM   34  O   UNL     1      -3.279   6.060 -35.035  1.00  0.00    -0.401 OA
HETATM   35  H   UNL     1      -3.639   6.943 -35.251  1.00  0.00     0.209 HD
ENDBRANCH  33  34
ENDBRANCH  32  33
ENDBRANCH  31  32
ENDBRANCH   7  31
TORSDOF 7
ENDMDL
MODEL 9
REMARK VINA RESULT:      -7.6      3.790      8.551
REMARK  7 active torsions:
REMARK  status: ('A' for Active; 'I' for Inactive)
REMARK    1  A    between atoms: C_7  and  C_8 
REMARK    2  A    between atoms: C_8  and  C_9 
REMARK    3  A    between atoms: C_9  and  C_10 
REMARK    4  A    between atoms: C_10  and  O_11 
REMARK    5  A    between atoms: C_13  and  C_14 
REMARK    6  A    between atoms: C_22  and  C_23 
REMARK       I    between atoms: C_23  and  N_24 
REMARK    7  A    between atoms: N_24  and  C_25 
ROOT
HETATM    1  C   UNL     1      -6.187   0.652 -30.878  1.00  0.00     0.070 C 
HETATM    2  C   UNL     1      -7.286   1.064 -31.827  1.00  0.00     0.037 C 
HETATM    3  N   UNL     1      -8.298   0.128 -32.004  1.00  0.00    -0.192 N 
HETATM    4  C   UNL     1      -9.451   0.399 -32.643  1.00  0.00     0.726 A 
HETATM    5  N   UNL     1      -9.608   1.607 -33.266  1.00  0.00    -0.083 N 
HETATM    6  N   UNL     1     -10.834   1.715 -33.825  1.00  0.00    -0.140 NA
HETATM    7  C   UNL     1     -11.377   0.540 -33.465  1.00  0.00     0.166 A 
HETATM    8  N   UNL     1     -10.551  -0.299 -32.757  1.00  0.00    -0.046 NA
HETATM    9  C   UNL     1      -8.563   2.642 -33.318  1.00  0.00     0.204 C 
HETATM   10  C   UNL     1      -7.360   2.268 -32.451  1.00  0.00     0.062 C 
HETATM   11  H   UNL     1      -8.255  -0.722 -31.448  1.00  0.00     0.184 HD
ENDROOT
BRANCH  10  12
HETATM   12  C   UNL     1      -6.294   3.297 -32.298  1.00  0.00     0.256 C 
HETATM   13  N   UNL     1      -5.464   3.394 -33.396  1.00  0.00    -0.323 N 
HETATM   14  H   UNL     1      -5.684   2.816 -34.197  1.00  0.00     0.169 HD
HETATM   15  O   UNL     1      -6.237   3.964 -31.275  1.00  0.00    -0.267 OA
BRANCH  13  16
HETATM   16  C   UNL     1      -4.276   4.153 -33.490  1.00  0.00     0.035 A 
HETATM   17  C   UNL     1      -4.128   5.273 -34.316  1.00  0.00     0.032 A 
HETATM   18  C   UNL     1      -2.933   6.000 -34.323  1.00  0.00     0.044 A 
HETATM   19  C   UNL     1      -1.885   5.606 -33.503  1.00  0.00     0.116 A 
HETATM   20  F   UNL     1      -0.745   6.309 -33.501  1.00  0.00    -0.206 F 
HETATM   21  C   UNL     1      -2.008   4.496 -32.680  1.00  0.00     0.044 A 
HETATM   22  C   UNL     1      -3.202   3.768 -32.674  1.00  0.00     0.032 A 
ENDBRANCH  13  16
ENDBRANCH  10  12
BRANCH   9  23
HETATM   23  C   UNL     1      -9.168   4.030 -33.101  1.00  0.00    -0.005 A 
HETATM   24  C   UNL     1      -9.738   4.463 -31.884  1.00  0.00     0.064 A 
HETATM   25 CL   UNL     1      -9.792   3.403 -30.509  1.00  0.00    -0.082 Cl
HETATM   26  C   UNL     1     -10.263   5.764 -31.783  1.00  0.00     0.056 A 
HETATM   27 CL   UNL     1     -10.972   6.373 -30.324  1.00  0.00    -0.083 Cl
HETATM   28  C   UNL     1     -10.230   6.631 -32.878  1.00  0.00     0.026 A 
HETATM   29  C   UNL     1      -9.677   6.213 -34.083  1.00  0.00     0.002 A 
HETATM   30  C   UNL     1      -9.152   4.926 -34.193  1.00  0.00     0.011 A 
ENDBRANCH   9  23
BRANCH   7  31
HETATM   31  C   UNL     1     -12.806   0.219 -33.709  1.00  0.00     0.085 C 
BRANCH  31  32
HETATM   32  C   UNL     1     -13.657   1.469 -33.954  1.00  0.00     0.034 C 
BRANCH  32  33
HETATM   33  C   UNL     1     -14.924   1.549 -33.107  1.00  0.00     0.164 C 
BRANCH  33  34
HETATM   34  O   UNL     1     -14.634   1.999 -31.792  1.00  0.00    -0.401 OA
HETATM   35  H   UNL     1     -14.742   1.226 -31.203  1.00  0.00     0.209 HD
ENDBRANCH  33  34
ENDBRANCH  32  33
ENDBRANCH  31  32
ENDBRANCH   7  31
TORSDOF 7
ENDMDL
MODEL 10
REMARK VINA RESULT:      -7.5     17.383     19.785
REMARK  7 active torsions:
REMARK  status: ('A' for Active; 'I' for Inactive)
REMARK    1  A    between atoms: C_7  and  C_8 
REMARK    2  A    between atoms: C_8  and  C_9 
REMARK    3  A    between atoms: C_9  and  C_10 
REMARK    4  A    between atoms: C_10  and  O_11 
REMARK    5  A    between atoms: C_13  and  C_14 
REMARK    6  A    between atoms: C_22  and  C_23 
REMARK       I    between atoms: C_23  and  N_24 
REMARK    7  A    between atoms: N_24  and  C_25 
ROOT
HETATM    1  C   UNL     1      -1.795 -14.297 -41.210  1.00  0.00     0.070 C 
HETATM    2  C   UNL     1      -3.001 -13.787 -40.457  1.00  0.00     0.037 C 
HETATM    3  N   UNL     1      -4.152 -13.629 -41.220  1.00  0.00    -0.192 N 
HETATM    4  C   UNL     1      -5.363 -13.387 -40.686  1.00  0.00     0.726 A 
HETATM    5  N   UNL     1      -5.474 -13.157 -39.342  1.00  0.00    -0.083 N 
HETATM    6  N   UNL     1      -6.762 -12.965 -38.981  1.00  0.00    -0.140 NA
HETATM    7  C   UNL     1      -7.380 -13.130 -40.163  1.00  0.00     0.166 A 
HETATM    8  N   UNL     1      -6.552 -13.371 -41.232  1.00  0.00    -0.046 NA
HETATM    9  C   UNL     1      -4.326 -13.120 -38.421  1.00  0.00     0.204 C 
HETATM   10  C   UNL     1      -3.032 -13.536 -39.122  1.00  0.00     0.062 C 
HETATM   11  H   UNL     1      -4.114 -13.917 -42.194  1.00  0.00     0.184 HD
ENDROOT
BRANCH  10  12
HETATM   12  C   UNL     1      -1.820 -13.684 -38.269  1.00  0.00     0.256 C 
HETATM   13  N   UNL     1      -1.641 -14.965 -37.790  1.00  0.00    -0.323 N 
HETATM   14  H   UNL     1      -2.296 -15.673 -38.097  1.00  0.00     0.169 HD
HETATM   15  O   UNL     1      -1.093 -12.720 -38.075  1.00  0.00    -0.267 OA
BRANCH  13  16
HETATM   16  C   UNL     1      -0.686 -15.382 -36.835  1.00  0.00     0.035 A 
HETATM   17  C   UNL     1       0.560 -15.928 -37.162  1.00  0.00     0.032 A 
HETATM   18  C   UNL     1       1.470 -16.277 -36.159  1.00  0.00     0.044 A 
HETATM   19  C   UNL     1       1.133 -16.081 -34.827  1.00  0.00     0.116 A 
HETATM   20  F   UNL     1       2.009 -16.405 -33.868  1.00  0.00    -0.206 F 
HETATM   21  C   UNL     1      -0.099 -15.547 -34.479  1.00  0.00     0.044 A 
HETATM   22  C   UNL     1      -1.010 -15.199 -35.482  1.00  0.00     0.032 A 
ENDBRANCH  13  16
ENDBRANCH  10  12
BRANCH   9  23
HETATM   23  C   UNL     1      -4.662 -13.831 -37.110  1.00  0.00    -0.005 A 
HETATM   24  C   UNL     1      -5.024 -15.193 -37.020  1.00  0.00     0.064 A 
HETATM   25 CL   UNL     1      -5.115 -16.178 -38.448  1.00  0.00    -0.082 Cl
HETATM   26  C   UNL     1      -5.308 -15.758 -35.763  1.00  0.00     0.056 A 
HETATM   27 CL   UNL     1      -5.752 -17.421 -35.568  1.00  0.00    -0.083 Cl
HETATM   28  C   UNL     1      -5.242 -14.982 -34.604  1.00  0.00     0.026 A 
HETATM   29  C   UNL     1      -4.892 -13.639 -34.682  1.00  0.00     0.002 A 
HETATM   30  C   UNL     1      -4.606 -13.069 -35.922  1.00  0.00     0.011 A 
ENDBRANCH   9  23
BRANCH   7  31
HETATM   31  C   UNL     1      -8.859 -13.171 -40.285  1.00  0.00     0.085 C 
BRANCH  31  32
HETATM   32  C   UNL     1      -9.503 -11.792 -40.114  1.00  0.00     0.034 C 
BRANCH  32  33
HETATM   33  C   UNL     1     -10.979 -11.730 -40.501  1.00  0.00     0.164 C 
BRANCH  33  34
HETATM   34  O   UNL     1     -11.287 -10.506 -41.151  1.00  0.00    -0.401 OA
HETATM   35  H   UNL     1     -11.288  -9.816 -40.458  1.00  0.00     0.209 HD
ENDBRANCH  33  34
ENDBRANCH  32  33
ENDBRANCH  31  32
ENDBRANCH   7  31
TORSDOF 7
ENDMDL
