MODEL 1
REMARK VINA RESULT:      -9.3      0.000      0.000
REMARK  7 active torsions:
REMARK  status: ('A' for Active; 'I' for Inactive)
REMARK    1  A    between atoms: C_2  and  C_3 
REMARK    2  A    between atoms: C_3  and  C_4 
REMARK    3  A    between atoms: C_7  and  C_8 
REMARK    4  A    between atoms: C_10  and  C_11 
REMARK    5  A    between atoms: C_14  and  N_15 
REMARK    6  A    between atoms: N_15  and  C_16 
REMARK    7  A    between atoms: C_17  and  C_18 
ROOT
HETATM    1  C   UNL     1      -5.469   3.786 -32.804  1.00  0.00     0.082 C 
HETATM    2  C   UNL     1      -6.729   4.364 -33.428  1.00  0.00     0.024 C 
HETATM    3  N   UNL     1      -7.774   4.843 -33.946  1.00  0.00    -0.096 N 
HETATM    4  C   UNL     1      -5.416   2.544 -32.286  1.00  0.00     0.113 C 
ENDROOT
BRANCH   1   5
HETATM    5  C   UNL     1      -4.287   4.582 -32.852  1.00  0.00     0.119 A 
HETATM    6  N   UNL     1      -3.489   4.860 -31.839  1.00  0.00    -0.239 NA
HETATM    7  C   UNL     1      -2.505   5.772 -32.205  1.00  0.00     0.075 A 
HETATM    8  C   UNL     1      -2.492   6.077 -33.551  1.00  0.00     0.084 A 
HETATM    9  S   UNL     1      -3.782   5.287 -34.353  1.00  0.00    -0.078 SA
BRANCH   7  10
HETATM   10  C   UNL     1      -1.596   6.342 -31.210  1.00  0.00    -0.007 A 
HETATM   11  C   UNL     1      -1.994   7.471 -30.479  1.00  0.00     0.014 A 
HETATM   12  C   UNL     1      -1.138   8.064 -29.544  1.00  0.00     0.008 A 
HETATM   13  C   UNL     1       0.141   7.542 -29.321  1.00  0.00    -0.058 A 
HETATM   14  C   UNL     1       0.545   6.417 -30.049  1.00  0.00     0.008 A 
HETATM   15  C   UNL     1      -0.313   5.825 -30.983  1.00  0.00     0.014 A 
BRANCH  13  16
HETATM   16  C   UNL     1       1.071   8.180 -28.317  1.00  0.00     0.042 C 
BRANCH  16  17
HETATM   17  C   UNL     1       1.301   7.325 -27.056  1.00  0.00    -0.019 C 
HETATM   18  C   UNL     1      -0.010   6.760 -26.502  1.00  0.00     0.010 C 
HETATM   19  C   UNL     1       1.999   8.161 -25.982  1.00  0.00     0.010 C 
ENDBRANCH  16  17
ENDBRANCH  13  16
ENDBRANCH   7  10
ENDBRANCH   1   5
BRANCH   4  20
HETATM   20  N   UNL     1      -6.383   1.565 -32.084  1.00  0.00    -0.364 N 
HETATM   21  H   UNL     1      -6.623   1.470 -31.096  1.00  0.00     0.165 HD
BRANCH  20  22
HETATM   22  C   UNL     1      -6.349   0.316 -32.756  1.00  0.00     0.048 A 
HETATM   23  C   UNL     1      -7.387  -0.086 -33.644  1.00  0.00     0.039 A 
HETATM   24  C   UNL     1      -7.252  -1.223 -34.455  1.00  0.00     0.057 A 
HETATM   25  C   UNL     1      -6.087  -1.947 -34.349  1.00  0.00     0.106 A 
HETATM   26  C   UNL     1      -5.091  -1.590 -33.472  1.00  0.00     0.107 A 
HETATM   27  O   UNL     1      -5.776  -3.060 -35.064  1.00  0.00    -0.323 OA
HETATM   28  O   UNL     1      -4.025  -2.433 -33.531  1.00  0.00    -0.323 OA
HETATM   29  C   UNL     1      -5.191  -0.475 -32.663  1.00  0.00     0.070 A 
HETATM   30  C   UNL     1      -4.431  -3.307 -34.606  1.00  0.00     0.352 A 
BRANCH  23  31
HETATM   31  C   UNL     1      -8.680   0.640 -33.736  1.00  0.00     0.158 C 
HETATM   32  C   UNL     1      -9.878   0.081 -33.012  1.00  0.00     0.097 C 
HETATM   33  O   UNL     1      -8.761   1.641 -34.445  1.00  0.00    -0.293 OA
ENDBRANCH  23  31
ENDBRANCH  20  22
ENDBRANCH   4  20
TORSDOF 7
ENDMDL
MODEL 2
REMARK VINA RESULT:      -9.2      3.800     10.231
REMARK  7 active torsions:
REMARK  status: ('A' for Active; 'I' for Inactive)
REMARK    1  A    between atoms: C_2  and  C_3 
REMARK    2  A    between atoms: C_3  and  C_4 
REMARK    3  A    between atoms: C_7  and  C_8 
REMARK    4  A    between atoms: C_10  and  C_11 
REMARK    5  A    between atoms: C_14  and  N_15 
REMARK    6  A    between atoms: N_15  and  C_16 
REMARK    7  A    between atoms: C_17  and  C_18 
ROOT
HETATM    1  C   UNL     1      -3.574   5.788 -33.231  1.00  0.00     0.082 C 
HETATM    2  C   UNL     1      -2.444   5.469 -34.198  1.00  0.00     0.024 C 
HETATM    3  N   UNL     1      -1.508   5.206 -35.001  1.00  0.00    -0.096 N 
HETATM    4  C   UNL     1      -3.566   6.874 -32.435  1.00  0.00     0.113 C 
ENDROOT
BRANCH   1   5
HETATM    5  C   UNL     1      -4.712   4.928 -33.243  1.00  0.00     0.119 A 
HETATM    6  N   UNL     1      -4.696   3.610 -33.264  1.00  0.00    -0.239 NA
HETATM    7  C   UNL     1      -5.978   3.090 -33.408  1.00  0.00     0.075 A 
HETATM    8  C   UNL     1      -6.979   4.040 -33.361  1.00  0.00     0.084 A 
HETATM    9  S   UNL     1      -6.307   5.608 -33.229  1.00  0.00    -0.078 SA
BRANCH   7  10
HETATM   10  C   UNL     1      -6.193   1.656 -33.605  1.00  0.00    -0.007 A 
HETATM   11  C   UNL     1      -6.746   1.200 -34.810  1.00  0.00     0.014 A 
HETATM   12  C   UNL     1      -6.999  -0.160 -35.019  1.00  0.00     0.008 A 
HETATM   13  C   UNL     1      -6.707  -1.098 -34.023  1.00  0.00    -0.058 A 
HETATM   14  C   UNL     1      -6.159  -0.650 -32.816  1.00  0.00     0.008 A 
HETATM   15  C   UNL     1      -5.906   0.711 -32.609  1.00  0.00     0.014 A 
BRANCH  13  16
HETATM   16  C   UNL     1      -6.982  -2.567 -34.242  1.00  0.00     0.042 C 
BRANCH  16  17
HETATM   17  C   UNL     1      -5.952  -3.260 -35.154  1.00  0.00    -0.019 C 
HETATM   18  C   UNL     1      -6.349  -4.706 -35.468  1.00  0.00     0.010 C 
HETATM   19  C   UNL     1      -4.573  -3.235 -34.493  1.00  0.00     0.010 C 
ENDBRANCH  16  17
ENDBRANCH  13  16
ENDBRANCH   7  10
ENDBRANCH   1   5
BRANCH   4  20
HETATM   20  N   UNL     1      -2.615   7.859 -32.193  1.00  0.00    -0.364 N 
HETATM   21  H   UNL     1      -2.044   8.043 -33.019  1.00  0.00     0.165 HD
BRANCH  20  22
HETATM   22  C   UNL     1      -1.862   7.907 -30.991  1.00  0.00     0.048 A 
HETATM   23  C   UNL     1      -2.018   8.964 -30.051  1.00  0.00     0.039 A 
HETATM   24  C   UNL     1      -1.424   8.902 -28.780  1.00  0.00     0.057 A 
HETATM   25  C   UNL     1      -0.670   7.791 -28.483  1.00  0.00     0.106 A 
HETATM   26  C   UNL     1      -0.483   6.779 -29.394  1.00  0.00     0.107 A 
HETATM   27  O   UNL     1      -0.038   7.552 -27.304  1.00  0.00    -0.323 OA
HETATM   28  O   UNL     1       0.286   5.773 -28.897  1.00  0.00    -0.323 OA
HETATM   29  C   UNL     1      -1.056   6.807 -30.650  1.00  0.00     0.070 A 
HETATM   30  C   UNL     1       0.487   6.231 -27.542  1.00  0.00     0.352 A 
BRANCH  23  31
HETATM   31  C   UNL     1      -2.775  10.203 -30.365  1.00  0.00     0.158 C 
HETATM   32  C   UNL     1      -2.334  11.501 -29.737  1.00  0.00     0.097 C 
HETATM   33  O   UNL     1      -3.774  10.136 -31.077  1.00  0.00    -0.293 OA
ENDBRANCH  23  31
ENDBRANCH  20  22
ENDBRANCH   4  20
TORSDOF 7
ENDMDL
MODEL 3
REMARK VINA RESULT:      -9.2      3.888     10.289
REMARK  7 active torsions:
REMARK  status: ('A' for Active; 'I' for Inactive)
REMARK    1  A    between atoms: C_2  and  C_3 
REMARK    2  A    between atoms: C_3  and  C_4 
REMARK    3  A    between atoms: C_7  and  C_8 
REMARK    4  A    between atoms: C_10  and  C_11 
REMARK    5  A    between atoms: C_14  and  N_15 
REMARK    6  A    between atoms: N_15  and  C_16 
REMARK    7  A    between atoms: C_17  and  C_18 
ROOT
HETATM    1  C   UNL     1      -3.810   5.571 -32.869  1.00  0.00     0.082 C 
HETATM    2  C   UNL     1      -2.663   5.446 -33.860  1.00  0.00     0.024 C 
HETATM    3  N   UNL     1      -1.712   5.343 -34.681  1.00  0.00    -0.096 N 
HETATM    4  C   UNL     1      -3.809   6.466 -31.863  1.00  0.00     0.113 C 
ENDROOT
BRANCH   1   5
HETATM    5  C   UNL     1      -4.956   4.750 -33.084  1.00  0.00     0.119 A 
HETATM    6  N   UNL     1      -4.984   3.431 -33.085  1.00  0.00    -0.239 NA
HETATM    7  C   UNL     1      -6.235   2.952 -33.461  1.00  0.00     0.075 A 
HETATM    8  C   UNL     1      -7.192   3.935 -33.612  1.00  0.00     0.084 A 
HETATM    9  S   UNL     1      -6.500   5.482 -33.375  1.00  0.00    -0.078 SA
BRANCH   7  10
HETATM   10  C   UNL     1      -6.461   1.523 -33.677  1.00  0.00    -0.007 A 
HETATM   11  C   UNL     1      -6.227   0.621 -32.629  1.00  0.00     0.014 A 
HETATM   12  C   UNL     1      -6.399  -0.756 -32.810  1.00  0.00     0.008 A 
HETATM   13  C   UNL     1      -6.807  -1.265 -34.048  1.00  0.00    -0.058 A 
HETATM   14  C   UNL     1      -7.039  -0.370 -35.099  1.00  0.00     0.008 A 
HETATM   15  C   UNL     1      -6.867   1.007 -34.916  1.00  0.00     0.014 A 
BRANCH  13  16
HETATM   16  C   UNL     1      -6.990  -2.750 -34.251  1.00  0.00     0.042 C 
BRANCH  16  17
HETATM   17  C   UNL     1      -5.942  -3.380 -35.187  1.00  0.00    -0.019 C 
HETATM   18  C   UNL     1      -6.256  -4.849 -35.490  1.00  0.00     0.010 C 
HETATM   19  C   UNL     1      -4.551  -3.268 -34.561  1.00  0.00     0.010 C 
ENDBRANCH  16  17
ENDBRANCH  13  16
ENDBRANCH   7  10
ENDBRANCH   1   5
BRANCH   4  20
HETATM   20  N   UNL     1      -2.853   7.364 -31.401  1.00  0.00    -0.364 N 
HETATM   21  H   UNL     1      -2.193   7.623 -32.135  1.00  0.00     0.165 HD
BRANCH  20  22
HETATM   22  C   UNL     1      -2.228   7.222 -30.135  1.00  0.00     0.048 A 
HETATM   23  C   UNL     1      -0.850   6.883 -30.013  1.00  0.00     0.039 A 
HETATM   24  C   UNL     1      -0.193   6.941 -28.774  1.00  0.00     0.057 A 
HETATM   25  C   UNL     1      -0.932   7.320 -27.678  1.00  0.00     0.106 A 
HETATM   26  C   UNL     1      -2.271   7.617 -27.775  1.00  0.00     0.107 A 
HETATM   27  O   UNL     1      -0.462   7.448 -26.410  1.00  0.00    -0.323 OA
HETATM   28  O   UNL     1      -2.808   7.975 -26.578  1.00  0.00    -0.323 OA
HETATM   29  C   UNL     1      -2.946   7.573 -28.979  1.00  0.00     0.070 A 
HETATM   30  C   UNL     1      -1.634   7.952 -25.737  1.00  0.00     0.352 A 
BRANCH  23  31
HETATM   31  C   UNL     1      -0.042   6.412 -31.167  1.00  0.00     0.158 C 
HETATM   32  C   UNL     1       0.833   5.197 -30.991  1.00  0.00     0.097 C 
HETATM   33  O   UNL     1      -0.057   7.052 -32.216  1.00  0.00    -0.293 OA
ENDBRANCH  23  31
ENDBRANCH  20  22
ENDBRANCH   4  20
TORSDOF 7
ENDMDL
MODEL 4
REMARK VINA RESULT:      -8.9      3.633      9.701
REMARK  7 active torsions:
REMARK  status: ('A' for Active; 'I' for Inactive)
REMARK    1  A    between atoms: C_2  and  C_3 
REMARK    2  A    between atoms: C_3  and  C_4 
REMARK    3  A    between atoms: C_7  and  C_8 
REMARK    4  A    between atoms: C_10  and  C_11 
REMARK    5  A    between atoms: C_14  and  N_15 
REMARK    6  A    between atoms: N_15  and  C_16 
REMARK    7  A    between atoms: C_17  and  C_18 
ROOT
HETATM    1  C   UNL     1      -4.917   6.143 -32.076  1.00  0.00     0.082 C 
HETATM    2  C   UNL     1      -5.106   6.795 -30.716  1.00  0.00     0.024 C 
HETATM    3  N   UNL     1      -5.263   7.335 -29.587  1.00  0.00    -0.096 N 
HETATM    4  C   UNL     1      -3.824   6.349 -32.837  1.00  0.00     0.113 C 
ENDROOT
BRANCH   1   5
HETATM    5  C   UNL     1      -5.914   5.220 -32.508  1.00  0.00     0.119 A 
HETATM    6  N   UNL     1      -5.806   3.905 -32.529  1.00  0.00    -0.239 NA
HETATM    7  C   UNL     1      -6.912   3.317 -33.134  1.00  0.00     0.075 A 
HETATM    8  C   UNL     1      -7.921   4.204 -33.448  1.00  0.00     0.084 A 
HETATM    9  S   UNL     1      -7.446   5.804 -33.070  1.00  0.00    -0.078 SA
BRANCH   7  10
HETATM   10  C   UNL     1      -6.947   1.879 -33.404  1.00  0.00    -0.007 A 
HETATM   11  C   UNL     1      -6.793   0.974 -32.345  1.00  0.00     0.014 A 
HETATM   12  C   UNL     1      -6.787  -0.407 -32.570  1.00  0.00     0.008 A 
HETATM   13  C   UNL     1      -6.930  -0.916 -33.866  1.00  0.00    -0.058 A 
HETATM   14  C   UNL     1      -7.080  -0.018 -34.929  1.00  0.00     0.008 A 
HETATM   15  C   UNL     1      -7.088   1.363 -34.701  1.00  0.00     0.014 A 
BRANCH  13  16
HETATM   16  C   UNL     1      -6.919  -2.405 -34.116  1.00  0.00     0.042 C 
BRANCH  16  17
HETATM   17  C   UNL     1      -5.751  -2.875 -35.003  1.00  0.00    -0.019 C 
HETATM   18  C   UNL     1      -5.866  -4.360 -35.361  1.00  0.00     0.010 C 
HETATM   19  C   UNL     1      -4.422  -2.617 -34.291  1.00  0.00     0.010 C 
ENDBRANCH  16  17
ENDBRANCH  13  16
ENDBRANCH   7  10
ENDBRANCH   1   5
BRANCH   4  20
HETATM   20  N   UNL     1      -2.722   7.185 -32.697  1.00  0.00    -0.364 N 
HETATM   21  H   UNL     1      -2.329   7.447 -33.602  1.00  0.00     0.165 HD
BRANCH  20  22
HETATM   22  C   UNL     1      -1.721   6.962 -31.716  1.00  0.00     0.048 A 
HETATM   23  C   UNL     1      -1.559   7.832 -30.600  1.00  0.00     0.039 A 
HETATM   24  C   UNL     1      -0.708   7.498 -29.535  1.00  0.00     0.057 A 
HETATM   25  C   UNL     1      -0.022   6.308 -29.616  1.00  0.00     0.106 A 
HETATM   26  C   UNL     1      -0.143   5.476 -30.703  1.00  0.00     0.107 A 
HETATM   27  O   UNL     1       0.828   5.817 -28.677  1.00  0.00    -0.323 OA
HETATM   28  O   UNL     1       0.613   4.351 -30.579  1.00  0.00    -0.323 OA
HETATM   29  C   UNL     1      -0.974   5.773 -31.765  1.00  0.00     0.070 A 
HETATM   30  C   UNL     1       1.153   4.535 -29.252  1.00  0.00     0.352 A 
BRANCH  23  31
HETATM   31  C   UNL     1      -2.238   9.149 -30.513  1.00  0.00     0.158 C 
HETATM   32  C   UNL     1      -2.565   9.708 -29.151  1.00  0.00     0.097 C 
HETATM   33  O   UNL     1      -2.572   9.726 -31.546  1.00  0.00    -0.293 OA
ENDBRANCH  23  31
ENDBRANCH  20  22
ENDBRANCH   4  20
TORSDOF 7
ENDMDL
MODEL 5
REMARK VINA RESULT:      -8.9      2.434      4.299
REMARK  7 active torsions:
REMARK  status: ('A' for Active; 'I' for Inactive)
REMARK    1  A    between atoms: C_2  and  C_3 
REMARK    2  A    between atoms: C_3  and  C_4 
REMARK    3  A    between atoms: C_7  and  C_8 
REMARK    4  A    between atoms: C_10  and  C_11 
REMARK    5  A    between atoms: C_14  and  N_15 
REMARK    6  A    between atoms: N_15  and  C_16 
REMARK    7  A    between atoms: C_17  and  C_18 
ROOT
HETATM    1  C   UNL     1      -2.433   4.739 -32.252  1.00  0.00     0.082 C 
HETATM    2  C   UNL     1      -1.940   4.963 -33.673  1.00  0.00     0.024 C 
HETATM    3  N   UNL     1      -1.531   5.148 -34.851  1.00  0.00    -0.096 N 
HETATM    4  C   UNL     1      -2.924   3.558 -31.829  1.00  0.00     0.113 C 
ENDROOT
BRANCH   1   5
HETATM    5  C   UNL     1      -2.284   5.815 -31.328  1.00  0.00     0.119 A 
HETATM    6  N   UNL     1      -1.259   6.018 -30.523  1.00  0.00    -0.239 NA
HETATM    7  C   UNL     1      -1.498   7.082 -29.659  1.00  0.00     0.075 A 
HETATM    8  C   UNL     1      -2.670   7.765 -29.916  1.00  0.00     0.084 A 
HETATM    9  S   UNL     1      -3.529   7.014 -31.192  1.00  0.00    -0.078 SA
BRANCH   7  10
HETATM   10  C   UNL     1      -0.565   7.400 -28.578  1.00  0.00    -0.007 A 
HETATM   11  C   UNL     1       0.619   8.092 -28.870  1.00  0.00     0.014 A 
HETATM   12  C   UNL     1       1.551   8.383 -27.868  1.00  0.00     0.008 A 
HETATM   13  C   UNL     1       1.323   7.982 -26.547  1.00  0.00    -0.058 A 
HETATM   14  C   UNL     1       0.145   7.287 -26.249  1.00  0.00     0.008 A 
HETATM   15  C   UNL     1      -0.787   6.999 -27.252  1.00  0.00     0.014 A 
BRANCH  13  16
HETATM   16  C   UNL     1       2.327   8.289 -25.462  1.00  0.00     0.042 C 
BRANCH  16  17
HETATM   17  C   UNL     1       1.808   9.274 -24.398  1.00  0.00    -0.019 C 
HETATM   18  C   UNL     1       1.805  10.718 -24.909  1.00  0.00     0.010 C 
HETATM   19  C   UNL     1       2.664   9.174 -23.135  1.00  0.00     0.010 C 
ENDBRANCH  16  17
ENDBRANCH  13  16
ENDBRANCH   7  10
ENDBRANCH   1   5
BRANCH   4  20
HETATM   20  N   UNL     1      -3.202   2.364 -32.484  1.00  0.00    -0.364 N 
HETATM   21  H   UNL     1      -2.870   2.376 -33.449  1.00  0.00     0.165 HD
BRANCH  20  22
HETATM   22  C   UNL     1      -4.447   1.696 -32.348  1.00  0.00     0.048 A 
HETATM   23  C   UNL     1      -4.539   0.388 -31.794  1.00  0.00     0.039 A 
HETATM   24  C   UNL     1      -5.782  -0.183 -31.477  1.00  0.00     0.057 A 
HETATM   25  C   UNL     1      -6.909   0.560 -31.738  1.00  0.00     0.106 A 
HETATM   26  C   UNL     1      -6.837   1.811 -32.303  1.00  0.00     0.107 A 
HETATM   27  O   UNL     1      -8.188   0.179 -31.482  1.00  0.00    -0.323 OA
HETATM   28  O   UNL     1      -8.064   2.375 -32.468  1.00  0.00    -0.323 OA
HETATM   29  C   UNL     1      -5.631   2.403 -32.623  1.00  0.00     0.070 A 
HETATM   30  C   UNL     1      -8.906   1.370 -31.862  1.00  0.00     0.352 A 
BRANCH  23  31
HETATM   31  C   UNL     1      -3.344  -0.462 -31.559  1.00  0.00     0.158 C 
HETATM   32  C   UNL     1      -3.382  -1.905 -31.997  1.00  0.00     0.097 C 
HETATM   33  O   UNL     1      -2.377   0.007 -30.963  1.00  0.00    -0.293 OA
ENDBRANCH  23  31
ENDBRANCH  20  22
ENDBRANCH   4  20
TORSDOF 7
ENDMDL
MODEL 6
REMARK VINA RESULT:      -8.3      4.252     10.387
REMARK  7 active torsions:
REMARK  status: ('A' for Active; 'I' for Inactive)
REMARK    1  A    between atoms: C_2  and  C_3 
REMARK    2  A    between atoms: C_3  and  C_4 
REMARK    3  A    between atoms: C_7  and  C_8 
REMARK    4  A    between atoms: C_10  and  C_11 
REMARK    5  A    between atoms: C_14  and  N_15 
REMARK    6  A    between atoms: N_15  and  C_16 
REMARK    7  A    between atoms: C_17  and  C_18 
ROOT
HETATM    1  C   UNL     1      -3.460   5.169 -31.239  1.00  0.00     0.082 C 
HETATM    2  C   UNL     1      -2.219   5.198 -32.118  1.00  0.00     0.024 C 
HETATM    3  N   UNL     1      -1.191   5.223 -32.847  1.00  0.00    -0.096 N 
HETATM    4  C   UNL     1      -3.849   6.221 -30.493  1.00  0.00     0.113 C 
ENDROOT
BRANCH   1   5
HETATM    5  C   UNL     1      -4.270   3.996 -31.284  1.00  0.00     0.119 A 
HETATM    6  N   UNL     1      -4.015   2.896 -31.964  1.00  0.00    -0.239 NA
HETATM    7  C   UNL     1      -5.078   2.001 -31.895  1.00  0.00     0.075 A 
HETATM    8  C   UNL     1      -6.087   2.390 -31.038  1.00  0.00     0.084 A 
HETATM    9  S   UNL     1      -5.750   3.934 -30.382  1.00  0.00    -0.078 SA
BRANCH   7  10
HETATM   10  C   UNL     1      -5.084   0.774 -32.692  1.00  0.00    -0.007 A 
HETATM   11  C   UNL     1      -3.946  -0.046 -32.706  1.00  0.00     0.014 A 
HETATM   12  C   UNL     1      -3.902  -1.208 -33.484  1.00  0.00     0.008 A 
HETATM   13  C   UNL     1      -4.998  -1.576 -34.272  1.00  0.00    -0.058 A 
HETATM   14  C   UNL     1      -6.136  -0.762 -34.266  1.00  0.00     0.008 A 
HETATM   15  C   UNL     1      -6.177   0.400 -33.487  1.00  0.00     0.014 A 
BRANCH  13  16
HETATM   16  C   UNL     1      -4.955  -2.827 -35.117  1.00  0.00     0.042 C 
BRANCH  16  17
HETATM   17  C   UNL     1      -5.611  -4.050 -34.447  1.00  0.00    -0.019 C 
HETATM   18  C   UNL     1      -4.601  -5.175 -34.201  1.00  0.00     0.010 C 
HETATM   19  C   UNL     1      -6.758  -4.566 -35.317  1.00  0.00     0.010 C 
ENDBRANCH  16  17
ENDBRANCH  13  16
ENDBRANCH   7  10
ENDBRANCH   1   5
BRANCH   4  20
HETATM   20  N   UNL     1      -3.272   7.460 -30.236  1.00  0.00    -0.364 N 
HETATM   21  H   UNL     1      -2.930   7.901 -31.091  1.00  0.00     0.165 HD
BRANCH  20  22
HETATM   22  C   UNL     1      -2.411   7.680 -29.130  1.00  0.00     0.048 A 
HETATM   23  C   UNL     1      -2.884   7.617 -27.788  1.00  0.00     0.039 A 
HETATM   24  C   UNL     1      -1.995   7.635 -26.702  1.00  0.00     0.057 A 
HETATM   25  C   UNL     1      -0.651   7.734 -26.979  1.00  0.00     0.106 A 
HETATM   26  C   UNL     1      -0.183   7.830 -28.268  1.00  0.00     0.107 A 
HETATM   27  O   UNL     1       0.350   7.749 -26.061  1.00  0.00    -0.323 OA
HETATM   28  O   UNL     1       1.173   7.911 -28.320  1.00  0.00    -0.323 OA
HETATM   29  C   UNL     1      -1.030   7.811 -29.359  1.00  0.00     0.070 A 
HETATM   30  C   UNL     1       1.506   7.767 -26.922  1.00  0.00     0.352 A 
BRANCH  23  31
HETATM   31  C   UNL     1      -4.330   7.571 -27.456  1.00  0.00     0.158 C 
HETATM   32  C   UNL     1      -4.912   6.285 -26.925  1.00  0.00     0.097 C 
HETATM   33  O   UNL     1      -5.031   8.556 -27.674  1.00  0.00    -0.293 OA
ENDBRANCH  23  31
ENDBRANCH  20  22
ENDBRANCH   4  20
TORSDOF 7
ENDMDL
MODEL 7
REMARK VINA RESULT:      -8.3      3.694      9.907
REMARK  7 active torsions:
REMARK  status: ('A' for Active; 'I' for Inactive)
REMARK    1  A    between atoms: C_2  and  C_3 
REMARK    2  A    between atoms: C_3  and  C_4 
REMARK    3  A    between atoms: C_7  and  C_8 
REMARK    4  A    between atoms: C_10  and  C_11 
REMARK    5  A    between atoms: C_14  and  N_15 
REMARK    6  A    between atoms: N_15  and  C_16 
REMARK    7  A    between atoms: C_17  and  C_18 
ROOT
HETATM    1  C   UNL     1      -6.318   4.779 -31.088  1.00  0.00     0.082 C 
HETATM    2  C   UNL     1      -7.150   5.697 -30.207  1.00  0.00     0.024 C 
HETATM    3  N   UNL     1      -7.840   6.459 -29.476  1.00  0.00    -0.096 N 
HETATM    4  C   UNL     1      -5.116   5.135 -31.581  1.00  0.00     0.113 C 
ENDROOT
BRANCH   1   5
HETATM    5  C   UNL     1      -6.817   3.464 -31.323  1.00  0.00     0.119 A 
HETATM    6  N   UNL     1      -6.209   2.505 -31.993  1.00  0.00    -0.239 NA
HETATM    7  C   UNL     1      -7.033   1.394 -32.147  1.00  0.00     0.075 A 
HETATM    8  C   UNL     1      -8.228   1.481 -31.463  1.00  0.00     0.084 A 
HETATM    9  S   UNL     1      -8.367   3.004 -30.695  1.00  0.00    -0.078 SA
BRANCH   7  10
HETATM   10  C   UNL     1      -6.627   0.264 -32.984  1.00  0.00    -0.007 A 
HETATM   11  C   UNL     1      -5.477  -0.465 -32.648  1.00  0.00     0.014 A 
HETATM   12  C   UNL     1      -5.039  -1.529 -33.444  1.00  0.00     0.008 A 
HETATM   13  C   UNL     1      -5.741  -1.887 -34.600  1.00  0.00    -0.058 A 
HETATM   14  C   UNL     1      -6.888  -1.162 -34.943  1.00  0.00     0.008 A 
HETATM   15  C   UNL     1      -7.325  -0.098 -34.145  1.00  0.00     0.014 A 
BRANCH  13  16
HETATM   16  C   UNL     1      -5.271  -3.032 -35.465  1.00  0.00     0.042 C 
BRANCH  16  17
HETATM   17  C   UNL     1      -5.857  -4.398 -35.057  1.00  0.00    -0.019 C 
HETATM   18  C   UNL     1      -7.148  -4.246 -34.247  1.00  0.00     0.010 C 
HETATM   19  C   UNL     1      -4.826  -5.183 -34.244  1.00  0.00     0.010 C 
ENDBRANCH  16  17
ENDBRANCH  13  16
ENDBRANCH   7  10
ENDBRANCH   1   5
BRANCH   4  20
HETATM   20  N   UNL     1      -4.395   6.323 -31.542  1.00  0.00    -0.364 N 
HETATM   21  H   UNL     1      -4.495   6.854 -32.408  1.00  0.00     0.165 HD
BRANCH  20  22
HETATM   22  C   UNL     1      -3.082   6.395 -31.009  1.00  0.00     0.048 A 
HETATM   23  C   UNL     1      -1.937   6.070 -31.791  1.00  0.00     0.039 A 
HETATM   24  C   UNL     1      -0.640   6.336 -31.326  1.00  0.00     0.057 A 
HETATM   25  C   UNL     1      -0.513   6.905 -30.080  1.00  0.00     0.106 A 
HETATM   26  C   UNL     1      -1.608   7.192 -29.301  1.00  0.00     0.107 A 
HETATM   27  O   UNL     1       0.657   7.245 -29.478  1.00  0.00    -0.323 OA
HETATM   28  O   UNL     1      -1.262   7.757 -28.112  1.00  0.00    -0.323 OA
HETATM   29  C   UNL     1      -2.898   6.947 -29.730  1.00  0.00     0.070 A 
HETATM   30  C   UNL     1       0.169   7.868 -28.273  1.00  0.00     0.352 A 
BRANCH  23  31
HETATM   31  C   UNL     1      -2.040   5.400 -33.112  1.00  0.00     0.158 C 
HETATM   32  C   UNL     1      -1.989   6.245 -34.360  1.00  0.00     0.097 C 
HETATM   33  O   UNL     1      -2.224   4.186 -33.160  1.00  0.00    -0.293 OA
ENDBRANCH  23  31
ENDBRANCH  20  22
ENDBRANCH   4  20
TORSDOF 7
ENDMDL
MODEL 8
REMARK VINA RESULT:      -8.2      1.976      4.146
REMARK  7 active torsions:
REMARK  status: ('A' for Active; 'I' for Inactive)
REMARK    1  A    between atoms: C_2  and  C_3 
REMARK    2  A    between atoms: C_3  and  C_4 
REMARK    3  A    between atoms: C_7  and  C_8 
REMARK    4  A    between atoms: C_10  and  C_11 
REMARK    5  A    between atoms: C_14  and  N_15 
REMARK    6  A    between atoms: N_15  and  C_16 
REMARK    7  A    between atoms: C_17  and  C_18 
ROOT
HETATM    1  C   UNL     1      -5.452   2.736 -32.017  1.00  0.00     0.082 C 
HETATM    2  C   UNL     1      -4.835   1.346 -32.052  1.00  0.00     0.024 C 
HETATM    3  N   UNL     1      -4.325   0.194 -32.079  1.00  0.00    -0.096 N 
HETATM    4  C   UNL     1      -6.756   2.948 -31.754  1.00  0.00     0.113 C 
ENDROOT
BRANCH   1   5
HETATM    5  C   UNL     1      -4.577   3.848 -32.197  1.00  0.00     0.119 A 
HETATM    6  N   UNL     1      -3.557   4.172 -31.427  1.00  0.00    -0.239 NA
HETATM    7  C   UNL     1      -3.000   5.388 -31.809  1.00  0.00     0.075 A 
HETATM    8  C   UNL     1      -3.535   5.912 -32.969  1.00  0.00     0.084 A 
HETATM    9  S   UNL     1      -4.811   4.923 -33.537  1.00  0.00    -0.078 SA
BRANCH   7  10
HETATM   10  C   UNL     1      -1.951   6.023 -31.010  1.00  0.00    -0.007 A 
HETATM   11  C   UNL     1      -2.308   6.873 -29.954  1.00  0.00     0.014 A 
HETATM   12  C   UNL     1      -1.333   7.525 -29.191  1.00  0.00     0.008 A 
HETATM   13  C   UNL     1       0.026   7.343 -29.470  1.00  0.00    -0.058 A 
HETATM   14  C   UNL     1       0.389   6.498 -30.525  1.00  0.00     0.008 A 
HETATM   15  C   UNL     1      -0.588   5.847 -31.286  1.00  0.00     0.014 A 
BRANCH  13  16
HETATM   16  C   UNL     1       1.083   8.047 -28.653  1.00  0.00     0.042 C 
BRANCH  16  17
HETATM   17  C   UNL     1       0.607   8.454 -27.245  1.00  0.00    -0.019 C 
HETATM   18  C   UNL     1       1.192   9.803 -26.813  1.00  0.00     0.010 C 
HETATM   19  C   UNL     1       0.995   7.375 -26.234  1.00  0.00     0.010 C 
ENDBRANCH  16  17
ENDBRANCH  13  16
ENDBRANCH   7  10
ENDBRANCH   1   5
BRANCH   4  20
HETATM   20  N   UNL     1      -7.831   2.088 -31.562  1.00  0.00    -0.364 N 
HETATM   21  H   UNL     1      -7.522   1.152 -31.296  1.00  0.00     0.165 HD
BRANCH  20  22
HETATM   22  C   UNL     1      -8.948   2.063 -32.436  1.00  0.00     0.048 A 
HETATM   23  C   UNL     1      -9.059   1.103 -33.482  1.00  0.00     0.039 A 
HETATM   24  C   UNL     1     -10.250   0.955 -34.210  1.00  0.00     0.057 A 
HETATM   25  C   UNL     1     -11.300   1.783 -33.890  1.00  0.00     0.106 A 
HETATM   26  C   UNL     1     -11.195   2.737 -32.906  1.00  0.00     0.107 A 
HETATM   27  O   UNL     1     -12.527   1.771 -34.474  1.00  0.00    -0.323 OA
HETATM   28  O   UNL     1     -12.348   3.441 -32.745  1.00  0.00    -0.323 OA
HETATM   29  C   UNL     1     -10.040   2.906 -32.169  1.00  0.00     0.070 A 
HETATM   30  C   UNL     1     -13.213   2.760 -33.680  1.00  0.00     0.352 A 
BRANCH  23  31
HETATM   31  C   UNL     1      -7.924   0.237 -33.891  1.00  0.00     0.158 C 
HETATM   32  C   UNL     1      -7.379   0.369 -35.291  1.00  0.00     0.097 C 
HETATM   33  O   UNL     1      -7.494  -0.605 -33.107  1.00  0.00    -0.293 OA
ENDBRANCH  23  31
ENDBRANCH  20  22
ENDBRANCH   4  20
TORSDOF 7
ENDMDL
MODEL 9
REMARK VINA RESULT:      -8.2      4.086     10.517
REMARK  7 active torsions:
REMARK  status: ('A' for Active; 'I' for Inactive)
REMARK    1  A    between atoms: C_2  and  C_3 
REMARK    2  A    between atoms: C_3  and  C_4 
REMARK    3  A    between atoms: C_7  and  C_8 
REMARK    4  A    between atoms: C_10  and  C_11 
REMARK    5  A    between atoms: C_14  and  N_15 
REMARK    6  A    between atoms: N_15  and  C_16 
REMARK    7  A    between atoms: C_17  and  C_18 
ROOT
HETATM    1  C   UNL     1      -3.449   4.347 -32.743  1.00  0.00     0.082 C 
HETATM    2  C   UNL     1      -3.469   4.945 -34.141  1.00  0.00     0.024 C 
HETATM    3  N   UNL     1      -3.485   5.442 -35.299  1.00  0.00    -0.096 N 
HETATM    4  C   UNL     1      -2.476   4.613 -31.850  1.00  0.00     0.113 C 
ENDROOT
BRANCH   1   5
HETATM    5  C   UNL     1      -4.559   3.537 -32.359  1.00  0.00     0.119 A 
HETATM    6  N   UNL     1      -5.587   3.210 -33.117  1.00  0.00    -0.239 NA
HETATM    7  C   UNL     1      -6.554   2.523 -32.390  1.00  0.00     0.075 A 
HETATM    8  C   UNL     1      -6.175   2.219 -31.098  1.00  0.00     0.084 A 
HETATM    9  S   UNL     1      -4.634   2.878 -30.757  1.00  0.00    -0.078 SA
BRANCH   7  10
HETATM   10  C   UNL     1      -7.849   2.189 -32.983  1.00  0.00    -0.007 A 
HETATM   11  C   UNL     1      -8.725   3.219 -33.354  1.00  0.00     0.014 A 
HETATM   12  C   UNL     1      -9.985   2.937 -33.892  1.00  0.00     0.008 A 
HETATM   13  C   UNL     1     -10.402   1.613 -34.068  1.00  0.00    -0.058 A 
HETATM   14  C   UNL     1      -9.534   0.579 -33.698  1.00  0.00     0.008 A 
HETATM   15  C   UNL     1      -8.273   0.864 -33.161  1.00  0.00     0.014 A 
BRANCH  13  16
HETATM   16  C   UNL     1     -11.763   1.302 -34.644  1.00  0.00     0.042 C 
BRANCH  16  17
HETATM   17  C   UNL     1     -12.862   1.136 -33.578  1.00  0.00    -0.019 C 
HETATM   18  C   UNL     1     -13.668  -0.150 -33.784  1.00  0.00     0.010 C 
HETATM   19  C   UNL     1     -13.801   2.344 -33.607  1.00  0.00     0.010 C 
ENDBRANCH  16  17
ENDBRANCH  13  16
ENDBRANCH   7  10
ENDBRANCH   1   5
BRANCH   4  20
HETATM   20  N   UNL     1      -1.289   5.330 -31.935  1.00  0.00    -0.364 N 
HETATM   21  H   UNL     1      -0.532   4.763 -32.320  1.00  0.00     0.165 HD
BRANCH  20  22
HETATM   22  C   UNL     1      -0.847   6.192 -30.899  1.00  0.00     0.048 A 
HETATM   23  C   UNL     1      -1.391   7.497 -30.726  1.00  0.00     0.039 A 
HETATM   24  C   UNL     1      -1.098   8.262 -29.586  1.00  0.00     0.057 A 
HETATM   25  C   UNL     1      -0.253   7.715 -28.650  1.00  0.00     0.106 A 
HETATM   26  C   UNL     1       0.306   6.471 -28.820  1.00  0.00     0.107 A 
HETATM   27  O   UNL     1       0.127   8.300 -27.485  1.00  0.00    -0.323 OA
HETATM   28  O   UNL     1       1.103   6.116 -27.777  1.00  0.00    -0.323 OA
HETATM   29  C   UNL     1       0.036   5.690 -29.927  1.00  0.00     0.070 A 
HETATM   30  C   UNL     1       0.911   7.243 -26.895  1.00  0.00     0.352 A 
BRANCH  23  31
HETATM   31  C   UNL     1      -2.257   8.139 -31.747  1.00  0.00     0.158 C 
HETATM   32  C   UNL     1      -3.708   8.382 -31.418  1.00  0.00     0.097 C 
HETATM   33  O   UNL     1      -1.792   8.403 -32.854  1.00  0.00    -0.293 OA
ENDBRANCH  23  31
ENDBRANCH  20  22
ENDBRANCH   4  20
TORSDOF 7
ENDMDL
MODEL 10
REMARK VINA RESULT:      -8.1      5.363      9.214
REMARK  7 active torsions:
REMARK  status: ('A' for Active; 'I' for Inactive)
REMARK    1  A    between atoms: C_2  and  C_3 
REMARK    2  A    between atoms: C_3  and  C_4 
REMARK    3  A    between atoms: C_7  and  C_8 
REMARK    4  A    between atoms: C_10  and  C_11 
REMARK    5  A    between atoms: C_14  and  N_15 
REMARK    6  A    between atoms: N_15  and  C_16 
REMARK    7  A    between atoms: C_17  and  C_18 
ROOT
HETATM    1  C   UNL     1      -8.097   2.364 -33.449  1.00  0.00     0.082 C 
HETATM    2  C   UNL     1      -6.883   3.176 -33.873  1.00  0.00     0.024 C 
HETATM    3  N   UNL     1      -5.876   3.849 -34.223  1.00  0.00    -0.096 N 
HETATM    4  C   UNL     1      -8.004   1.256 -32.689  1.00  0.00     0.113 C 
ENDROOT
BRANCH   1   5
HETATM    5  C   UNL     1      -9.382   2.862 -33.818  1.00  0.00     0.119 A 
HETATM    6  N   UNL     1      -9.625   3.914 -34.575  1.00  0.00    -0.239 NA
HETATM    7  C   UNL     1     -10.985   4.200 -34.623  1.00  0.00     0.075 A 
HETATM    8  C   UNL     1     -11.780   3.261 -33.996  1.00  0.00     0.084 A 
HETATM    9  S   UNL     1     -10.813   2.058 -33.258  1.00  0.00    -0.078 SA
BRANCH   7  10
HETATM   10  C   UNL     1     -11.480   5.410 -35.280  1.00  0.00    -0.007 A 
HETATM   11  C   UNL     1     -10.597   6.472 -35.523  1.00  0.00     0.014 A 
HETATM   12  C   UNL     1     -11.042   7.658 -36.117  1.00  0.00     0.008 A 
HETATM   13  C   UNL     1     -12.385   7.811 -36.481  1.00  0.00    -0.058 A 
HETATM   14  C   UNL     1     -13.271   6.756 -36.239  1.00  0.00     0.008 A 
HETATM   15  C   UNL     1     -12.825   5.570 -35.645  1.00  0.00     0.014 A 
BRANCH  13  16
HETATM   16  C   UNL     1     -12.871   9.090 -37.119  1.00  0.00     0.042 C 
BRANCH  16  17
HETATM   17  C   UNL     1     -11.956   9.606 -38.246  1.00  0.00    -0.019 C 
HETATM   18  C   UNL     1     -11.378  10.988 -37.925  1.00  0.00     0.010 C 
HETATM   19  C   UNL     1     -12.735   9.665 -39.561  1.00  0.00     0.010 C 
ENDBRANCH  16  17
ENDBRANCH  13  16
ENDBRANCH   7  10
ENDBRANCH   1   5
BRANCH   4  20
HETATM   20  N   UNL     1      -6.919   0.534 -32.204  1.00  0.00    -0.364 N 
HETATM   21  H   UNL     1      -6.269   1.130 -31.689  1.00  0.00     0.165 HD
BRANCH  20  22
HETATM   22  C   UNL     1      -6.254  -0.449 -32.981  1.00  0.00     0.048 A 
HETATM   23  C   UNL     1      -4.839  -0.607 -32.938  1.00  0.00     0.039 A 
HETATM   24  C   UNL     1      -4.211  -1.704 -33.548  1.00  0.00     0.057 A 
HETATM   25  C   UNL     1      -5.009  -2.612 -34.205  1.00  0.00     0.106 A 
HETATM   26  C   UNL     1      -6.371  -2.453 -34.283  1.00  0.00     0.107 A 
HETATM   27  O   UNL     1      -4.579  -3.736 -34.835  1.00  0.00    -0.323 OA
HETATM   28  O   UNL     1      -6.971  -3.464 -34.969  1.00  0.00    -0.323 OA
HETATM   29  C   UNL     1      -7.021  -1.388 -33.691  1.00  0.00     0.070 A 
HETATM   30  C   UNL     1      -5.836  -4.318 -35.236  1.00  0.00     0.352 A 
BRANCH  23  31
HETATM   31  C   UNL     1      -3.947   0.387 -32.290  1.00  0.00     0.158 C 
HETATM   32  C   UNL     1      -2.963  -0.090 -31.251  1.00  0.00     0.097 C 
HETATM   33  O   UNL     1      -4.068   1.578 -32.566  1.00  0.00    -0.293 OA
ENDBRANCH  23  31
ENDBRANCH  20  22
ENDBRANCH   4  20
TORSDOF 7
ENDMDL
