MODEL 1
REMARK VINA RESULT:      -9.2      0.000      0.000
REMARK  8 active torsions:
REMARK  status: ('A' for Active; 'I' for Inactive)
REMARK    1  A    between atoms: C_2  and  O_3 
REMARK    2  A    between atoms: O_3  and  C_4 
REMARK    3  A    between atoms: C_4  and  C_5 
REMARK    4  A    between atoms: C_6  and  C_8 
REMARK    5  A    between atoms: C_6  and  O_7 
REMARK    6  A    between atoms: C_16  and  C_17 
REMARK    7  A    between atoms: C_18  and  C_19 
REMARK    8  A    between atoms: N_26  and  C_27 
ROOT
HETATM    1  C   UNL     1      -5.194   2.389 -31.866  1.00  0.00     0.177 C 
HETATM    2  C   UNL     1      -5.825   3.381 -30.875  1.00  0.00     0.250 C 
HETATM    3  N   UNL     1      -5.800   4.735 -31.386  1.00  0.00    -0.303 N 
HETATM    4  C   UNL     1      -5.990   5.038 -32.689  1.00  0.00     0.319 C 
HETATM    5  O   UNL     1      -6.253   6.177 -33.048  1.00  0.00    -0.247 OA
HETATM    6  N   UNL     1      -5.821   4.038 -33.581  1.00  0.00    -0.333 N 
HETATM    7  C   UNL     1      -5.691   2.619 -33.292  1.00  0.00     0.142 C 
HETATM    8  H   UNL     1      -6.053   5.487 -30.753  1.00  0.00     0.167 HD
HETATM    9  H   UNL     1      -5.966   4.321 -34.544  1.00  0.00     0.165 HD
ENDROOT
BRANCH   7  10
HETATM   10  C   UNL     1      -6.983   1.933 -33.663  1.00  0.00     0.015 A 
HETATM   11  C   UNL     1      -7.227   0.547 -33.922  1.00  0.00     0.097 A 
HETATM   12  N   UNL     1      -8.528   0.318 -34.147  1.00  0.00    -0.167 NA
HETATM   13  N   UNL     1      -9.140   1.518 -34.064  1.00  0.00    -0.244 N 
HETATM   14  C   UNL     1      -8.226   2.519 -33.843  1.00  0.00     0.130 A 
BRANCH  11  15
HETATM   15  C   UNL     1      -6.289  -0.574 -33.925  1.00  0.00    -0.005 A 
HETATM   16  C   UNL     1      -6.409  -1.576 -34.900  1.00  0.00     0.014 A 
HETATM   17  C   UNL     1      -5.534  -2.664 -34.912  1.00  0.00     0.001 A 
HETATM   18  C   UNL     1      -4.530  -2.759 -33.952  1.00  0.00     0.000 A 
HETATM   19  C   UNL     1      -4.394  -1.763 -32.985  1.00  0.00     0.001 A 
HETATM   20  C   UNL     1      -5.265  -0.670 -32.975  1.00  0.00     0.014 A 
ENDBRANCH  11  15
BRANCH  13  21
HETATM   21  C   UNL     1     -10.554   1.636 -34.179  1.00  0.00     0.058 A 
HETATM   22  C   UNL     1     -11.100   2.704 -34.907  1.00  0.00     0.031 A 
HETATM   23  C   UNL     1     -12.484   2.821 -35.054  1.00  0.00     0.002 A 
HETATM   24  C   UNL     1     -13.331   1.880 -34.474  1.00  0.00     0.000 A 
HETATM   25  C   UNL     1     -12.797   0.820 -33.745  1.00  0.00     0.002 A 
HETATM   26  C   UNL     1     -11.413   0.693 -33.595  1.00  0.00     0.031 A 
ENDBRANCH  13  21
ENDBRANCH   7  10
BRANCH   1  27
HETATM   27  C   UNL     1      -3.678   2.435 -31.934  1.00  0.00     0.270 C 
HETATM   28  O   UNL     1      -2.965   1.734 -31.225  1.00  0.00    -0.265 OA
BRANCH  27  29
HETATM   29  O   UNL     1      -3.212   3.259 -32.910  1.00  0.00    -0.321 OA
BRANCH  29  30
HETATM   30  C   UNL     1      -2.300   4.295 -32.511  1.00  0.00     0.174 C 
HETATM   31  C   UNL     1      -1.887   5.097 -33.730  1.00  0.00     0.034 C 
ENDBRANCH  29  30
ENDBRANCH  27  29
ENDBRANCH   1  27
BRANCH   2  32
HETATM   32  C   UNL     1      -7.278   2.936 -30.471  1.00  0.00     0.439 C 
HETATM   33  F   UNL     1      -7.493   1.625 -30.721  1.00  0.00    -0.166 F 
HETATM   34  F   UNL     1      -7.485   3.134 -29.142  1.00  0.00    -0.166 F 
HETATM   35  F   UNL     1      -8.237   3.641 -31.105  1.00  0.00    -0.166 F 
ENDBRANCH   2  32
BRANCH   2  36
HETATM   36  O   UNL     1      -5.027   3.448 -29.684  1.00  0.00    -0.363 OA
HETATM   37  H   UNL     1      -5.670   3.449 -28.950  1.00  0.00     0.213 HD
ENDBRANCH   2  36
TORSDOF 8
ENDMDL
MODEL 2
REMARK VINA RESULT:      -8.9      2.339      6.281
REMARK  8 active torsions:
REMARK  status: ('A' for Active; 'I' for Inactive)
REMARK    1  A    between atoms: C_2  and  O_3 
REMARK    2  A    between atoms: O_3  and  C_4 
REMARK    3  A    between atoms: C_4  and  C_5 
REMARK    4  A    between atoms: C_6  and  C_8 
REMARK    5  A    between atoms: C_6  and  O_7 
REMARK    6  A    between atoms: C_16  and  C_17 
REMARK    7  A    between atoms: C_18  and  C_19 
REMARK    8  A    between atoms: N_26  and  C_27 
ROOT
HETATM    1  C   UNL     1      -9.074   3.877 -32.059  1.00  0.00     0.177 C 
HETATM    2  C   UNL     1      -7.733   4.601 -32.264  1.00  0.00     0.250 C 
HETATM    3  N   UNL     1      -6.932   4.592 -31.059  1.00  0.00    -0.303 N 
HETATM    4  C   UNL     1      -6.884   3.541 -30.211  1.00  0.00     0.319 C 
HETATM    5  O   UNL     1      -5.998   3.436 -29.375  1.00  0.00    -0.247 OA
HETATM    6  N   UNL     1      -7.890   2.643 -30.290  1.00  0.00    -0.333 N 
HETATM    7  C   UNL     1      -8.893   2.542 -31.338  1.00  0.00     0.142 C 
HETATM    8  H   UNL     1      -6.097   5.169 -31.039  1.00  0.00     0.167 HD
HETATM    9  H   UNL     1      -7.810   1.881 -29.626  1.00  0.00     0.165 HD
ENDROOT
BRANCH   7  10
HETATM   10  C   UNL     1      -8.559   1.357 -32.210  1.00  0.00     0.015 A 
HETATM   11  C   UNL     1      -9.338   0.750 -33.246  1.00  0.00     0.097 A 
HETATM   12  N   UNL     1      -8.662  -0.242 -33.843  1.00  0.00    -0.167 NA
HETATM   13  N   UNL     1      -7.471  -0.316 -33.213  1.00  0.00    -0.244 N 
HETATM   14  C   UNL     1      -7.406   0.587 -32.180  1.00  0.00     0.130 A 
BRANCH  11  15
HETATM   15  C   UNL     1     -10.676   1.095 -33.721  1.00  0.00    -0.005 A 
HETATM   16  C   UNL     1     -11.760   0.263 -33.404  1.00  0.00     0.014 A 
HETATM   17  C   UNL     1     -13.045   0.565 -33.861  1.00  0.00     0.001 A 
HETATM   18  C   UNL     1     -13.258   1.702 -34.635  1.00  0.00     0.000 A 
HETATM   19  C   UNL     1     -12.190   2.543 -34.946  1.00  0.00     0.001 A 
HETATM   20  C   UNL     1     -10.904   2.246 -34.485  1.00  0.00     0.014 A 
ENDBRANCH  11  15
BRANCH  13  21
HETATM   21  C   UNL     1      -6.462  -1.223 -33.644  1.00  0.00     0.058 A 
HETATM   22  C   UNL     1      -5.162  -1.104 -33.129  1.00  0.00     0.031 A 
HETATM   23  C   UNL     1      -4.166  -2.002 -33.520  1.00  0.00     0.002 A 
HETATM   24  C   UNL     1      -4.456  -3.018 -34.427  1.00  0.00     0.000 A 
HETATM   25  C   UNL     1      -5.743  -3.139 -34.947  1.00  0.00     0.002 A 
HETATM   26  C   UNL     1      -6.747  -2.247 -34.560  1.00  0.00     0.031 A 
ENDBRANCH  13  21
ENDBRANCH   7  10
BRANCH   1  27
HETATM   27  C   UNL     1     -10.101   4.655 -31.258  1.00  0.00     0.270 C 
HETATM   28  O   UNL     1      -9.854   5.135 -30.158  1.00  0.00    -0.265 OA
BRANCH  27  29
HETATM   29  O   UNL     1     -11.274   4.832 -31.923  1.00  0.00    -0.321 OA
BRANCH  29  30
HETATM   30  C   UNL     1     -12.470   4.911 -31.130  1.00  0.00     0.174 C 
HETATM   31  C   UNL     1     -13.378   3.747 -31.474  1.00  0.00     0.034 C 
ENDBRANCH  29  30
ENDBRANCH  27  29
ENDBRANCH   1  27
BRANCH   2  32
HETATM   32  C   UNL     1      -6.948   4.011 -33.492  1.00  0.00     0.439 C 
HETATM   33  F   UNL     1      -7.765   3.354 -34.346  1.00  0.00    -0.166 F 
HETATM   34  F   UNL     1      -6.345   5.006 -34.195  1.00  0.00    -0.166 F 
HETATM   35  F   UNL     1      -5.964   3.165 -33.127  1.00  0.00    -0.166 F 
ENDBRANCH   2  32
BRANCH   2  36
HETATM   36  O   UNL     1      -7.970   5.996 -32.508  1.00  0.00    -0.363 OA
HETATM   37  H   UNL     1      -8.649   6.016 -33.210  1.00  0.00     0.213 HD
ENDBRANCH   2  36
TORSDOF 8
ENDMDL
MODEL 3
REMARK VINA RESULT:      -8.7      1.783      5.120
REMARK  8 active torsions:
REMARK  status: ('A' for Active; 'I' for Inactive)
REMARK    1  A    between atoms: C_2  and  O_3 
REMARK    2  A    between atoms: O_3  and  C_4 
REMARK    3  A    between atoms: C_4  and  C_5 
REMARK    4  A    between atoms: C_6  and  C_8 
REMARK    5  A    between atoms: C_6  and  O_7 
REMARK    6  A    between atoms: C_16  and  C_17 
REMARK    7  A    between atoms: C_18  and  C_19 
REMARK    8  A    between atoms: N_26  and  C_27 
ROOT
HETATM    1  C   UNL     1      -5.748   2.589 -31.681  1.00  0.00     0.177 C 
HETATM    2  C   UNL     1      -6.040   2.242 -30.212  1.00  0.00     0.250 C 
HETATM    3  N   UNL     1      -7.302   2.797 -29.772  1.00  0.00    -0.303 N 
HETATM    4  C   UNL     1      -8.394   2.869 -30.564  1.00  0.00     0.319 C 
HETATM    5  O   UNL     1      -9.508   3.064 -30.099  1.00  0.00    -0.247 OA
HETATM    6  N   UNL     1      -8.193   2.774 -31.897  1.00  0.00    -0.333 N 
HETATM    7  C   UNL     1      -6.971   2.364 -32.570  1.00  0.00     0.142 C 
HETATM    8  H   UNL     1      -7.520   2.755 -28.782  1.00  0.00     0.167 HD
HETATM    9  H   UNL     1      -9.043   2.844 -32.444  1.00  0.00     0.165 HD
ENDROOT
BRANCH   7  10
HETATM   10  C   UNL     1      -7.159   0.963 -33.097  1.00  0.00     0.015 A 
HETATM   11  C   UNL     1      -8.328   0.357 -33.657  1.00  0.00     0.097 A 
HETATM   12  N   UNL     1      -8.074  -0.889 -34.080  1.00  0.00    -0.167 NA
HETATM   13  N   UNL     1      -6.777  -1.125 -33.792  1.00  0.00    -0.244 N 
HETATM   14  C   UNL     1      -6.218  -0.055 -33.137  1.00  0.00     0.130 A 
BRANCH  11  15
HETATM   15  C   UNL     1      -9.662   0.923 -33.847  1.00  0.00    -0.005 A 
HETATM   16  C   UNL     1      -9.816   2.102 -34.592  1.00  0.00     0.014 A 
HETATM   17  C   UNL     1     -11.079   2.669 -34.773  1.00  0.00     0.001 A 
HETATM   18  C   UNL     1     -12.200   2.061 -34.213  1.00  0.00     0.000 A 
HETATM   19  C   UNL     1     -12.061   0.883 -33.481  1.00  0.00     0.001 A 
HETATM   20  C   UNL     1     -10.798   0.310 -33.303  1.00  0.00     0.014 A 
ENDBRANCH  11  15
BRANCH  13  21
HETATM   21  C   UNL     1      -6.145  -2.342 -34.175  1.00  0.00     0.058 A 
HETATM   22  C   UNL     1      -4.766  -2.497 -33.968  1.00  0.00     0.031 A 
HETATM   23  C   UNL     1      -4.133  -3.693 -34.313  1.00  0.00     0.002 A 
HETATM   24  C   UNL     1      -4.867  -4.738 -34.869  1.00  0.00     0.000 A 
HETATM   25  C   UNL     1      -6.235  -4.590 -35.083  1.00  0.00     0.002 A 
HETATM   26  C   UNL     1      -6.878  -3.397 -34.738  1.00  0.00     0.031 A 
ENDBRANCH  13  21
ENDBRANCH   7  10
BRANCH   1  27
HETATM   27  C   UNL     1      -5.308   4.021 -31.921  1.00  0.00     0.270 C 
HETATM   28  O   UNL     1      -5.748   4.963 -31.272  1.00  0.00    -0.265 OA
BRANCH  27  29
HETATM   29  O   UNL     1      -4.326   4.128 -32.855  1.00  0.00    -0.321 OA
BRANCH  29  30
HETATM   30  C   UNL     1      -3.089   3.449 -32.583  1.00  0.00     0.174 C 
HETATM   31  C   UNL     1      -2.307   4.228 -31.543  1.00  0.00     0.034 C 
ENDBRANCH  29  30
ENDBRANCH  27  29
ENDBRANCH   1  27
BRANCH   2  32
HETATM   32  C   UNL     1      -5.968   0.689 -29.968  1.00  0.00     0.439 C 
HETATM   33  F   UNL     1      -4.968   0.113 -30.673  1.00  0.00    -0.166 F 
HETATM   34  F   UNL     1      -5.742   0.423 -28.654  1.00  0.00    -0.166 F 
HETATM   35  F   UNL     1      -7.116   0.056 -30.284  1.00  0.00    -0.166 F 
ENDBRANCH   2  32
BRANCH   2  36
HETATM   36  O   UNL     1      -5.071   2.876 -29.364  1.00  0.00    -0.363 OA
HETATM   37  H   UNL     1      -4.246   2.882 -29.887  1.00  0.00     0.213 HD
ENDBRANCH   2  36
TORSDOF 8
ENDMDL
MODEL 4
REMARK VINA RESULT:      -8.6      2.465      5.777
REMARK  8 active torsions:
REMARK  status: ('A' for Active; 'I' for Inactive)
REMARK    1  A    between atoms: C_2  and  O_3 
REMARK    2  A    between atoms: O_3  and  C_4 
REMARK    3  A    between atoms: C_4  and  C_5 
REMARK    4  A    between atoms: C_6  and  C_8 
REMARK    5  A    between atoms: C_6  and  O_7 
REMARK    6  A    between atoms: C_16  and  C_17 
REMARK    7  A    between atoms: C_18  and  C_19 
REMARK    8  A    between atoms: N_26  and  C_27 
ROOT
HETATM    1  C   UNL     1      -6.018   4.822 -31.503  1.00  0.00     0.177 C 
HETATM    2  C   UNL     1      -5.052   5.214 -32.633  1.00  0.00     0.250 C 
HETATM    3  N   UNL     1      -3.671   5.017 -32.248  1.00  0.00    -0.303 N 
HETATM    4  C   UNL     1      -3.257   3.983 -31.483  1.00  0.00     0.319 C 
HETATM    5  O   UNL     1      -2.076   3.673 -31.414  1.00  0.00    -0.247 OA
HETATM    6  N   UNL     1      -4.198   3.343 -30.755  1.00  0.00    -0.333 N 
HETATM    7  C   UNL     1      -5.641   3.480 -30.875  1.00  0.00     0.142 C 
HETATM    8  H   UNL     1      -2.950   5.383 -32.861  1.00  0.00     0.167 HD
HETATM    9  H   UNL     1      -3.833   2.583 -30.193  1.00  0.00     0.165 HD
ENDROOT
BRANCH   7  10
HETATM   10  C   UNL     1      -6.185   2.251 -31.562  1.00  0.00     0.015 A 
HETATM   11  C   UNL     1      -7.527   1.961 -31.966  1.00  0.00     0.097 A 
HETATM   12  N   UNL     1      -7.596   0.791 -32.615  1.00  0.00    -0.167 NA
HETATM   13  N   UNL     1      -6.340   0.295 -32.627  1.00  0.00    -0.244 N 
HETATM   14  C   UNL     1      -5.482   1.118 -31.941  1.00  0.00     0.130 A 
BRANCH  11  15
HETATM   15  C   UNL     1      -8.737   2.764 -31.800  1.00  0.00    -0.005 A 
HETATM   16  C   UNL     1      -9.416   3.236 -32.934  1.00  0.00     0.014 A 
HETATM   17  C   UNL     1     -10.565   4.018 -32.800  1.00  0.00     0.001 A 
HETATM   18  C   UNL     1     -11.047   4.333 -31.532  1.00  0.00     0.000 A 
HETATM   19  C   UNL     1     -10.387   3.860 -30.399  1.00  0.00     0.001 A 
HETATM   20  C   UNL     1      -9.239   3.073 -30.530  1.00  0.00     0.014 A 
ENDBRANCH  11  15
BRANCH  13  21
HETATM   21  C   UNL     1      -6.032  -0.916 -33.309  1.00  0.00     0.058 A 
HETATM   22  C   UNL     1      -7.063  -1.644 -33.922  1.00  0.00     0.031 A 
HETATM   23  C   UNL     1      -6.776  -2.820 -34.618  1.00  0.00     0.002 A 
HETATM   24  C   UNL     1      -5.465  -3.281 -34.704  1.00  0.00     0.000 A 
HETATM   25  C   UNL     1      -4.436  -2.567 -34.093  1.00  0.00     0.002 A 
HETATM   26  C   UNL     1      -4.713  -1.387 -33.397  1.00  0.00     0.031 A 
ENDBRANCH  13  21
ENDBRANCH   7  10
BRANCH   1  27
HETATM   27  C   UNL     1      -6.097   5.816 -30.359  1.00  0.00     0.270 C 
HETATM   28  O   UNL     1      -5.106   6.370 -29.898  1.00  0.00    -0.265 OA
BRANCH  27  29
HETATM   29  O   UNL     1      -7.372   6.085 -29.973  1.00  0.00    -0.321 OA
BRANCH  29  30
HETATM   30  C   UNL     1      -7.682   5.919 -28.579  1.00  0.00     0.174 C 
HETATM   31  C   UNL     1      -8.800   6.869 -28.198  1.00  0.00     0.034 C 
ENDBRANCH  29  30
ENDBRANCH  27  29
ENDBRANCH   1  27
BRANCH   2  32
HETATM   32  C   UNL     1      -5.400   4.460 -33.968  1.00  0.00     0.439 C 
HETATM   33  F   UNL     1      -6.734   4.397 -34.180  1.00  0.00    -0.166 F 
HETATM   34  F   UNL     1      -4.850   5.098 -35.035  1.00  0.00    -0.166 F 
HETATM   35  F   UNL     1      -4.917   3.201 -33.999  1.00  0.00    -0.166 F 
ENDBRANCH   2  32
BRANCH   2  36
HETATM   36  O   UNL     1      -5.143   6.626 -32.877  1.00  0.00    -0.363 OA
HETATM   37  H   UNL     1      -4.881   6.737 -33.811  1.00  0.00     0.213 HD
ENDBRANCH   2  36
TORSDOF 8
ENDMDL
MODEL 5
REMARK VINA RESULT:      -8.6      1.472      1.968
REMARK  8 active torsions:
REMARK  status: ('A' for Active; 'I' for Inactive)
REMARK    1  A    between atoms: C_2  and  O_3 
REMARK    2  A    between atoms: O_3  and  C_4 
REMARK    3  A    between atoms: C_4  and  C_5 
REMARK    4  A    between atoms: C_6  and  C_8 
REMARK    5  A    between atoms: C_6  and  O_7 
REMARK    6  A    between atoms: C_16  and  C_17 
REMARK    7  A    between atoms: C_18  and  C_19 
REMARK    8  A    between atoms: N_26  and  C_27 
ROOT
HETATM    1  C   UNL     1      -6.592   3.312 -32.677  1.00  0.00     0.177 C 
HETATM    2  C   UNL     1      -6.998   4.110 -31.427  1.00  0.00     0.250 C 
HETATM    3  N   UNL     1      -7.404   5.458 -31.761  1.00  0.00    -0.303 N 
HETATM    4  C   UNL     1      -8.098   5.765 -32.879  1.00  0.00     0.319 C 
HETATM    5  O   UNL     1      -8.675   6.837 -32.997  1.00  0.00    -0.247 OA
HETATM    6  N   UNL     1      -8.080   4.859 -33.881  1.00  0.00    -0.333 N 
HETATM    7  C   UNL     1      -7.598   3.489 -33.813  1.00  0.00     0.142 C 
HETATM    8  H   UNL     1      -7.548   6.114 -31.000  1.00  0.00     0.167 HD
HETATM    9  H   UNL     1      -8.607   5.144 -34.698  1.00  0.00     0.165 HD
ENDROOT
BRANCH   7  10
HETATM   10  C   UNL     1      -8.789   2.562 -33.795  1.00  0.00     0.015 A 
HETATM   11  C   UNL     1      -8.820   1.131 -33.787  1.00  0.00     0.097 A 
HETATM   12  N   UNL     1     -10.076   0.674 -33.694  1.00  0.00    -0.167 NA
HETATM   13  N   UNL     1     -10.871   1.765 -33.664  1.00  0.00    -0.244 N 
HETATM   14  C   UNL     1     -10.130   2.914 -33.793  1.00  0.00     0.130 A 
BRANCH  11  15
HETATM   15  C   UNL     1      -7.710   0.181 -33.821  1.00  0.00    -0.005 A 
HETATM   16  C   UNL     1      -7.386  -0.464 -35.024  1.00  0.00     0.014 A 
HETATM   17  C   UNL     1      -6.340  -1.387 -35.076  1.00  0.00     0.001 A 
HETATM   18  C   UNL     1      -5.606  -1.671 -33.928  1.00  0.00     0.000 A 
HETATM   19  C   UNL     1      -5.911  -1.028 -32.729  1.00  0.00     0.001 A 
HETATM   20  C   UNL     1      -6.955  -0.099 -32.675  1.00  0.00     0.014 A 
ENDBRANCH  11  15
BRANCH  13  21
HETATM   21  C   UNL     1     -12.279   1.648 -33.492  1.00  0.00     0.058 A 
HETATM   22  C   UNL     1     -12.992   2.703 -32.903  1.00  0.00     0.031 A 
HETATM   23  C   UNL     1     -14.378   2.618 -32.752  1.00  0.00     0.002 A 
HETATM   24  C   UNL     1     -15.060   1.482 -33.180  1.00  0.00     0.000 A 
HETATM   25  C   UNL     1     -14.359   0.428 -33.761  1.00  0.00     0.002 A 
HETATM   26  C   UNL     1     -12.973   0.505 -33.920  1.00  0.00     0.031 A 
ENDBRANCH  13  21
ENDBRANCH   7  10
BRANCH   1  27
HETATM   27  C   UNL     1      -5.236   3.678 -33.252  1.00  0.00     0.270 C 
HETATM   28  O   UNL     1      -5.108   4.427 -34.213  1.00  0.00    -0.265 OA
BRANCH  27  29
HETATM   29  O   UNL     1      -4.198   3.163 -32.540  1.00  0.00    -0.321 OA
BRANCH  29  30
HETATM   30  C   UNL     1      -2.889   3.680 -32.828  1.00  0.00     0.174 C 
HETATM   31  C   UNL     1      -2.324   4.339 -31.585  1.00  0.00     0.034 C 
ENDBRANCH  29  30
ENDBRANCH  27  29
ENDBRANCH   1  27
BRANCH   2  32
HETATM   32  C   UNL     1      -8.104   3.354 -30.603  1.00  0.00     0.439 C 
HETATM   33  F   UNL     1      -8.071   2.019 -30.818  1.00  0.00    -0.166 F 
HETATM   34  F   UNL     1      -7.927   3.554 -29.270  1.00  0.00    -0.166 F 
HETATM   35  F   UNL     1      -9.351   3.787 -30.881  1.00  0.00    -0.166 F 
ENDBRANCH   2  32
BRANCH   2  36
HETATM   36  O   UNL     1      -5.854   4.295 -30.580  1.00  0.00    -0.363 OA
HETATM   37  H   UNL     1      -6.194   4.775 -29.800  1.00  0.00     0.213 HD
ENDBRANCH   2  36
TORSDOF 8
ENDMDL
MODEL 6
REMARK VINA RESULT:      -8.5      2.697      6.184
REMARK  8 active torsions:
REMARK  status: ('A' for Active; 'I' for Inactive)
REMARK    1  A    between atoms: C_2  and  O_3 
REMARK    2  A    between atoms: O_3  and  C_4 
REMARK    3  A    between atoms: C_4  and  C_5 
REMARK    4  A    between atoms: C_6  and  C_8 
REMARK    5  A    between atoms: C_6  and  O_7 
REMARK    6  A    between atoms: C_16  and  C_17 
REMARK    7  A    between atoms: C_18  and  C_19 
REMARK    8  A    between atoms: N_26  and  C_27 
ROOT
HETATM    1  C   UNL     1      -8.990   3.386 -33.406  1.00  0.00     0.177 C 
HETATM    2  C   UNL     1      -9.837   2.801 -32.264  1.00  0.00     0.250 C 
HETATM    3  N   UNL     1     -11.028   2.148 -32.763  1.00  0.00    -0.303 N 
HETATM    4  C   UNL     1     -11.055   1.436 -33.911  1.00  0.00     0.319 C 
HETATM    5  O   UNL     1     -11.970   0.664 -34.161  1.00  0.00    -0.247 OA
HETATM    6  N   UNL     1     -10.057   1.657 -34.793  1.00  0.00    -0.333 N 
HETATM    7  C   UNL     1      -8.826   2.394 -34.556  1.00  0.00     0.142 C 
HETATM    8  H   UNL     1     -11.730   1.859 -32.089  1.00  0.00     0.167 HD
HETATM    9  H   UNL     1     -10.131   1.105 -35.640  1.00  0.00     0.165 HD
ENDROOT
BRANCH   7  10
HETATM   10  C   UNL     1      -7.692   1.408 -34.425  1.00  0.00     0.015 A 
HETATM   11  C   UNL     1      -6.357   1.623 -33.958  1.00  0.00     0.097 A 
HETATM   12  N   UNL     1      -5.665   0.476 -33.920  1.00  0.00    -0.167 NA
HETATM   13  N   UNL     1      -6.503  -0.482 -34.371  1.00  0.00    -0.244 N 
HETATM   14  C   UNL     1      -7.707   0.060 -34.748  1.00  0.00     0.130 A 
BRANCH  11  15
HETATM   15  C   UNL     1      -5.722   2.860 -33.506  1.00  0.00    -0.005 A 
HETATM   16  C   UNL     1      -5.706   3.979 -34.353  1.00  0.00     0.014 A 
HETATM   17  C   UNL     1      -5.092   5.166 -33.949  1.00  0.00     0.001 A 
HETATM   18  C   UNL     1      -4.491   5.247 -32.695  1.00  0.00     0.000 A 
HETATM   19  C   UNL     1      -4.512   4.145 -31.841  1.00  0.00     0.001 A 
HETATM   20  C   UNL     1      -5.131   2.957 -32.241  1.00  0.00     0.014 A 
ENDBRANCH  11  15
BRANCH  13  21
HETATM   21  C   UNL     1      -6.115  -1.851 -34.394  1.00  0.00     0.058 A 
HETATM   22  C   UNL     1      -7.076  -2.835 -34.673  1.00  0.00     0.031 A 
HETATM   23  C   UNL     1      -6.708  -4.182 -34.727  1.00  0.00     0.002 A 
HETATM   24  C   UNL     1      -5.386  -4.556 -34.500  1.00  0.00     0.000 A 
HETATM   25  C   UNL     1      -4.428  -3.586 -34.217  1.00  0.00     0.002 A 
HETATM   26  C   UNL     1      -4.785  -2.235 -34.164  1.00  0.00     0.031 A 
ENDBRANCH  13  21
ENDBRANCH   7  10
BRANCH   1  27
HETATM   27  C   UNL     1      -9.543   4.659 -34.019  1.00  0.00     0.270 C 
HETATM   28  O   UNL     1      -8.829   5.493 -34.564  1.00  0.00    -0.265 OA
BRANCH  27  29
HETATM   29  O   UNL     1     -10.901   4.726 -33.977  1.00  0.00    -0.321 OA
BRANCH  29  30
HETATM   30  C   UNL     1     -11.584   4.920 -35.226  1.00  0.00     0.174 C 
HETATM   31  C   UNL     1     -12.355   6.225 -35.178  1.00  0.00     0.034 C 
ENDBRANCH  29  30
ENDBRANCH  27  29
ENDBRANCH   1  27
BRANCH   2  32
HETATM   32  C   UNL     1      -8.983   1.843 -31.354  1.00  0.00     0.439 C 
HETATM   33  F   UNL     1      -7.703   2.262 -31.240  1.00  0.00    -0.166 F 
HETATM   34  F   UNL     1      -9.504   1.785 -30.100  1.00  0.00    -0.166 F 
HETATM   35  F   UNL     1      -8.963   0.572 -31.807  1.00  0.00    -0.166 F 
ENDBRANCH   2  32
BRANCH   2  36
HETATM   36  O   UNL     1     -10.344   3.864 -31.445  1.00  0.00    -0.363 OA
HETATM   37  H   UNL     1      -9.571   4.430 -31.259  1.00  0.00     0.213 HD
ENDBRANCH   2  36
TORSDOF 8
ENDMDL
MODEL 7
REMARK VINA RESULT:      -8.5      3.060      6.613
REMARK  8 active torsions:
REMARK  status: ('A' for Active; 'I' for Inactive)
REMARK    1  A    between atoms: C_2  and  O_3 
REMARK    2  A    between atoms: O_3  and  C_4 
REMARK    3  A    between atoms: C_4  and  C_5 
REMARK    4  A    between atoms: C_6  and  C_8 
REMARK    5  A    between atoms: C_6  and  O_7 
REMARK    6  A    between atoms: C_16  and  C_17 
REMARK    7  A    between atoms: C_18  and  C_19 
REMARK    8  A    between atoms: N_26  and  C_27 
ROOT
HETATM    1  C   UNL     1      -7.209   2.435 -32.021  1.00  0.00     0.177 C 
HETATM    2  C   UNL     1      -7.778   3.823 -32.358  1.00  0.00     0.250 C 
HETATM    3  N   UNL     1      -8.232   4.517 -31.173  1.00  0.00    -0.303 N 
HETATM    4  C   UNL     1      -7.598   4.439 -29.982  1.00  0.00     0.319 C 
HETATM    5  O   UNL     1      -7.818   5.244 -29.088  1.00  0.00    -0.247 OA
HETATM    6  N   UNL     1      -6.754   3.400 -29.804  1.00  0.00    -0.333 N 
HETATM    7  C   UNL     1      -6.262   2.486 -30.823  1.00  0.00     0.142 C 
HETATM    8  H   UNL     1      -8.760   5.375 -31.296  1.00  0.00     0.167 HD
HETATM    9  H   UNL     1      -6.313   3.383 -28.891  1.00  0.00     0.165 HD
ENDROOT
BRANCH   7  10
HETATM   10  C   UNL     1      -4.826   2.833 -31.127  1.00  0.00     0.015 A 
HETATM   11  C   UNL     1      -3.799   2.014 -31.695  1.00  0.00     0.097 A 
HETATM   12  N   UNL     1      -2.669   2.710 -31.878  1.00  0.00    -0.167 NA
HETATM   13  N   UNL     1      -2.919   3.957 -31.426  1.00  0.00    -0.244 N 
HETATM   14  C   UNL     1      -4.186   4.043 -30.904  1.00  0.00     0.130 A 
BRANCH  11  15
HETATM   15  C   UNL     1      -3.856   0.613 -32.108  1.00  0.00    -0.005 A 
HETATM   16  C   UNL     1      -4.664   0.244 -33.194  1.00  0.00     0.014 A 
HETATM   17  C   UNL     1      -4.746  -1.091 -33.597  1.00  0.00     0.001 A 
HETATM   18  C   UNL     1      -4.019  -2.067 -32.920  1.00  0.00     0.000 A 
HETATM   19  C   UNL     1      -3.204  -1.710 -31.847  1.00  0.00     0.001 A 
HETATM   20  C   UNL     1      -3.116  -0.374 -31.445  1.00  0.00     0.014 A 
ENDBRANCH  11  15
BRANCH  13  21
HETATM   21  C   UNL     1      -1.948   4.992 -31.538  1.00  0.00     0.058 A 
HETATM   22  C   UNL     1      -0.816   4.967 -30.710  1.00  0.00     0.031 A 
HETATM   23  C   UNL     1       0.161   5.959 -30.825  1.00  0.00     0.002 A 
HETATM   24  C   UNL     1       0.014   6.982 -31.759  1.00  0.00     0.000 A 
HETATM   25  C   UNL     1      -1.110   7.016 -32.581  1.00  0.00     0.002 A 
HETATM   26  C   UNL     1      -2.091   6.026 -32.476  1.00  0.00     0.031 A 
ENDBRANCH  13  21
ENDBRANCH   7  10
BRANCH   1  27
HETATM   27  C   UNL     1      -8.252   1.383 -31.692  1.00  0.00     0.270 C 
HETATM   28  O   UNL     1      -9.173   1.590 -30.910  1.00  0.00    -0.265 OA
BRANCH  27  29
HETATM   29  O   UNL     1      -8.105   0.241 -32.414  1.00  0.00    -0.321 OA
BRANCH  29  30
HETATM   30  C   UNL     1      -8.907   0.109 -33.599  1.00  0.00     0.174 C 
HETATM   31  C   UNL     1      -8.024   0.256 -34.822  1.00  0.00     0.034 C 
ENDBRANCH  29  30
ENDBRANCH  27  29
ENDBRANCH   1  27
BRANCH   2  32
HETATM   32  C   UNL     1      -6.743   4.680 -33.176  1.00  0.00     0.439 C 
HETATM   33  F   UNL     1      -6.082   5.560 -32.391  1.00  0.00    -0.166 F 
HETATM   34  F   UNL     1      -5.812   3.877 -33.757  1.00  0.00    -0.166 F 
HETATM   35  F   UNL     1      -7.316   5.372 -34.182  1.00  0.00    -0.166 F 
ENDBRANCH   2  32
BRANCH   2  36
HETATM   36  O   UNL     1      -8.967   3.679 -33.149  1.00  0.00    -0.363 OA
HETATM   37  H   UNL     1      -9.251   2.755 -33.010  1.00  0.00     0.213 HD
ENDBRANCH   2  36
TORSDOF 8
ENDMDL
MODEL 8
REMARK VINA RESULT:      -8.4      3.223      6.672
REMARK  8 active torsions:
REMARK  status: ('A' for Active; 'I' for Inactive)
REMARK    1  A    between atoms: C_2  and  O_3 
REMARK    2  A    between atoms: O_3  and  C_4 
REMARK    3  A    between atoms: C_4  and  C_5 
REMARK    4  A    between atoms: C_6  and  C_8 
REMARK    5  A    between atoms: C_6  and  O_7 
REMARK    6  A    between atoms: C_16  and  C_17 
REMARK    7  A    between atoms: C_18  and  C_19 
REMARK    8  A    between atoms: N_26  and  C_27 
ROOT
HETATM    1  C   UNL     1      -8.179   3.847 -31.494  1.00  0.00     0.177 C 
HETATM    2  C   UNL     1      -8.429   5.352 -31.306  1.00  0.00     0.250 C 
HETATM    3  N   UNL     1      -8.382   5.731 -29.910  1.00  0.00    -0.303 N 
HETATM    4  C   UNL     1      -7.521   5.184 -29.024  1.00  0.00     0.319 C 
HETATM    5  O   UNL     1      -7.298   5.711 -27.943  1.00  0.00    -0.247 OA
HETATM    6  N   UNL     1      -6.961   4.003 -29.362  1.00  0.00    -0.333 N 
HETATM    7  C   UNL     1      -6.989   3.362 -30.667  1.00  0.00     0.142 C 
HETATM    8  H   UNL     1      -8.681   6.669 -29.661  1.00  0.00     0.167 HD
HETATM    9  H   UNL     1      -6.332   3.633 -28.658  1.00  0.00     0.165 HD
ENDROOT
BRANCH   7  10
HETATM   10  C   UNL     1      -5.631   3.513 -31.306  1.00  0.00     0.015 A 
HETATM   11  C   UNL     1      -5.057   2.780 -32.393  1.00  0.00     0.097 A 
HETATM   12  N   UNL     1      -3.851   3.263 -32.721  1.00  0.00    -0.167 NA
HETATM   13  N   UNL     1      -3.609   4.278 -31.865  1.00  0.00    -0.244 N 
HETATM   14  C   UNL     1      -4.631   4.407 -30.957  1.00  0.00     0.130 A 
BRANCH  11  15
HETATM   15  C   UNL     1      -5.620   1.670 -33.159  1.00  0.00    -0.005 A 
HETATM   16  C   UNL     1      -5.272   0.352 -32.827  1.00  0.00     0.014 A 
HETATM   17  C   UNL     1      -5.785  -0.724 -33.556  1.00  0.00     0.001 A 
HETATM   18  C   UNL     1      -6.652  -0.491 -34.621  1.00  0.00     0.000 A 
HETATM   19  C   UNL     1      -7.013   0.814 -34.952  1.00  0.00     0.001 A 
HETATM   20  C   UNL     1      -6.505   1.892 -34.221  1.00  0.00     0.014 A 
ENDBRANCH  11  15
BRANCH  13  21
HETATM   21  C   UNL     1      -2.433   5.073 -31.976  1.00  0.00     0.058 A 
HETATM   22  C   UNL     1      -2.406   6.138 -32.889  1.00  0.00     0.031 A 
HETATM   23  C   UNL     1      -1.272   6.947 -32.994  1.00  0.00     0.002 A 
HETATM   24  C   UNL     1      -0.158   6.697 -32.195  1.00  0.00     0.000 A 
HETATM   25  C   UNL     1      -0.176   5.638 -31.290  1.00  0.00     0.002 A 
HETATM   26  C   UNL     1      -1.308   4.826 -31.176  1.00  0.00     0.031 A 
ENDBRANCH  13  21
ENDBRANCH   7  10
BRANCH   1  27
HETATM   27  C   UNL     1      -9.348   2.956 -31.118  1.00  0.00     0.270 C 
HETATM   28  O   UNL     1     -10.003   3.126 -30.096  1.00  0.00    -0.265 OA
BRANCH  27  29
HETATM   29  O   UNL     1      -9.637   2.025 -32.066  1.00  0.00    -0.321 OA
BRANCH  29  30
HETATM   30  C   UNL     1      -9.129   0.698 -31.854  1.00  0.00     0.174 C 
HETATM   31  C   UNL     1      -9.900  -0.278 -32.721  1.00  0.00     0.034 C 
ENDBRANCH  29  30
ENDBRANCH  27  29
ENDBRANCH   1  27
BRANCH   2  32
HETATM   32  C   UNL     1      -7.437   6.209 -32.176  1.00  0.00     0.439 C 
HETATM   33  F   UNL     1      -6.911   5.492 -33.195  1.00  0.00    -0.166 F 
HETATM   34  F   UNL     1      -8.079   7.276 -32.721  1.00  0.00    -0.166 F 
HETATM   35  F   UNL     1      -6.415   6.717 -31.458  1.00  0.00    -0.166 F 
ENDBRANCH   2  32
BRANCH   2  36
HETATM   36  O   UNL     1      -9.769   5.673 -31.705  1.00  0.00    -0.363 OA
HETATM   37  H   UNL     1     -10.120   6.230 -30.984  1.00  0.00     0.213 HD
ENDBRANCH   2  36
TORSDOF 8
ENDMDL
MODEL 9
REMARK VINA RESULT:      -8.2     15.982     17.745
REMARK  8 active torsions:
REMARK  status: ('A' for Active; 'I' for Inactive)
REMARK    1  A    between atoms: C_2  and  O_3 
REMARK    2  A    between atoms: O_3  and  C_4 
REMARK    3  A    between atoms: C_4  and  C_5 
REMARK    4  A    between atoms: C_6  and  C_8 
REMARK    5  A    between atoms: C_6  and  O_7 
REMARK    6  A    between atoms: C_16  and  C_17 
REMARK    7  A    between atoms: C_18  and  C_19 
REMARK    8  A    between atoms: N_26  and  C_27 
ROOT
HETATM    1  C   UNL     1      -4.182 -13.521 -37.919  1.00  0.00     0.177 C 
HETATM    2  C   UNL     1      -3.971 -12.594 -39.127  1.00  0.00     0.250 C 
HETATM    3  N   UNL     1      -3.191 -13.237 -40.164  1.00  0.00    -0.303 N 
HETATM    4  C   UNL     1      -3.304 -14.548 -40.468  1.00  0.00     0.319 C 
HETATM    5  O   UNL     1      -2.864 -15.000 -41.516  1.00  0.00    -0.247 OA
HETATM    6  N   UNL     1      -3.873 -15.347 -39.540  1.00  0.00    -0.333 N 
HETATM    7  C   UNL     1      -4.594 -14.928 -38.349  1.00  0.00     0.142 C 
HETATM    8  H   UNL     1      -2.867 -12.666 -40.938  1.00  0.00     0.167 HD
HETATM    9  H   UNL     1      -3.923 -16.321 -39.815  1.00  0.00     0.165 HD
ENDROOT
BRANCH   7  10
HETATM   10  C   UNL     1      -6.070 -15.145 -38.580  1.00  0.00     0.015 A 
HETATM   11  C   UNL     1      -7.148 -15.101 -37.639  1.00  0.00     0.097 A 
HETATM   12  N   UNL     1      -8.329 -15.274 -38.247  1.00  0.00    -0.167 NA
HETATM   13  N   UNL     1      -8.054 -15.452 -39.557  1.00  0.00    -0.244 N 
HETATM   14  C   UNL     1      -6.699 -15.449 -39.777  1.00  0.00     0.130 A 
BRANCH  11  15
HETATM   15  C   UNL     1      -7.109 -14.861 -36.198  1.00  0.00    -0.005 A 
HETATM   16  C   UNL     1      -7.159 -13.546 -35.713  1.00  0.00     0.014 A 
HETATM   17  C   UNL     1      -7.107 -13.292 -34.341  1.00  0.00     0.001 A 
HETATM   18  C   UNL     1      -7.009 -14.350 -33.442  1.00  0.00     0.000 A 
HETATM   19  C   UNL     1      -6.970 -15.662 -33.912  1.00  0.00     0.001 A 
HETATM   20  C   UNL     1      -7.027 -15.919 -35.285  1.00  0.00     0.014 A 
ENDBRANCH  11  15
BRANCH  13  21
HETATM   21  C   UNL     1      -9.095 -15.592 -40.518  1.00  0.00     0.058 A 
HETATM   22  C   UNL     1     -10.251 -14.805 -40.401  1.00  0.00     0.031 A 
HETATM   23  C   UNL     1     -11.272 -14.909 -41.349  1.00  0.00     0.002 A 
HETATM   24  C   UNL     1     -11.149 -15.798 -42.415  1.00  0.00     0.000 A 
HETATM   25  C   UNL     1     -10.007 -16.586 -42.535  1.00  0.00     0.002 A 
HETATM   26  C   UNL     1      -8.979 -16.487 -41.592  1.00  0.00     0.031 A 
ENDBRANCH  13  21
ENDBRANCH   7  10
BRANCH   1  27
HETATM   27  C   UNL     1      -2.965 -13.691 -37.028  1.00  0.00     0.270 C 
HETATM   28  O   UNL     1      -3.050 -14.043 -35.857  1.00  0.00    -0.265 OA
BRANCH  27  29
HETATM   29  O   UNL     1      -1.791 -13.499 -37.686  1.00  0.00    -0.321 OA
BRANCH  29  30
HETATM   30  C   UNL     1      -0.822 -14.559 -37.615  1.00  0.00     0.174 C 
HETATM   31  C   UNL     1       0.223 -14.356 -38.695  1.00  0.00     0.034 C 
ENDBRANCH  29  30
ENDBRANCH  27  29
ENDBRANCH   1  27
BRANCH   2  32
HETATM   32  C   UNL     1      -5.342 -12.055 -39.678  1.00  0.00     0.439 C 
HETATM   33  F   UNL     1      -6.275 -11.958 -38.704  1.00  0.00    -0.166 F 
HETATM   34  F   UNL     1      -5.186 -10.816 -40.214  1.00  0.00    -0.166 F 
HETATM   35  F   UNL     1      -5.849 -12.825 -40.663  1.00  0.00    -0.166 F 
ENDBRANCH   2  32
BRANCH   2  36
HETATM   36  O   UNL     1      -3.168 -11.470 -38.739  1.00  0.00    -0.363 OA
HETATM   37  H   UNL     1      -3.797 -10.728 -38.659  1.00  0.00     0.213 HD
ENDBRANCH   2  36
TORSDOF 8
ENDMDL
MODEL 10
REMARK VINA RESULT:      -8.1      2.515      5.659
REMARK  8 active torsions:
REMARK  status: ('A' for Active; 'I' for Inactive)
REMARK    1  A    between atoms: C_2  and  O_3 
REMARK    2  A    between atoms: O_3  and  C_4 
REMARK    3  A    between atoms: C_4  and  C_5 
REMARK    4  A    between atoms: C_6  and  C_8 
REMARK    5  A    between atoms: C_6  and  O_7 
REMARK    6  A    between atoms: C_16  and  C_17 
REMARK    7  A    between atoms: C_18  and  C_19 
REMARK    8  A    between atoms: N_26  and  C_27 
ROOT
HETATM    1  C   UNL     1      -8.327   2.889 -32.492  1.00  0.00     0.177 C 
HETATM    2  C   UNL     1      -9.477   2.054 -31.906  1.00  0.00     0.250 C 
HETATM    3  N   UNL     1     -10.532   1.845 -32.875  1.00  0.00    -0.303 N 
HETATM    4  C   UNL     1     -10.299   1.645 -34.190  1.00  0.00     0.319 C 
HETATM    5  O   UNL     1     -11.160   1.187 -34.929  1.00  0.00    -0.247 OA
HETATM    6  N   UNL     1      -9.092   2.024 -34.664  1.00  0.00    -0.333 N 
HETATM    7  C   UNL     1      -7.926   2.405 -33.884  1.00  0.00     0.142 C 
HETATM    8  H   UNL     1     -11.403   1.437 -32.549  1.00  0.00     0.167 HD
HETATM    9  H   UNL     1      -8.974   1.860 -35.658  1.00  0.00     0.165 HD
ENDROOT
BRANCH   7  10
HETATM   10  C   UNL     1      -6.927   1.274 -33.930  1.00  0.00     0.015 A 
HETATM   11  C   UNL     1      -5.562   1.257 -33.502  1.00  0.00     0.097 A 
HETATM   12  N   UNL     1      -5.025   0.037 -33.641  1.00  0.00    -0.167 NA
HETATM   13  N   UNL     1      -5.994  -0.741 -34.169  1.00  0.00    -0.244 N 
HETATM   14  C   UNL     1      -7.128  -0.007 -34.419  1.00  0.00     0.130 A 
BRANCH  11  15
HETATM   15  C   UNL     1      -4.758   2.335 -32.929  1.00  0.00    -0.005 A 
HETATM   16  C   UNL     1      -4.800   3.613 -33.507  1.00  0.00     0.014 A 
HETATM   17  C   UNL     1      -4.028   4.653 -32.986  1.00  0.00     0.001 A 
HETATM   18  C   UNL     1      -3.210   4.427 -31.882  1.00  0.00     0.000 A 
HETATM   19  C   UNL     1      -3.169   3.164 -31.293  1.00  0.00     0.001 A 
HETATM   20  C   UNL     1      -3.945   2.122 -31.809  1.00  0.00     0.014 A 
ENDBRANCH  11  15
BRANCH  13  21
HETATM   21  C   UNL     1      -5.790  -2.133 -34.382  1.00  0.00     0.058 A 
HETATM   22  C   UNL     1      -4.520  -2.686 -34.154  1.00  0.00     0.031 A 
HETATM   23  C   UNL     1      -4.307  -4.055 -34.332  1.00  0.00     0.002 A 
HETATM   24  C   UNL     1      -5.353  -4.879 -34.741  1.00  0.00     0.000 A 
HETATM   25  C   UNL     1      -6.614  -4.337 -34.974  1.00  0.00     0.002 A 
HETATM   26  C   UNL     1      -6.838  -2.968 -34.797  1.00  0.00     0.031 A 
ENDBRANCH  13  21
ENDBRANCH   7  10
BRANCH   1  27
HETATM   27  C   UNL     1      -8.622   4.371 -32.629  1.00  0.00     0.270 C 
HETATM   28  O   UNL     1      -9.298   4.827 -33.543  1.00  0.00    -0.265 OA
BRANCH  27  29
HETATM   29  O   UNL     1      -8.138   5.110 -31.594  1.00  0.00    -0.321 OA
BRANCH  29  30
HETATM   30  C   UNL     1      -7.061   4.540 -30.832  1.00  0.00     0.174 C 
HETATM   31  C   UNL     1      -6.337   5.642 -30.084  1.00  0.00     0.034 C 
ENDBRANCH  29  30
ENDBRANCH  27  29
ENDBRANCH   1  27
BRANCH   2  32
HETATM   32  C   UNL     1      -8.952   0.696 -31.313  1.00  0.00     0.439 C 
HETATM   33  F   UNL     1      -9.610   0.349 -30.184  1.00  0.00    -0.166 F 
HETATM   34  F   UNL     1      -9.122  -0.313 -32.208  1.00  0.00    -0.166 F 
HETATM   35  F   UNL     1      -7.633   0.724 -31.031  1.00  0.00    -0.166 F 
ENDBRANCH   2  32
BRANCH   2  36
HETATM   36  O   UNL     1     -10.118   2.788 -30.852  1.00  0.00    -0.363 OA
HETATM   37  H   UNL     1     -10.632   3.483 -31.305  1.00  0.00     0.213 HD
ENDBRANCH   2  36
TORSDOF 8
ENDMDL
