MODEL 1
REMARK VINA RESULT:      -8.7      0.000      0.000
REMARK  10 active torsions:
REMARK  status: ('A' for Active; 'I' for Inactive)
REMARK    1  A    between atoms: C_4  and  C_5 
REMARK    2  A    between atoms: C_7  and  C_8 
REMARK    3  A    between atoms: C_8  and  C_9 
REMARK       I    between atoms: C_9  and  N_10 
REMARK    4  A    between atoms: N_10  and  C_11 
REMARK    5  A    between atoms: C_11  and  C_12 
REMARK    6  A    between atoms: C_12  and  N_13 
REMARK    7  A    between atoms: C_24  and  C_25 
REMARK    8  A    between atoms: C_25  and  O_26 
REMARK    9  A    between atoms: O_26  and  C_27 
REMARK   10  A    between atoms: C_27  and  C_28 
ROOT
HETATM    1  C   UNL     1      -4.908   3.239 -32.057  1.00  0.00     0.166 C 
HETATM    2  N   UNL     1      -3.981   4.090 -32.830  1.00  0.00    -0.318 N 
HETATM    3  C   UNL     1      -2.763   4.506 -32.715  1.00  0.00     0.011 C 
HETATM    4  C   UNL     1      -4.671   4.724 -34.065  1.00  0.00     0.170 C 
HETATM    5  S   UNL     1      -3.501   5.310 -35.197  1.00  0.00    -0.086 SA
HETATM    6  C   UNL     1      -2.252   5.347 -33.868  1.00  0.00     0.135 C 
HETATM    7  N   UNL     1      -5.935   4.959 -34.144  1.00  0.00    -0.229 NA
HETATM    8  C   UNL     1      -6.668   4.771 -32.983  1.00  0.00     0.048 C 
HETATM    9  C   UNL     1      -7.943   5.580 -32.941  1.00  0.00     0.071 C 
HETATM   10  C   UNL     1      -6.194   4.034 -31.953  1.00  0.00     0.069 C 
ENDROOT
BRANCH   3  11
HETATM   11  C   UNL     1      -1.923   4.232 -31.501  1.00  0.00     0.156 C 
BRANCH  11  12
HETATM   12  C   UNL     1      -1.377   5.489 -30.852  1.00  0.00     0.223 C 
HETATM   13  N   UNL     1      -2.291   6.197 -30.116  1.00  0.00    -0.359 N 
HETATM   14  H   UNL     1      -3.262   5.896 -30.160  1.00  0.00     0.162 HD
HETATM   15  O   UNL     1      -0.207   5.832 -30.995  1.00  0.00    -0.273 OA
BRANCH  13  16
HETATM   16  C   UNL     1      -2.118   7.547 -29.569  1.00  0.00     0.150 C 
BRANCH  16  17
HETATM   17  C   UNL     1      -2.032   7.715 -28.036  1.00  0.00     0.253 C 
BRANCH  17  18
HETATM   18  N   UNL     1      -1.515   6.481 -27.323  1.00  0.00    -0.077 N 
HETATM   19  H   UNL     1      -1.922   5.668 -27.825  1.00  0.00     0.279 HD
HETATM   20  C   UNL     1      -0.019   6.327 -27.352  1.00  0.00     0.269 C 
HETATM   21  C   UNL     1      -2.029   6.409 -25.910  1.00  0.00     0.269 C 
ENDBRANCH  17  18
ENDBRANCH  16  17
ENDBRANCH  13  16
ENDBRANCH  11  12
ENDBRANCH   3  11
BRANCH   1  22
HETATM   22  C   UNL     1      -5.110   1.826 -32.677  1.00  0.00    -0.024 A 
HETATM   23  C   UNL     1      -6.135   1.664 -33.651  1.00  0.00     0.017 A 
HETATM   24  C   UNL     1      -6.410   0.445 -34.287  1.00  0.00    -0.061 A 
HETATM   25  C   UNL     1      -7.486   0.352 -35.333  1.00  0.00     0.048 C 
HETATM   26  C   UNL     1      -5.638  -0.662 -33.975  1.00  0.00     0.007 A 
HETATM   27  C   UNL     1      -4.659  -0.562 -32.995  1.00  0.00     0.008 A 
HETATM   28  C   UNL     1      -4.404   0.648 -32.310  1.00  0.00    -0.053 A 
HETATM   29  C   UNL     1      -3.373   0.540 -31.220  1.00  0.00     0.049 C 
ENDBRANCH   1  22
BRANCH  10  30
HETATM   30  C   UNL     1      -6.777   4.061 -30.601  1.00  0.00     0.294 C 
HETATM   31  O   UNL     1      -6.515   4.978 -29.839  1.00  0.00    -0.259 OA
BRANCH  30  32
HETATM   32  O   UNL     1      -7.512   2.962 -30.364  1.00  0.00    -0.313 OA
BRANCH  32  33
HETATM   33  C   UNL     1      -8.940   3.116 -30.456  1.00  0.00     0.217 C 
BRANCH  33  34
HETATM   34  C   UNL     1      -9.496   2.228 -31.538  1.00  0.00    -0.034 A 
HETATM   35  C   UNL     1      -9.155   0.869 -31.603  1.00  0.00     0.009 A 
HETATM   36  C   UNL     1      -9.698   0.045 -32.590  1.00  0.00     0.001 A 
HETATM   37  C   UNL     1     -10.598   0.566 -33.516  1.00  0.00     0.000 A 
HETATM   38  C   UNL     1     -10.952   1.912 -33.459  1.00  0.00     0.001 A 
HETATM   39  C   UNL     1     -10.403   2.741 -32.478  1.00  0.00     0.009 A 
ENDBRANCH  33  34
ENDBRANCH  32  33
ENDBRANCH  30  32
ENDBRANCH  10  30
TORSDOF 10
ENDMDL
MODEL 2
REMARK VINA RESULT:      -8.3      3.172      8.536
REMARK  10 active torsions:
REMARK  status: ('A' for Active; 'I' for Inactive)
REMARK    1  A    between atoms: C_4  and  C_5 
REMARK    2  A    between atoms: C_7  and  C_8 
REMARK    3  A    between atoms: C_8  and  C_9 
REMARK       I    between atoms: C_9  and  N_10 
REMARK    4  A    between atoms: N_10  and  C_11 
REMARK    5  A    between atoms: C_11  and  C_12 
REMARK    6  A    between atoms: C_12  and  N_13 
REMARK    7  A    between atoms: C_24  and  C_25 
REMARK    8  A    between atoms: C_25  and  O_26 
REMARK    9  A    between atoms: O_26  and  C_27 
REMARK   10  A    between atoms: C_27  and  C_28 
ROOT
HETATM    1  C   UNL     1      -6.354   2.908 -33.534  1.00  0.00     0.166 C 
HETATM    2  N   UNL     1      -7.636   3.177 -32.852  1.00  0.00    -0.318 N 
HETATM    3  C   UNL     1      -8.864   3.387 -33.199  1.00  0.00     0.011 C 
HETATM    4  C   UNL     1      -7.456   3.334 -31.321  1.00  0.00     0.170 C 
HETATM    5  S   UNL     1      -8.969   3.173 -30.498  1.00  0.00    -0.086 SA
HETATM    6  C   UNL     1      -9.842   3.557 -32.053  1.00  0.00     0.135 C 
HETATM    7  N   UNL     1      -6.365   3.726 -30.760  1.00  0.00    -0.229 NA
HETATM    8  C   UNL     1      -5.366   4.178 -31.607  1.00  0.00     0.048 C 
HETATM    9  C   UNL     1      -4.403   5.134 -30.943  1.00  0.00     0.071 C 
HETATM   10  C   UNL     1      -5.362   3.879 -32.926  1.00  0.00     0.069 C 
ENDROOT
BRANCH   3  11
HETATM   11  C   UNL     1      -9.292   3.516 -34.632  1.00  0.00     0.156 C 
BRANCH  11  12
HETATM   12  C   UNL     1     -10.785   3.348 -34.831  1.00  0.00     0.223 C 
HETATM   13  N   UNL     1     -11.220   2.048 -34.836  1.00  0.00    -0.359 N 
HETATM   14  H   UNL     1     -10.512   1.317 -34.826  1.00  0.00     0.162 HD
HETATM   15  O   UNL     1     -11.528   4.314 -34.981  1.00  0.00    -0.273 OA
BRANCH  13  16
HETATM   16  C   UNL     1     -12.552   1.572 -35.226  1.00  0.00     0.150 C 
BRANCH  16  17
HETATM   17  C   UNL     1     -13.515   1.093 -34.118  1.00  0.00     0.253 C 
BRANCH  17  18
HETATM   18  N   UNL     1     -14.414   2.192 -33.585  1.00  0.00    -0.077 N 
HETATM   19  H   UNL     1     -14.588   2.834 -34.383  1.00  0.00     0.279 HD
HETATM   20  C   UNL     1     -15.751   1.715 -33.088  1.00  0.00     0.269 C 
HETATM   21  C   UNL     1     -13.715   3.007 -32.529  1.00  0.00     0.269 C 
ENDBRANCH  17  18
ENDBRANCH  16  17
ENDBRANCH  13  16
ENDBRANCH  11  12
ENDBRANCH   3  11
BRANCH   1  22
HETATM   22  C   UNL     1      -5.900   1.423 -33.429  1.00  0.00    -0.024 A 
HETATM   23  C   UNL     1      -4.807   1.118 -32.569  1.00  0.00     0.017 A 
HETATM   24  C   UNL     1      -4.310  -0.180 -32.384  1.00  0.00    -0.061 A 
HETATM   25  C   UNL     1      -3.175  -0.437 -31.433  1.00  0.00     0.048 C 
HETATM   26  C   UNL     1      -4.918  -1.231 -33.051  1.00  0.00     0.007 A 
HETATM   27  C   UNL     1      -5.956  -0.974 -33.938  1.00  0.00     0.008 A 
HETATM   28  C   UNL     1      -6.434   0.335 -34.172  1.00  0.00    -0.053 A 
HETATM   29  C   UNL     1      -7.496   0.428 -35.232  1.00  0.00     0.049 C 
ENDBRANCH   1  22
BRANCH  10  30
HETATM   30  C   UNL     1      -4.521   4.578 -33.913  1.00  0.00     0.294 C 
HETATM   31  O   UNL     1      -5.016   5.405 -34.663  1.00  0.00    -0.259 OA
BRANCH  30  32
HETATM   32  O   UNL     1      -3.257   4.125 -33.886  1.00  0.00    -0.313 OA
BRANCH  32  33
HETATM   33  C   UNL     1      -2.249   5.012 -34.402  1.00  0.00     0.217 C 
BRANCH  33  34
HETATM   34  C   UNL     1      -1.642   5.824 -33.288  1.00  0.00    -0.034 A 
HETATM   35  C   UNL     1      -1.920   7.193 -33.159  1.00  0.00     0.009 A 
HETATM   36  C   UNL     1      -1.378   7.933 -32.106  1.00  0.00     0.001 A 
HETATM   37  C   UNL     1      -0.563   7.311 -31.164  1.00  0.00     0.000 A 
HETATM   38  C   UNL     1      -0.284   5.951 -31.275  1.00  0.00     0.001 A 
HETATM   39  C   UNL     1      -0.818   5.211 -32.333  1.00  0.00     0.009 A 
ENDBRANCH  33  34
ENDBRANCH  32  33
ENDBRANCH  30  32
ENDBRANCH  10  30
TORSDOF 10
ENDMDL
MODEL 3
REMARK VINA RESULT:      -8.0      2.927      8.689
REMARK  10 active torsions:
REMARK  status: ('A' for Active; 'I' for Inactive)
REMARK    1  A    between atoms: C_4  and  C_5 
REMARK    2  A    between atoms: C_7  and  C_8 
REMARK    3  A    between atoms: C_8  and  C_9 
REMARK       I    between atoms: C_9  and  N_10 
REMARK    4  A    between atoms: N_10  and  C_11 
REMARK    5  A    between atoms: C_11  and  C_12 
REMARK    6  A    between atoms: C_12  and  N_13 
REMARK    7  A    between atoms: C_24  and  C_25 
REMARK    8  A    between atoms: C_25  and  O_26 
REMARK    9  A    between atoms: O_26  and  C_27 
REMARK   10  A    between atoms: C_27  and  C_28 
ROOT
HETATM    1  C   UNL     1      -3.547   6.065 -30.085  1.00  0.00     0.166 C 
HETATM    2  N   UNL     1      -4.873   5.862 -30.702  1.00  0.00    -0.318 N 
HETATM    3  C   UNL     1      -5.855   5.030 -30.578  1.00  0.00     0.011 C 
HETATM    4  C   UNL     1      -5.129   6.856 -31.864  1.00  0.00     0.170 C 
HETATM    5  S   UNL     1      -6.812   6.935 -32.254  1.00  0.00    -0.086 SA
HETATM    6  C   UNL     1      -7.062   5.317 -31.448  1.00  0.00     0.135 C 
HETATM    7  N   UNL     1      -4.196   7.395 -32.570  1.00  0.00    -0.229 NA
HETATM    8  C   UNL     1      -2.912   6.918 -32.359  1.00  0.00     0.048 C 
HETATM    9  C   UNL     1      -1.996   7.117 -33.543  1.00  0.00     0.071 C 
HETATM   10  C   UNL     1      -2.583   6.228 -31.244  1.00  0.00     0.069 C 
ENDROOT
BRANCH   3  11
HETATM   11  C   UNL     1      -5.790   3.827 -29.684  1.00  0.00     0.156 C 
BRANCH  11  12
HETATM   12  C   UNL     1      -5.391   2.558 -30.411  1.00  0.00     0.223 C 
HETATM   13  N   UNL     1      -4.071   2.499 -30.776  1.00  0.00    -0.359 N 
HETATM   14  H   UNL     1      -3.509   3.336 -30.639  1.00  0.00     0.162 HD
HETATM   15  O   UNL     1      -6.203   1.670 -30.652  1.00  0.00    -0.273 OA
BRANCH  13  16
HETATM   16  C   UNL     1      -3.454   1.516 -31.673  1.00  0.00     0.150 C 
BRANCH  16  17
HETATM   17  C   UNL     1      -3.300   0.061 -31.179  1.00  0.00     0.253 C 
BRANCH  17  18
HETATM   18  N   UNL     1      -3.582  -0.973 -32.251  1.00  0.00    -0.077 N 
HETATM   19  H   UNL     1      -3.051  -0.668 -33.091  1.00  0.00     0.279 HD
HETATM   20  C   UNL     1      -3.126  -2.364 -31.908  1.00  0.00     0.269 C 
HETATM   21  C   UNL     1      -5.035  -0.972 -32.646  1.00  0.00     0.269 C 
ENDBRANCH  17  18
ENDBRANCH  16  17
ENDBRANCH  13  16
ENDBRANCH  11  12
ENDBRANCH   3  11
BRANCH   1  22
HETATM   22  C   UNL     1      -3.507   7.256 -29.084  1.00  0.00    -0.024 A 
HETATM   23  C   UNL     1      -2.797   8.428 -29.468  1.00  0.00     0.017 A 
HETATM   24  C   UNL     1      -2.695   9.569 -28.659  1.00  0.00    -0.061 A 
HETATM   25  C   UNL     1      -1.958  10.787 -29.141  1.00  0.00     0.048 C 
HETATM   26  C   UNL     1      -3.331   9.575 -27.428  1.00  0.00     0.007 A 
HETATM   27  C   UNL     1      -3.994   8.435 -26.992  1.00  0.00     0.008 A 
HETATM   28  C   UNL     1      -4.063   7.261 -27.775  1.00  0.00    -0.053 A 
HETATM   29  C   UNL     1      -4.741   6.102 -27.100  1.00  0.00     0.049 C 
ENDBRANCH   1  22
BRANCH  10  30
HETATM   30  C   UNL     1      -1.346   5.440 -31.113  1.00  0.00     0.294 C 
HETATM   31  O   UNL     1      -1.363   4.235 -31.312  1.00  0.00    -0.259 OA
BRANCH  30  32
HETATM   32  O   UNL     1      -0.321   6.205 -30.702  1.00  0.00    -0.313 OA
BRANCH  32  33
HETATM   33  C   UNL     1       0.396   5.744 -29.542  1.00  0.00     0.217 C 
BRANCH  33  34
HETATM   34  C   UNL     1       0.271   6.738 -28.417  1.00  0.00    -0.034 A 
HETATM   35  C   UNL     1      -0.449   6.425 -27.254  1.00  0.00     0.009 A 
HETATM   36  C   UNL     1      -0.535   7.339 -26.203  1.00  0.00     0.001 A 
HETATM   37  C   UNL     1       0.107   8.571 -26.296  1.00  0.00     0.000 A 
HETATM   38  C   UNL     1       0.831   8.893 -27.441  1.00  0.00     0.001 A 
HETATM   39  C   UNL     1       0.911   7.984 -28.498  1.00  0.00     0.009 A 
ENDBRANCH  33  34
ENDBRANCH  32  33
ENDBRANCH  30  32
ENDBRANCH  10  30
TORSDOF 10
ENDMDL
MODEL 4
REMARK VINA RESULT:      -8.0      2.766      5.330
REMARK  10 active torsions:
REMARK  status: ('A' for Active; 'I' for Inactive)
REMARK    1  A    between atoms: C_4  and  C_5 
REMARK    2  A    between atoms: C_7  and  C_8 
REMARK    3  A    between atoms: C_8  and  C_9 
REMARK       I    between atoms: C_9  and  N_10 
REMARK    4  A    between atoms: N_10  and  C_11 
REMARK    5  A    between atoms: C_11  and  C_12 
REMARK    6  A    between atoms: C_12  and  N_13 
REMARK    7  A    between atoms: C_24  and  C_25 
REMARK    8  A    between atoms: C_25  and  O_26 
REMARK    9  A    between atoms: O_26  and  C_27 
REMARK   10  A    between atoms: C_27  and  C_28 
ROOT
HETATM    1  C   UNL     1      -6.987   2.950 -32.583  1.00  0.00     0.166 C 
HETATM    2  N   UNL     1      -6.959   4.146 -31.717  1.00  0.00    -0.318 N 
HETATM    3  C   UNL     1      -6.629   5.390 -31.837  1.00  0.00     0.011 C 
HETATM    4  C   UNL     1      -7.349   3.812 -30.255  1.00  0.00     0.170 C 
HETATM    5  S   UNL     1      -7.770   5.244 -29.381  1.00  0.00    -0.086 SA
HETATM    6  C   UNL     1      -6.859   6.243 -30.605  1.00  0.00     0.135 C 
HETATM    7  N   UNL     1      -7.189   2.654 -29.713  1.00  0.00    -0.229 NA
HETATM    8  C   UNL     1      -6.480   1.722 -30.454  1.00  0.00     0.048 C 
HETATM    9  C   UNL     1      -5.826   0.654 -29.608  1.00  0.00     0.071 C 
HETATM   10  C   UNL     1      -6.300   1.859 -31.787  1.00  0.00     0.069 C 
ENDROOT
BRANCH   3  11
HETATM   11  C   UNL     1      -6.004   5.948 -33.082  1.00  0.00     0.156 C 
BRANCH  11  12
HETATM   12  C   UNL     1      -4.724   5.240 -33.482  1.00  0.00     0.223 C 
HETATM   13  N   UNL     1      -3.866   4.981 -32.445  1.00  0.00    -0.359 N 
HETATM   14  H   UNL     1      -4.095   5.378 -31.536  1.00  0.00     0.162 HD
HETATM   15  O   UNL     1      -4.492   4.938 -34.649  1.00  0.00    -0.273 OA
BRANCH  13  16
HETATM   16  C   UNL     1      -2.477   4.519 -32.552  1.00  0.00     0.150 C 
BRANCH  16  17
HETATM   17  C   UNL     1      -1.448   5.035 -31.522  1.00  0.00     0.253 C 
BRANCH  17  18
HETATM   18  N   UNL     1      -0.985   6.453 -31.791  1.00  0.00    -0.077 N 
HETATM   19  H   UNL     1      -1.693   7.075 -31.352  1.00  0.00     0.279 HD
HETATM   20  C   UNL     1       0.351   6.795 -31.191  1.00  0.00     0.269 C 
HETATM   21  C   UNL     1      -1.001   6.765 -33.263  1.00  0.00     0.269 C 
ENDBRANCH  17  18
ENDBRANCH  16  17
ENDBRANCH  13  16
ENDBRANCH  11  12
ENDBRANCH   3  11
BRANCH   1  22
HETATM   22  C   UNL     1      -8.421   2.559 -33.048  1.00  0.00    -0.024 A 
HETATM   23  C   UNL     1      -8.874   1.237 -32.773  1.00  0.00     0.017 A 
HETATM   24  C   UNL     1     -10.145   0.767 -33.134  1.00  0.00    -0.061 A 
HETATM   25  C   UNL     1     -10.573  -0.630 -32.782  1.00  0.00     0.048 C 
HETATM   26  C   UNL     1     -11.021   1.629 -33.772  1.00  0.00     0.007 A 
HETATM   27  C   UNL     1     -10.604   2.912 -34.104  1.00  0.00     0.008 A 
HETATM   28  C   UNL     1      -9.308   3.383 -33.791  1.00  0.00    -0.053 A 
HETATM   29  C   UNL     1      -9.007   4.761 -34.310  1.00  0.00     0.049 C 
ENDBRANCH   1  22
BRANCH  10  30
HETATM   30  C   UNL     1      -5.310   1.086 -32.556  1.00  0.00     0.294 C 
HETATM   31  O   UNL     1      -4.280   1.618 -32.939  1.00  0.00    -0.259 OA
BRANCH  30  32
HETATM   32  O   UNL     1      -5.745  -0.163 -32.796  1.00  0.00    -0.313 OA
BRANCH  32  33
HETATM   33  C   UNL     1      -5.935  -0.518 -34.177  1.00  0.00     0.217 C 
BRANCH  33  34
HETATM   34  C   UNL     1      -5.742  -2.000 -34.371  1.00  0.00    -0.034 A 
HETATM   35  C   UNL     1      -4.501  -2.604 -34.118  1.00  0.00     0.009 A 
HETATM   36  C   UNL     1      -4.336  -3.982 -34.270  1.00  0.00     0.001 A 
HETATM   37  C   UNL     1      -5.413  -4.774 -34.664  1.00  0.00     0.000 A 
HETATM   38  C   UNL     1      -6.652  -4.188 -34.911  1.00  0.00     0.001 A 
HETATM   39  C   UNL     1      -6.816  -2.808 -34.768  1.00  0.00     0.009 A 
ENDBRANCH  33  34
ENDBRANCH  32  33
ENDBRANCH  30  32
ENDBRANCH  10  30
TORSDOF 10
ENDMDL
MODEL 5
REMARK VINA RESULT:      -7.4      3.133      6.168
REMARK  10 active torsions:
REMARK  status: ('A' for Active; 'I' for Inactive)
REMARK    1  A    between atoms: C_4  and  C_5 
REMARK    2  A    between atoms: C_7  and  C_8 
REMARK    3  A    between atoms: C_8  and  C_9 
REMARK       I    between atoms: C_9  and  N_10 
REMARK    4  A    between atoms: N_10  and  C_11 
REMARK    5  A    between atoms: C_11  and  C_12 
REMARK    6  A    between atoms: C_12  and  N_13 
REMARK    7  A    between atoms: C_24  and  C_25 
REMARK    8  A    between atoms: C_25  and  O_26 
REMARK    9  A    between atoms: O_26  and  C_27 
REMARK   10  A    between atoms: C_27  and  C_28 
ROOT
HETATM    1  C   UNL     1      -8.618   3.177 -33.827  1.00  0.00     0.166 C 
HETATM    2  N   UNL     1      -8.298   4.011 -32.651  1.00  0.00    -0.318 N 
HETATM    3  C   UNL     1      -7.587   5.062 -32.404  1.00  0.00     0.011 C 
HETATM    4  C   UNL     1      -8.905   3.431 -31.348  1.00  0.00     0.170 C 
HETATM    5  S   UNL     1      -8.937   4.622 -30.094  1.00  0.00    -0.086 SA
HETATM    6  C   UNL     1      -7.652   5.569 -30.977  1.00  0.00     0.135 C 
HETATM    7  N   UNL     1      -9.163   2.182 -31.167  1.00  0.00    -0.229 NA
HETATM    8  C   UNL     1      -8.715   1.313 -32.149  1.00  0.00     0.048 C 
HETATM    9  C   UNL     1      -8.506  -0.098 -31.652  1.00  0.00     0.071 C 
HETATM   10  C   UNL     1      -8.380   1.747 -33.385  1.00  0.00     0.069 C 
ENDROOT
BRANCH   3  11
HETATM   11  C   UNL     1      -6.708   5.707 -33.436  1.00  0.00     0.156 C 
BRANCH  11  12
HETATM   12  C   UNL     1      -5.477   4.889 -33.774  1.00  0.00     0.223 C 
HETATM   13  N   UNL     1      -4.657   4.623 -32.708  1.00  0.00    -0.359 N 
HETATM   14  H   UNL     1      -4.870   5.083 -31.826  1.00  0.00     0.162 HD
HETATM   15  O   UNL     1      -5.249   4.511 -34.919  1.00  0.00    -0.273 OA
BRANCH  13  16
HETATM   16  C   UNL     1      -3.304   4.058 -32.765  1.00  0.00     0.150 C 
BRANCH  16  17
HETATM   17  C   UNL     1      -2.110   4.968 -32.402  1.00  0.00     0.253 C 
BRANCH  17  18
HETATM   18  N   UNL     1      -1.549   5.728 -33.588  1.00  0.00    -0.077 N 
HETATM   19  H   UNL     1      -0.526   5.801 -33.425  1.00  0.00     0.279 HD
HETATM   20  C   UNL     1      -1.748   5.046 -34.914  1.00  0.00     0.269 C 
HETATM   21  C   UNL     1      -2.073   7.139 -33.633  1.00  0.00     0.269 C 
ENDBRANCH  17  18
ENDBRANCH  16  17
ENDBRANCH  13  16
ENDBRANCH  11  12
ENDBRANCH   3  11
BRANCH   1  22
HETATM   22  C   UNL     1     -10.053   3.416 -34.381  1.00  0.00    -0.024 A 
HETATM   23  C   UNL     1     -10.958   2.318 -34.386  1.00  0.00     0.017 A 
HETATM   24  C   UNL     1     -12.278   2.408 -34.851  1.00  0.00    -0.061 A 
HETATM   25  C   UNL     1     -13.193   1.216 -34.795  1.00  0.00     0.048 C 
HETATM   26  C   UNL     1     -12.743   3.628 -35.314  1.00  0.00     0.007 A 
HETATM   27  C   UNL     1     -11.879   4.714 -35.374  1.00  0.00     0.008 A 
HETATM   28  C   UNL     1     -10.532   4.625 -34.955  1.00  0.00    -0.053 A 
HETATM   29  C   UNL     1      -9.727   5.874 -35.181  1.00  0.00     0.049 C 
ENDBRANCH   1  22
BRANCH  10  30
HETATM   30  C   UNL     1      -7.614   0.938 -34.348  1.00  0.00     0.294 C 
HETATM   31  O   UNL     1      -8.168   0.054 -34.983  1.00  0.00    -0.259 OA
BRANCH  30  32
HETATM   32  O   UNL     1      -6.313   1.273 -34.342  1.00  0.00    -0.313 OA
BRANCH  32  33
HETATM   33  C   UNL     1      -5.636   1.178 -33.077  1.00  0.00     0.217 C 
BRANCH  33  34
HETATM   34  C   UNL     1      -4.895  -0.130 -32.973  1.00  0.00    -0.034 A 
HETATM   35  C   UNL     1      -3.984  -0.363 -31.931  1.00  0.00     0.009 A 
HETATM   36  C   UNL     1      -3.325  -1.588 -31.823  1.00  0.00     0.001 A 
HETATM   37  C   UNL     1      -3.577  -2.600 -32.747  1.00  0.00     0.000 A 
HETATM   38  C   UNL     1      -4.485  -2.385 -33.782  1.00  0.00     0.001 A 
HETATM   39  C   UNL     1      -5.139  -1.157 -33.897  1.00  0.00     0.009 A 
ENDBRANCH  33  34
ENDBRANCH  32  33
ENDBRANCH  30  32
ENDBRANCH  10  30
TORSDOF 10
ENDMDL
MODEL 6
REMARK VINA RESULT:      -7.4      1.618      3.810
REMARK  10 active torsions:
REMARK  status: ('A' for Active; 'I' for Inactive)
REMARK    1  A    between atoms: C_4  and  C_5 
REMARK    2  A    between atoms: C_7  and  C_8 
REMARK    3  A    between atoms: C_8  and  C_9 
REMARK       I    between atoms: C_9  and  N_10 
REMARK    4  A    between atoms: N_10  and  C_11 
REMARK    5  A    between atoms: C_11  and  C_12 
REMARK    6  A    between atoms: C_12  and  N_13 
REMARK    7  A    between atoms: C_24  and  C_25 
REMARK    8  A    between atoms: C_25  and  O_26 
REMARK    9  A    between atoms: O_26  and  C_27 
REMARK   10  A    between atoms: C_27  and  C_28 
ROOT
HETATM    1  C   UNL     1      -5.172   2.946 -32.176  1.00  0.00     0.166 C 
HETATM    2  N   UNL     1      -4.273   3.859 -32.911  1.00  0.00    -0.318 N 
HETATM    3  C   UNL     1      -3.069   4.308 -32.777  1.00  0.00     0.011 C 
HETATM    4  C   UNL     1      -4.983   4.520 -34.120  1.00  0.00     0.170 C 
HETATM    5  S   UNL     1      -3.833   5.191 -35.224  1.00  0.00    -0.086 SA
HETATM    6  C   UNL     1      -2.586   5.213 -33.893  1.00  0.00     0.135 C 
HETATM    7  N   UNL     1      -6.254   4.717 -34.191  1.00  0.00    -0.229 NA
HETATM    8  C   UNL     1      -6.981   4.457 -33.040  1.00  0.00     0.048 C 
HETATM    9  C   UNL     1      -8.281   5.222 -32.966  1.00  0.00     0.071 C 
HETATM   10  C   UNL     1      -6.484   3.693 -32.041  1.00  0.00     0.069 C 
ENDROOT
BRANCH   3  11
HETATM   11  C   UNL     1      -2.222   4.012 -31.574  1.00  0.00     0.156 C 
BRANCH  11  12
HETATM   12  C   UNL     1      -1.709   5.257 -30.877  1.00  0.00     0.223 C 
HETATM   13  N   UNL     1      -0.344   5.334 -30.773  1.00  0.00    -0.359 N 
HETATM   14  H   UNL     1       0.194   4.519 -31.056  1.00  0.00     0.162 HD
HETATM   15  O   UNL     1      -2.474   6.113 -30.442  1.00  0.00    -0.273 OA
BRANCH  13  16
HETATM   16  C   UNL     1       0.419   6.293 -29.966  1.00  0.00     0.150 C 
BRANCH  16  17
HETATM   17  C   UNL     1       0.518   6.058 -28.443  1.00  0.00     0.253 C 
BRANCH  17  18
HETATM   18  N   UNL     1      -0.750   6.419 -27.694  1.00  0.00    -0.077 N 
HETATM   19  H   UNL     1      -1.518   5.900 -28.161  1.00  0.00     0.279 HD
HETATM   20  C   UNL     1      -0.750   6.020 -26.244  1.00  0.00     0.269 C 
HETATM   21  C   UNL     1      -1.076   7.882 -27.842  1.00  0.00     0.269 C 
ENDBRANCH  17  18
ENDBRANCH  16  17
ENDBRANCH  13  16
ENDBRANCH  11  12
ENDBRANCH   3  11
BRANCH   1  22
HETATM   22  C   UNL     1      -5.327   1.554 -32.855  1.00  0.00    -0.024 A 
HETATM   23  C   UNL     1      -6.458   1.343 -33.694  1.00  0.00     0.017 A 
HETATM   24  C   UNL     1      -6.705   0.137 -34.366  1.00  0.00    -0.061 A 
HETATM   25  C   UNL     1      -7.901  -0.007 -35.266  1.00  0.00     0.048 C 
HETATM   26  C   UNL     1      -5.800  -0.902 -34.232  1.00  0.00     0.007 A 
HETATM   27  C   UNL     1      -4.709  -0.758 -33.384  1.00  0.00     0.008 A 
HETATM   28  C   UNL     1      -4.474   0.434 -32.661  1.00  0.00    -0.053 A 
HETATM   29  C   UNL     1      -3.298   0.372 -31.726  1.00  0.00     0.049 C 
ENDBRANCH   1  22
BRANCH  10  30
HETATM   30  C   UNL     1      -7.067   3.644 -30.689  1.00  0.00     0.294 C 
HETATM   31  O   UNL     1      -8.063   2.970 -30.476  1.00  0.00    -0.259 OA
BRANCH  30  32
HETATM   32  O   UNL     1      -6.411   4.456 -29.844  1.00  0.00    -0.313 OA
BRANCH  32  33
HETATM   33  C   UNL     1      -7.066   5.692 -29.507  1.00  0.00     0.217 C 
BRANCH  33  34
HETATM   34  C   UNL     1      -6.124   6.854 -29.689  1.00  0.00    -0.034 A 
HETATM   35  C   UNL     1      -5.807   7.332 -30.970  1.00  0.00     0.009 A 
HETATM   36  C   UNL     1      -4.958   8.428 -31.130  1.00  0.00     0.001 A 
HETATM   37  C   UNL     1      -4.425   9.067 -30.013  1.00  0.00     0.000 A 
HETATM   38  C   UNL     1      -4.736   8.607 -28.735  1.00  0.00     0.001 A 
HETATM   39  C   UNL     1      -5.579   7.505 -28.573  1.00  0.00     0.009 A 
ENDBRANCH  33  34
ENDBRANCH  32  33
ENDBRANCH  30  32
ENDBRANCH  10  30
TORSDOF 10
ENDMDL
MODEL 7
REMARK VINA RESULT:      -7.4      2.602      5.505
REMARK  10 active torsions:
REMARK  status: ('A' for Active; 'I' for Inactive)
REMARK    1  A    between atoms: C_4  and  C_5 
REMARK    2  A    between atoms: C_7  and  C_8 
REMARK    3  A    between atoms: C_8  and  C_9 
REMARK       I    between atoms: C_9  and  N_10 
REMARK    4  A    between atoms: N_10  and  C_11 
REMARK    5  A    between atoms: C_11  and  C_12 
REMARK    6  A    between atoms: C_12  and  N_13 
REMARK    7  A    between atoms: C_24  and  C_25 
REMARK    8  A    between atoms: C_25  and  O_26 
REMARK    9  A    between atoms: O_26  and  C_27 
REMARK   10  A    between atoms: C_27  and  C_28 
ROOT
HETATM    1  C   UNL     1      -7.020   2.403 -33.147  1.00  0.00     0.166 C 
HETATM    2  N   UNL     1      -6.265   3.351 -32.304  1.00  0.00    -0.318 N 
HETATM    3  C   UNL     1      -5.362   4.259 -32.481  1.00  0.00     0.011 C 
HETATM    4  C   UNL     1      -6.568   3.154 -30.797  1.00  0.00     0.170 C 
HETATM    5  S   UNL     1      -6.071   4.532 -29.878  1.00  0.00    -0.086 SA
HETATM    6  C   UNL     1      -4.951   5.017 -31.234  1.00  0.00     0.135 C 
HETATM    7  N   UNL     1      -6.954   2.039 -30.279  1.00  0.00    -0.229 NA
HETATM    8  C   UNL     1      -6.933   0.933 -31.114  1.00  0.00     0.048 C 
HETATM    9  C   UNL     1      -6.812  -0.377 -30.373  1.00  0.00     0.071 C 
HETATM   10  C   UNL     1      -6.891   1.058 -32.460  1.00  0.00     0.069 C 
ENDROOT
BRANCH   3  11
HETATM   11  C   UNL     1      -4.715   4.512 -33.811  1.00  0.00     0.156 C 
BRANCH  11  12
HETATM   12  C   UNL     1      -3.261   4.927 -33.703  1.00  0.00     0.223 C 
HETATM   13  N   UNL     1      -3.043   6.278 -33.793  1.00  0.00    -0.359 N 
HETATM   14  H   UNL     1      -3.837   6.865 -34.038  1.00  0.00     0.162 HD
HETATM   15  O   UNL     1      -2.364   4.102 -33.554  1.00  0.00    -0.273 OA
BRANCH  13  16
HETATM   16  C   UNL     1      -1.747   6.947 -33.947  1.00  0.00     0.150 C 
BRANCH  16  17
HETATM   17  C   UNL     1      -0.975   7.359 -32.675  1.00  0.00     0.253 C 
BRANCH  17  18
HETATM   18  N   UNL     1      -1.069   6.338 -31.557  1.00  0.00    -0.077 N 
HETATM   19  H   UNL     1      -1.803   5.663 -31.845  1.00  0.00     0.279 HD
HETATM   20  C   UNL     1       0.195   5.558 -31.320  1.00  0.00     0.269 C 
HETATM   21  C   UNL     1      -1.551   6.969 -30.278  1.00  0.00     0.269 C 
ENDBRANCH  17  18
ENDBRANCH  16  17
ENDBRANCH  13  16
ENDBRANCH  11  12
ENDBRANCH   3  11
BRANCH   1  22
HETATM   22  C   UNL     1      -8.499   2.830 -33.383  1.00  0.00    -0.024 A 
HETATM   23  C   UNL     1      -9.486   1.807 -33.448  1.00  0.00     0.017 A 
HETATM   24  C   UNL     1     -10.851   2.064 -33.648  1.00  0.00    -0.061 A 
HETATM   25  C   UNL     1     -11.847   0.938 -33.671  1.00  0.00     0.048 C 
HETATM   26  C   UNL     1     -11.274   3.377 -33.770  1.00  0.00     0.007 A 
HETATM   27  C   UNL     1     -10.338   4.404 -33.762  1.00  0.00     0.008 A 
HETATM   28  C   UNL     1      -8.955   4.157 -33.612  1.00  0.00    -0.053 A 
HETATM   29  C   UNL     1      -8.089   5.381 -33.721  1.00  0.00     0.049 C 
ENDBRANCH   1  22
BRANCH  10  30
HETATM   30  C   UNL     1      -6.553  -0.051 -33.368  1.00  0.00     0.294 C 
HETATM   31  O   UNL     1      -7.329  -0.984 -33.509  1.00  0.00    -0.259 OA
BRANCH  30  32
HETATM   32  O   UNL     1      -5.328   0.105 -33.896  1.00  0.00    -0.313 OA
BRANCH  32  33
HETATM   33  C   UNL     1      -4.218  -0.232 -33.045  1.00  0.00     0.217 C 
BRANCH  33  34
HETATM   34  C   UNL     1      -3.970  -1.717 -33.066  1.00  0.00    -0.034 A 
HETATM   35  C   UNL     1      -4.356  -2.498 -34.166  1.00  0.00     0.009 A 
HETATM   36  C   UNL     1      -4.095  -3.869 -34.193  1.00  0.00     0.001 A 
HETATM   37  C   UNL     1      -3.435  -4.474 -33.126  1.00  0.00     0.000 A 
HETATM   38  C   UNL     1      -3.040  -3.710 -32.030  1.00  0.00     0.001 A 
HETATM   39  C   UNL     1      -3.308  -2.340 -31.998  1.00  0.00     0.009 A 
ENDBRANCH  33  34
ENDBRANCH  32  33
ENDBRANCH  30  32
ENDBRANCH  10  30
TORSDOF 10
ENDMDL
MODEL 8
REMARK VINA RESULT:      -7.1     17.837     20.824
REMARK  10 active torsions:
REMARK  status: ('A' for Active; 'I' for Inactive)
REMARK    1  A    between atoms: C_4  and  C_5 
REMARK    2  A    between atoms: C_7  and  C_8 
REMARK    3  A    between atoms: C_8  and  C_9 
REMARK       I    between atoms: C_9  and  N_10 
REMARK    4  A    between atoms: N_10  and  C_11 
REMARK    5  A    between atoms: C_11  and  C_12 
REMARK    6  A    between atoms: C_12  and  N_13 
REMARK    7  A    between atoms: C_24  and  C_25 
REMARK    8  A    between atoms: C_25  and  O_26 
REMARK    9  A    between atoms: O_26  and  C_27 
REMARK   10  A    between atoms: C_27  and  C_28 
ROOT
HETATM    1  C   UNL     1      -4.748 -15.493 -39.613  1.00  0.00     0.166 C 
HETATM    2  N   UNL     1      -5.808 -14.498 -39.873  1.00  0.00    -0.318 N 
HETATM    3  C   UNL     1      -7.043 -14.325 -39.535  1.00  0.00     0.011 C 
HETATM    4  C   UNL     1      -5.351 -13.416 -40.885  1.00  0.00     0.170 C 
HETATM    5  S   UNL     1      -6.385 -12.031 -40.822  1.00  0.00    -0.086 SA
HETATM    6  C   UNL     1      -7.685 -13.051 -40.049  1.00  0.00     0.135 C 
HETATM    7  N   UNL     1      -4.449 -13.606 -41.785  1.00  0.00    -0.229 NA
HETATM    8  C   UNL     1      -3.994 -14.906 -41.934  1.00  0.00     0.048 C 
HETATM    9  C   UNL     1      -3.429 -15.190 -43.306  1.00  0.00     0.071 C 
HETATM   10  C   UNL     1      -4.177 -15.840 -40.974  1.00  0.00     0.069 C 
ENDROOT
BRANCH   3  11
HETATM   11  C   UNL     1      -7.817 -15.337 -38.740  1.00  0.00     0.156 C 
BRANCH  11  12
HETATM   12  C   UNL     1      -7.511 -15.297 -37.256  1.00  0.00     0.223 C 
HETATM   13  N   UNL     1      -7.367 -14.037 -36.735  1.00  0.00    -0.359 N 
HETATM   14  H   UNL     1      -7.359 -13.257 -37.390  1.00  0.00     0.162 HD
HETATM   15  O   UNL     1      -7.398 -16.324 -36.593  1.00  0.00    -0.273 OA
BRANCH  13  16
HETATM   16  C   UNL     1      -6.855 -13.693 -35.404  1.00  0.00     0.150 C 
BRANCH  16  17
HETATM   17  C   UNL     1      -5.328 -13.555 -35.215  1.00  0.00     0.253 C 
BRANCH  17  18
HETATM   18  N   UNL     1      -4.829 -14.128 -33.903  1.00  0.00    -0.077 N 
HETATM   19  H   UNL     1      -3.851 -13.794 -33.797  1.00  0.00     0.279 HD
HETATM   20  C   UNL     1      -5.597 -13.671 -32.694  1.00  0.00     0.269 C 
HETATM   21  C   UNL     1      -4.760 -15.631 -33.952  1.00  0.00     0.269 C 
ENDBRANCH  17  18
ENDBRANCH  16  17
ENDBRANCH  13  16
ENDBRANCH  11  12
ENDBRANCH   3  11
BRANCH   1  22
HETATM   22  C   UNL     1      -3.670 -14.996 -38.605  1.00  0.00    -0.024 A 
HETATM   23  C   UNL     1      -3.097 -13.712 -38.821  1.00  0.00     0.017 A 
HETATM   24  C   UNL     1      -2.124 -13.150 -37.981  1.00  0.00    -0.061 A 
HETATM   25  C   UNL     1      -1.585 -11.772 -38.247  1.00  0.00     0.048 C 
HETATM   26  C   UNL     1      -1.706 -13.864 -36.870  1.00  0.00     0.007 A 
HETATM   27  C   UNL     1      -2.202 -15.142 -36.648  1.00  0.00     0.008 A 
HETATM   28  C   UNL     1      -3.146 -15.741 -37.514  1.00  0.00    -0.053 A 
HETATM   29  C   UNL     1      -3.496 -17.160 -37.165  1.00  0.00     0.049 C 
ENDBRANCH   1  22
BRANCH  10  30
HETATM   30  C   UNL     1      -4.002 -17.284 -41.202  1.00  0.00     0.294 C 
HETATM   31  O   UNL     1      -4.804 -17.898 -41.889  1.00  0.00    -0.259 OA
BRANCH  30  32
HETATM   32  O   UNL     1      -2.948 -17.762 -40.520  1.00  0.00    -0.313 OA
BRANCH  32  33
HETATM   33  C   UNL     1      -1.664 -17.628 -41.154  1.00  0.00     0.217 C 
BRANCH  33  34
HETATM   34  C   UNL     1      -0.754 -16.761 -40.322  1.00  0.00    -0.034 A 
HETATM   35  C   UNL     1      -0.130 -17.267 -39.172  1.00  0.00     0.009 A 
HETATM   36  C   UNL     1       0.736 -16.468 -38.423  1.00  0.00     0.001 A 
HETATM   37  C   UNL     1       0.997 -15.159 -38.821  1.00  0.00     0.000 A 
HETATM   38  C   UNL     1       0.390 -14.646 -39.965  1.00  0.00     0.001 A 
HETATM   39  C   UNL     1      -0.484 -15.441 -40.710  1.00  0.00     0.009 A 
ENDBRANCH  33  34
ENDBRANCH  32  33
ENDBRANCH  30  32
ENDBRANCH  10  30
TORSDOF 10
ENDMDL
MODEL 9
REMARK VINA RESULT:      -6.8     18.040     19.860
REMARK  10 active torsions:
REMARK  status: ('A' for Active; 'I' for Inactive)
REMARK    1  A    between atoms: C_4  and  C_5 
REMARK    2  A    between atoms: C_7  and  C_8 
REMARK    3  A    between atoms: C_8  and  C_9 
REMARK       I    between atoms: C_9  and  N_10 
REMARK    4  A    between atoms: N_10  and  C_11 
REMARK    5  A    between atoms: C_11  and  C_12 
REMARK    6  A    between atoms: C_12  and  N_13 
REMARK    7  A    between atoms: C_24  and  C_25 
REMARK    8  A    between atoms: C_25  and  O_26 
REMARK    9  A    between atoms: O_26  and  C_27 
REMARK   10  A    between atoms: C_27  and  C_28 
ROOT
HETATM    1  C   UNL     1      -4.558 -14.785 -37.703  1.00  0.00     0.166 C 
HETATM    2  N   UNL     1      -3.716 -15.448 -36.686  1.00  0.00    -0.318 N 
HETATM    3  C   UNL     1      -3.674 -15.520 -35.397  1.00  0.00     0.011 C 
HETATM    4  C   UNL     1      -2.513 -16.188 -37.325  1.00  0.00     0.170 C 
HETATM    5  S   UNL     1      -1.825 -17.326 -36.218  1.00  0.00    -0.086 SA
HETATM    6  C   UNL     1      -2.597 -16.425 -34.832  1.00  0.00     0.135 C 
HETATM    7  N   UNL     1      -1.978 -15.858 -38.449  1.00  0.00    -0.229 NA
HETATM    8  C   UNL     1      -2.423 -14.675 -39.018  1.00  0.00     0.048 C 
HETATM    9  C   UNL     1      -1.419 -14.045 -39.955  1.00  0.00     0.071 C 
HETATM   10  C   UNL     1      -3.589 -14.100 -38.646  1.00  0.00     0.069 C 
ENDROOT
BRANCH   3  11
HETATM   11  C   UNL     1      -4.583 -14.720 -34.509  1.00  0.00     0.156 C 
BRANCH  11  12
HETATM   12  C   UNL     1      -5.013 -15.467 -33.261  1.00  0.00     0.223 C 
HETATM   13  N   UNL     1      -4.444 -15.014 -32.099  1.00  0.00    -0.359 N 
HETATM   14  H   UNL     1      -3.710 -14.314 -32.178  1.00  0.00     0.162 HD
HETATM   15  O   UNL     1      -5.804 -16.404 -33.312  1.00  0.00    -0.273 OA
BRANCH  13  16
HETATM   16  C   UNL     1      -4.492 -15.671 -30.788  1.00  0.00     0.150 C 
BRANCH  16  17
HETATM   17  C   UNL     1      -3.348 -16.634 -30.404  1.00  0.00     0.253 C 
BRANCH  17  18
HETATM   18  N   UNL     1      -2.279 -15.987 -29.545  1.00  0.00    -0.077 N 
HETATM   19  H   UNL     1      -2.738 -15.187 -29.068  1.00  0.00     0.279 HD
HETATM   20  C   UNL     1      -1.711 -16.884 -28.479  1.00  0.00     0.269 C 
HETATM   21  C   UNL     1      -1.177 -15.402 -30.388  1.00  0.00     0.269 C 
ENDBRANCH  17  18
ENDBRANCH  16  17
ENDBRANCH  13  16
ENDBRANCH  11  12
ENDBRANCH   3  11
BRANCH   1  22
HETATM   22  C   UNL     1      -5.533 -15.759 -38.427  1.00  0.00    -0.024 A 
HETATM   23  C   UNL     1      -5.295 -16.041 -39.802  1.00  0.00     0.017 A 
HETATM   24  C   UNL     1      -6.096 -16.906 -40.561  1.00  0.00    -0.061 A 
HETATM   25  C   UNL     1      -5.768 -17.187 -42.001  1.00  0.00     0.048 C 
HETATM   26  C   UNL     1      -7.164 -17.541 -39.949  1.00  0.00     0.007 A 
HETATM   27  C   UNL     1      -7.462 -17.257 -38.622  1.00  0.00     0.008 A 
HETATM   28  C   UNL     1      -6.694 -16.349 -37.858  1.00  0.00    -0.053 A 
HETATM   29  C   UNL     1      -7.222 -16.099 -36.473  1.00  0.00     0.049 C 
ENDBRANCH   1  22
BRANCH  10  30
HETATM   30  C   UNL     1      -3.951 -12.712 -38.978  1.00  0.00     0.294 C 
HETATM   31  O   UNL     1      -3.693 -11.808 -38.198  1.00  0.00    -0.259 OA
BRANCH  30  32
HETATM   32  O   UNL     1      -4.618 -12.646 -40.142  1.00  0.00    -0.313 OA
BRANCH  32  33
HETATM   33  C   UNL     1      -5.795 -11.820 -40.159  1.00  0.00     0.217 C 
BRANCH  33  34
HETATM   34  C   UNL     1      -7.016 -12.637 -39.827  1.00  0.00    -0.034 A 
HETATM   35  C   UNL     1      -7.607 -12.569 -38.556  1.00  0.00     0.009 A 
HETATM   36  C   UNL     1      -8.756 -13.306 -38.264  1.00  0.00     0.001 A 
HETATM   37  C   UNL     1      -9.336 -14.110 -39.243  1.00  0.00     0.000 A 
HETATM   38  C   UNL     1      -8.765 -14.182 -40.511  1.00  0.00     0.001 A 
HETATM   39  C   UNL     1      -7.610 -13.452 -40.802  1.00  0.00     0.009 A 
ENDBRANCH  33  34
ENDBRANCH  32  33
ENDBRANCH  30  32
ENDBRANCH  10  30
TORSDOF 10
ENDMDL
MODEL 10
REMARK VINA RESULT:      -6.8      1.691      3.206
REMARK  10 active torsions:
REMARK  status: ('A' for Active; 'I' for Inactive)
REMARK    1  A    between atoms: C_4  and  C_5 
REMARK    2  A    between atoms: C_7  and  C_8 
REMARK    3  A    between atoms: C_8  and  C_9 
REMARK       I    between atoms: C_9  and  N_10 
REMARK    4  A    between atoms: N_10  and  C_11 
REMARK    5  A    between atoms: C_11  and  C_12 
REMARK    6  A    between atoms: C_12  and  N_13 
REMARK    7  A    between atoms: C_24  and  C_25 
REMARK    8  A    between atoms: C_25  and  O_26 
REMARK    9  A    between atoms: O_26  and  C_27 
REMARK   10  A    between atoms: C_27  and  C_28 
ROOT
HETATM    1  C   UNL     1      -5.935   2.328 -32.027  1.00  0.00     0.166 C 
HETATM    2  N   UNL     1      -5.182   3.452 -32.620  1.00  0.00    -0.318 N 
HETATM    3  C   UNL     1      -4.259   4.273 -32.242  1.00  0.00     0.011 C 
HETATM    4  C   UNL     1      -5.685   3.798 -34.045  1.00  0.00     0.170 C 
HETATM    5  S   UNL     1      -4.527   4.759 -34.896  1.00  0.00    -0.086 SA
HETATM    6  C   UNL     1      -3.774   5.239 -33.305  1.00  0.00     0.135 C 
HETATM    7  N   UNL     1      -6.882   3.569 -34.462  1.00  0.00    -0.229 NA
HETATM    8  C   UNL     1      -7.792   3.134 -33.511  1.00  0.00     0.048 C 
HETATM    9  C   UNL     1      -9.227   3.438 -33.870  1.00  0.00     0.071 C 
HETATM   10  C   UNL     1      -7.393   2.614 -32.329  1.00  0.00     0.069 C 
ENDROOT
BRANCH   3  11
HETATM   11  C   UNL     1      -3.738   4.317 -30.835  1.00  0.00     0.156 C 
BRANCH  11  12
HETATM   12  C   UNL     1      -2.488   5.161 -30.683  1.00  0.00     0.223 C 
HETATM   13  N   UNL     1      -2.682   6.361 -30.050  1.00  0.00    -0.359 N 
HETATM   14  H   UNL     1      -3.640   6.634 -29.845  1.00  0.00     0.162 HD
HETATM   15  O   UNL     1      -1.399   4.784 -31.107  1.00  0.00    -0.273 OA
BRANCH  13  16
HETATM   16  C   UNL     1      -1.723   7.469 -29.961  1.00  0.00     0.150 C 
BRANCH  16  17
HETATM   17  C   UNL     1      -0.802   7.548 -28.723  1.00  0.00     0.253 C 
BRANCH  17  18
HETATM   18  N   UNL     1      -0.494   6.194 -28.115  1.00  0.00    -0.077 N 
HETATM   19  H   UNL     1      -1.291   5.577 -28.365  1.00  0.00     0.279 HD
HETATM   20  C   UNL     1       0.759   5.548 -28.639  1.00  0.00     0.269 C 
HETATM   21  C   UNL     1      -0.467   6.261 -26.611  1.00  0.00     0.269 C 
ENDBRANCH  17  18
ENDBRANCH  16  17
ENDBRANCH  13  16
ENDBRANCH  11  12
ENDBRANCH   3  11
BRANCH   1  22
HETATM   22  C   UNL     1      -5.466   0.934 -32.538  1.00  0.00    -0.024 A 
HETATM   23  C   UNL     1      -6.373   0.174 -33.330  1.00  0.00     0.017 A 
HETATM   24  C   UNL     1      -6.066  -1.090 -33.854  1.00  0.00    -0.061 A 
HETATM   25  C   UNL     1      -7.058  -1.824 -34.713  1.00  0.00     0.048 C 
HETATM   26  C   UNL     1      -4.813  -1.629 -33.613  1.00  0.00     0.007 A 
HETATM   27  C   UNL     1      -3.915  -0.944 -32.805  1.00  0.00     0.008 A 
HETATM   28  C   UNL     1      -4.228   0.308 -32.228  1.00  0.00    -0.053 A 
HETATM   29  C   UNL     1      -3.170   0.852 -31.310  1.00  0.00     0.049 C 
ENDBRANCH   1  22
BRANCH  10  30
HETATM   30  C   UNL     1      -8.292   2.434 -31.176  1.00  0.00     0.294 C 
HETATM   31  O   UNL     1      -9.185   1.603 -31.220  1.00  0.00    -0.259 OA
BRANCH  30  32
HETATM   32  O   UNL     1      -8.019   3.317 -30.201  1.00  0.00    -0.313 OA
BRANCH  32  33
HETATM   33  C   UNL     1      -8.723   4.570 -30.258  1.00  0.00     0.217 C 
BRANCH  33  34
HETATM   34  C   UNL     1      -7.749   5.717 -30.332  1.00  0.00    -0.034 A 
HETATM   35  C   UNL     1      -7.191   6.267 -29.168  1.00  0.00     0.009 A 
HETATM   36  C   UNL     1      -6.267   7.309 -29.245  1.00  0.00     0.001 A 
HETATM   37  C   UNL     1      -5.879   7.807 -30.487  1.00  0.00     0.000 A 
HETATM   38  C   UNL     1      -6.418   7.266 -31.651  1.00  0.00     0.001 A 
HETATM   39  C   UNL     1      -7.351   6.229 -31.576  1.00  0.00     0.009 A 
ENDBRANCH  33  34
ENDBRANCH  32  33
ENDBRANCH  30  32
ENDBRANCH  10  30
TORSDOF 10
ENDMDL
