MODEL 1
REMARK VINA RESULT:      -9.6      0.000      0.000
REMARK  3 active torsions:
REMARK  status: ('A' for Active; 'I' for Inactive)
REMARK    1  A    between atoms: C_5  and  C_6 
REMARK    2  A    between atoms: C_11  and  C_12 
REMARK    3  A    between atoms: C_23  and  O_24 
ROOT
HETATM    1  C   UNL     1      -5.311   1.120 -32.755  1.00  0.00     0.031 C 
HETATM    2  C   UNL     1      -5.528   1.351 -31.452  1.00  0.00     0.066 A 
HETATM    3  C   UNL     1      -6.132   0.439 -30.448  1.00  0.00     0.274 A 
HETATM    4  O   UNL     1      -6.464  -0.724 -30.551  1.00  0.00    -0.266 OA
HETATM    5  N   UNL     1      -6.266   1.251 -29.332  1.00  0.00    -0.242 N 
HETATM    6  C   UNL     1      -5.326   2.618 -30.699  1.00  0.00     0.111 A 
HETATM    7  N   UNL     1      -5.798   2.535 -29.475  1.00  0.00    -0.170 NA
HETATM    8  H   UNL     1      -6.650   0.923 -28.453  1.00  0.00     0.192 HD
ENDROOT
BRANCH   6   9
HETATM    9  C   UNL     1      -4.711   3.842 -31.256  1.00  0.00     0.098 C 
HETATM   10  C   UNL     1      -5.525   5.005 -31.700  1.00  0.00     0.263 C 
HETATM   11  O   UNL     1      -6.752   4.903 -31.731  1.00  0.00    -0.267 OA
HETATM   12  N   UNL     1      -4.856   6.168 -32.065  1.00  0.00    -0.317 N 
HETATM   13  C   UNL     1      -5.649   7.338 -32.410  1.00  0.00     0.159 C 
HETATM   14  C   UNL     1      -3.436   6.210 -32.195  1.00  0.00     0.050 A 
HETATM   15  C   UNL     1      -2.686   5.060 -31.891  1.00  0.00     0.025 A 
HETATM   16  C   UNL     1      -2.767   7.361 -32.643  1.00  0.00     0.031 A 
HETATM   17  C   UNL     1      -1.290   5.085 -32.050  1.00  0.00     0.016 A 
HETATM   18  C   UNL     1      -3.373   3.856 -31.399  1.00  0.00     0.096 C 
HETATM   19  C   UNL     1      -0.639   6.233 -32.501  1.00  0.00     0.001 A 
HETATM   20  C   UNL     1      -1.379   7.371 -32.796  1.00  0.00     0.002 A 
BRANCH  18  21
HETATM   21  O   UNL     1      -2.544   2.788 -31.096  1.00  0.00    -0.359 OA
HETATM   22  H   UNL     1      -1.972   2.601 -31.871  1.00  0.00     0.218 HD
ENDBRANCH  18  21
ENDBRANCH   6   9
BRANCH   1  23
HETATM   23  C   UNL     1      -5.499  -0.146 -33.474  1.00  0.00    -0.035 A 
HETATM   24  C   UNL     1      -4.463  -1.085 -33.493  1.00  0.00     0.012 A 
HETATM   25  C   UNL     1      -4.646  -2.332 -34.100  1.00  0.00     0.007 A 
HETATM   26  C   UNL     1      -5.868  -2.656 -34.699  1.00  0.00    -0.062 A 
HETATM   27  C   UNL     1      -6.087  -4.004 -35.322  1.00  0.00     0.048 C 
HETATM   28  C   UNL     1      -6.909  -1.724 -34.663  1.00  0.00     0.007 A 
HETATM   29  C   UNL     1      -6.728  -0.480 -34.052  1.00  0.00     0.012 A 
ENDBRANCH   1  23
TORSDOF 3
ENDMDL
MODEL 2
REMARK VINA RESULT:      -9.2      1.812      7.693
REMARK  3 active torsions:
REMARK  status: ('A' for Active; 'I' for Inactive)
REMARK    1  A    between atoms: C_5  and  C_6 
REMARK    2  A    between atoms: C_11  and  C_12 
REMARK    3  A    between atoms: C_23  and  O_24 
ROOT
HETATM    1  C   UNL     1      -3.751   2.616 -32.252  1.00  0.00     0.031 C 
HETATM    2  C   UNL     1      -4.748   2.350 -31.395  1.00  0.00     0.066 A 
HETATM    3  C   UNL     1      -5.374   3.263 -30.406  1.00  0.00     0.274 A 
HETATM    4  O   UNL     1      -5.202   4.450 -30.223  1.00  0.00    -0.266 OA
HETATM    5  N   UNL     1      -6.210   2.419 -29.690  1.00  0.00    -0.242 N 
HETATM    6  C   UNL     1      -5.406   1.042 -31.132  1.00  0.00     0.111 A 
HETATM    7  N   UNL     1      -6.230   1.111 -30.108  1.00  0.00    -0.170 NA
HETATM    8  H   UNL     1      -6.797   2.739 -28.928  1.00  0.00     0.192 HD
ENDROOT
BRANCH   6   9
HETATM    9  C   UNL     1      -5.148  -0.201 -31.890  1.00  0.00     0.098 C 
HETATM   10  C   UNL     1      -3.922  -1.016 -31.679  1.00  0.00     0.263 C 
HETATM   11  O   UNL     1      -3.030  -0.583 -30.949  1.00  0.00    -0.267 OA
HETATM   12  N   UNL     1      -3.837  -2.246 -32.323  1.00  0.00    -0.317 N 
HETATM   13  C   UNL     1      -2.684  -3.089 -32.047  1.00  0.00     0.159 C 
HETATM   14  C   UNL     1      -4.794  -2.650 -33.301  1.00  0.00     0.050 A 
HETATM   15  C   UNL     1      -5.885  -1.809 -33.581  1.00  0.00     0.025 A 
HETATM   16  C   UNL     1      -4.663  -3.856 -34.011  1.00  0.00     0.031 A 
HETATM   17  C   UNL     1      -6.811  -2.186 -34.569  1.00  0.00     0.016 A 
HETATM   18  C   UNL     1      -6.044  -0.555 -32.829  1.00  0.00     0.096 C 
HETATM   19  C   UNL     1      -6.666  -3.383 -35.270  1.00  0.00     0.001 A 
HETATM   20  C   UNL     1      -5.592  -4.218 -34.989  1.00  0.00     0.002 A 
BRANCH  18  21
HETATM   21  O   UNL     1      -7.168   0.188 -33.155  1.00  0.00    -0.359 OA
HETATM   22  H   UNL     1      -7.625   0.451 -32.328  1.00  0.00     0.218 HD
ENDBRANCH  18  21
ENDBRANCH   6   9
BRANCH   1  23
HETATM   23  C   UNL     1      -3.129   3.919 -32.509  1.00  0.00    -0.035 A 
HETATM   24  C   UNL     1      -3.695   4.775 -33.460  1.00  0.00     0.012 A 
HETATM   25  C   UNL     1      -3.170   6.055 -33.666  1.00  0.00     0.007 A 
HETATM   26  C   UNL     1      -2.070   6.498 -32.924  1.00  0.00    -0.062 A 
HETATM   27  C   UNL     1      -1.521   7.881 -33.110  1.00  0.00     0.048 C 
HETATM   28  C   UNL     1      -1.517   5.649 -31.960  1.00  0.00     0.007 A 
HETATM   29  C   UNL     1      -2.044   4.372 -31.752  1.00  0.00     0.012 A 
ENDBRANCH   1  23
TORSDOF 3
ENDMDL
MODEL 3
REMARK VINA RESULT:      -8.8      2.910      8.168
REMARK  3 active torsions:
REMARK  status: ('A' for Active; 'I' for Inactive)
REMARK    1  A    between atoms: C_5  and  C_6 
REMARK    2  A    between atoms: C_11  and  C_12 
REMARK    3  A    between atoms: C_23  and  O_24 
ROOT
HETATM    1  C   UNL     1      -2.636   5.459 -31.567  1.00  0.00     0.031 C 
HETATM    2  C   UNL     1      -2.793   5.478 -32.899  1.00  0.00     0.066 A 
HETATM    3  C   UNL     1      -2.089   6.328 -33.892  1.00  0.00     0.274 A 
HETATM    4  O   UNL     1      -1.168   7.104 -33.741  1.00  0.00    -0.266 OA
HETATM    5  N   UNL     1      -2.764   6.051 -35.071  1.00  0.00    -0.242 N 
HETATM    6  C   UNL     1      -3.792   4.737 -33.716  1.00  0.00     0.111 A 
HETATM    7  N   UNL     1      -3.770   5.120 -34.974  1.00  0.00    -0.170 NA
HETATM    8  H   UNL     1      -2.522   6.475 -35.960  1.00  0.00     0.192 HD
ENDROOT
BRANCH   6   9
HETATM    9  C   UNL     1      -4.728   3.722 -33.187  1.00  0.00     0.098 C 
HETATM   10  C   UNL     1      -4.256   2.504 -32.476  1.00  0.00     0.263 C 
HETATM   11  O   UNL     1      -3.050   2.260 -32.437  1.00  0.00    -0.267 OA
HETATM   12  N   UNL     1      -5.209   1.686 -31.880  1.00  0.00    -0.317 N 
HETATM   13  C   UNL     1      -4.748   0.545 -31.104  1.00  0.00     0.159 C 
HETATM   14  C   UNL     1      -6.607   1.886 -32.086  1.00  0.00     0.050 A 
HETATM   15  C   UNL     1      -7.036   2.973 -32.867  1.00  0.00     0.025 A 
HETATM   16  C   UNL     1      -7.567   1.010 -31.552  1.00  0.00     0.031 A 
HETATM   17  C   UNL     1      -8.409   3.155 -33.103  1.00  0.00     0.016 A 
HETATM   18  C   UNL     1      -6.041   3.909 -33.414  1.00  0.00     0.096 C 
HETATM   19  C   UNL     1      -9.351   2.275 -32.570  1.00  0.00     0.001 A 
HETATM   20  C   UNL     1      -8.929   1.204 -31.793  1.00  0.00     0.002 A 
BRANCH  18  21
HETATM   21  O   UNL     1      -6.566   4.966 -34.141  1.00  0.00    -0.359 OA
HETATM   22  H   UNL     1      -6.632   4.699 -35.083  1.00  0.00     0.218 HD
ENDBRANCH  18  21
ENDBRANCH   6   9
BRANCH   1  23
HETATM   23  C   UNL     1      -1.631   6.186 -30.783  1.00  0.00    -0.035 A 
HETATM   24  C   UNL     1      -1.944   7.447 -30.265  1.00  0.00     0.012 A 
HETATM   25  C   UNL     1      -1.035   8.125 -29.446  1.00  0.00     0.007 A 
HETATM   26  C   UNL     1       0.203   7.551 -29.136  1.00  0.00    -0.062 A 
HETATM   27  C   UNL     1       1.171   8.252 -28.230  1.00  0.00     0.048 C 
HETATM   28  C   UNL     1       0.507   6.282 -29.639  1.00  0.00     0.007 A 
HETATM   29  C   UNL     1      -0.404   5.603 -30.453  1.00  0.00     0.012 A 
ENDBRANCH   1  23
TORSDOF 3
ENDMDL
MODEL 4
REMARK VINA RESULT:      -8.8      2.717      8.047
REMARK  3 active torsions:
REMARK  status: ('A' for Active; 'I' for Inactive)
REMARK    1  A    between atoms: C_5  and  C_6 
REMARK    2  A    between atoms: C_11  and  C_12 
REMARK    3  A    between atoms: C_23  and  O_24 
ROOT
HETATM    1  C   UNL     1      -2.468   6.029 -31.161  1.00  0.00     0.031 C 
HETATM    2  C   UNL     1      -2.599   6.058 -32.496  1.00  0.00     0.066 A 
HETATM    3  C   UNL     1      -1.842   6.881 -33.472  1.00  0.00     0.274 A 
HETATM    4  O   UNL     1      -0.892   7.616 -33.302  1.00  0.00    -0.266 OA
HETATM    5  N   UNL     1      -2.506   6.636 -34.665  1.00  0.00    -0.242 N 
HETATM    6  C   UNL     1      -3.613   5.362 -33.333  1.00  0.00     0.111 A 
HETATM    7  N   UNL     1      -3.551   5.748 -34.589  1.00  0.00    -0.170 NA
HETATM    8  H   UNL     1      -2.229   7.051 -35.547  1.00  0.00     0.192 HD
ENDROOT
BRANCH   6   9
HETATM    9  C   UNL     1      -4.601   4.386 -32.826  1.00  0.00     0.098 C 
HETATM   10  C   UNL     1      -6.026   4.748 -32.599  1.00  0.00     0.263 C 
HETATM   11  O   UNL     1      -6.372   5.924 -32.711  1.00  0.00    -0.267 OA
HETATM   12  N   UNL     1      -6.913   3.729 -32.269  1.00  0.00    -0.317 N 
HETATM   13  C   UNL     1      -8.324   4.061 -32.139  1.00  0.00     0.159 C 
HETATM   14  C   UNL     1      -6.464   2.408 -31.970  1.00  0.00     0.050 A 
HETATM   15  C   UNL     1      -5.093   2.112 -32.067  1.00  0.00     0.025 A 
HETATM   16  C   UNL     1      -7.352   1.401 -31.556  1.00  0.00     0.031 A 
HETATM   17  C   UNL     1      -4.641   0.823 -31.740  1.00  0.00     0.016 A 
HETATM   18  C   UNL     1      -4.158   3.153 -32.521  1.00  0.00     0.096 C 
HETATM   19  C   UNL     1      -5.532  -0.167 -31.326  1.00  0.00     0.001 A 
HETATM   20  C   UNL     1      -6.888   0.123 -31.236  1.00  0.00     0.002 A 
BRANCH  18  21
HETATM   21  O   UNL     1      -2.834   2.753 -32.615  1.00  0.00    -0.359 OA
HETATM   22  H   UNL     1      -2.259   3.489 -32.315  1.00  0.00     0.218 HD
ENDBRANCH  18  21
ENDBRANCH   6   9
BRANCH   1  23
HETATM   23  C   UNL     1      -1.448   6.710 -30.356  1.00  0.00    -0.035 A 
HETATM   24  C   UNL     1      -1.774   7.902 -29.700  1.00  0.00     0.012 A 
HETATM   25  C   UNL     1      -0.846   8.528 -28.861  1.00  0.00     0.007 A 
HETATM   26  C   UNL     1       0.422   7.971 -28.667  1.00  0.00    -0.062 A 
HETATM   27  C   UNL     1       1.412   8.614 -27.741  1.00  0.00     0.048 C 
HETATM   28  C   UNL     1       0.740   6.769 -29.308  1.00  0.00     0.007 A 
HETATM   29  C   UNL     1      -0.189   6.142 -30.143  1.00  0.00     0.012 A 
ENDBRANCH   1  23
TORSDOF 3
ENDMDL
MODEL 5
REMARK VINA RESULT:      -8.7      3.634      5.680
REMARK  3 active torsions:
REMARK  status: ('A' for Active; 'I' for Inactive)
REMARK    1  A    between atoms: C_5  and  C_6 
REMARK    2  A    between atoms: C_11  and  C_12 
REMARK    3  A    between atoms: C_23  and  O_24 
ROOT
HETATM    1  C   UNL     1      -3.187   5.148 -31.708  1.00  0.00     0.031 C 
HETATM    2  C   UNL     1      -2.762   5.996 -32.656  1.00  0.00     0.066 A 
HETATM    3  C   UNL     1      -2.836   5.835 -34.130  1.00  0.00     0.274 A 
HETATM    4  O   UNL     1      -3.372   4.973 -34.794  1.00  0.00    -0.266 OA
HETATM    5  N   UNL     1      -2.101   6.915 -34.597  1.00  0.00    -0.242 N 
HETATM    6  C   UNL     1      -2.003   7.264 -32.478  1.00  0.00     0.111 A 
HETATM    7  N   UNL     1      -1.605   7.756 -33.631  1.00  0.00    -0.170 NA
HETATM    8  H   UNL     1      -1.960   7.102 -35.583  1.00  0.00     0.192 HD
ENDROOT
BRANCH   6   9
HETATM    9  C   UNL     1      -1.692   7.886 -31.173  1.00  0.00     0.098 C 
HETATM   10  C   UNL     1      -2.550   8.943 -30.576  1.00  0.00     0.263 C 
HETATM   11  O   UNL     1      -3.475   9.413 -31.239  1.00  0.00    -0.267 OA
HETATM   12  N   UNL     1      -2.267   9.358 -29.279  1.00  0.00    -0.317 N 
HETATM   13  C   UNL     1      -3.159  10.324 -28.655  1.00  0.00     0.159 C 
HETATM   14  C   UNL     1      -1.089   8.935 -28.594  1.00  0.00     0.050 A 
HETATM   15  C   UNL     1      -0.219   8.028 -29.224  1.00  0.00     0.025 A 
HETATM   16  C   UNL     1      -0.761   9.419 -27.317  1.00  0.00     0.031 A 
HETATM   17  C   UNL     1       0.960   7.634 -28.569  1.00  0.00     0.016 A 
HETATM   18  C   UNL     1      -0.563   7.497 -30.552  1.00  0.00     0.096 C 
HETATM   19  C   UNL     1       1.276   8.126 -27.303  1.00  0.00     0.001 A 
HETATM   20  C   UNL     1       0.413   9.017 -26.677  1.00  0.00     0.002 A 
BRANCH  18  21
HETATM   21  O   UNL     1       0.341   6.585 -31.074  1.00  0.00    -0.359 OA
HETATM   22  H   UNL     1       0.137   5.696 -30.712  1.00  0.00     0.218 HD
ENDBRANCH  18  21
ENDBRANCH   6   9
BRANCH   1  23
HETATM   23  C   UNL     1      -3.951   3.911 -31.906  1.00  0.00    -0.035 A 
HETATM   24  C   UNL     1      -3.279   2.684 -31.920  1.00  0.00     0.012 A 
HETATM   25  C   UNL     1      -3.991   1.484 -32.024  1.00  0.00     0.007 A 
HETATM   26  C   UNL     1      -5.387   1.495 -32.117  1.00  0.00    -0.062 A 
HETATM   27  C   UNL     1      -6.164   0.214 -32.192  1.00  0.00     0.048 C 
HETATM   28  C   UNL     1      -6.059   2.721 -32.082  1.00  0.00     0.007 A 
HETATM   29  C   UNL     1      -5.347   3.919 -31.974  1.00  0.00     0.012 A 
ENDBRANCH   1  23
TORSDOF 3
ENDMDL
MODEL 6
REMARK VINA RESULT:      -8.6      2.509      3.075
REMARK  3 active torsions:
REMARK  status: ('A' for Active; 'I' for Inactive)
REMARK    1  A    between atoms: C_5  and  C_6 
REMARK    2  A    between atoms: C_11  and  C_12 
REMARK    3  A    between atoms: C_23  and  O_24 
ROOT
HETATM    1  C   UNL     1      -6.152   2.423 -33.478  1.00  0.00     0.031 C 
HETATM    2  C   UNL     1      -7.065   3.406 -33.476  1.00  0.00     0.066 A 
HETATM    3  C   UNL     1      -8.497   3.327 -33.858  1.00  0.00     0.274 A 
HETATM    4  O   UNL     1      -9.173   2.363 -34.153  1.00  0.00    -0.266 OA
HETATM    5  N   UNL     1      -8.899   4.654 -33.832  1.00  0.00    -0.242 N 
HETATM    6  C   UNL     1      -6.853   4.853 -33.203  1.00  0.00     0.111 A 
HETATM    7  N   UNL     1      -7.936   5.557 -33.452  1.00  0.00    -0.170 NA
HETATM    8  H   UNL     1      -9.845   4.949 -34.044  1.00  0.00     0.192 HD
ENDROOT
BRANCH   6   9
HETATM    9  C   UNL     1      -5.579   5.448 -32.746  1.00  0.00     0.098 C 
HETATM   10  C   UNL     1      -5.381   5.919 -31.349  1.00  0.00     0.263 C 
HETATM   11  O   UNL     1      -6.342   5.937 -30.579  1.00  0.00    -0.267 OA
HETATM   12  N   UNL     1      -4.105   6.321 -30.971  1.00  0.00    -0.317 N 
HETATM   13  C   UNL     1      -3.884   6.692 -29.581  1.00  0.00     0.159 C 
HETATM   14  C   UNL     1      -3.048   6.462 -31.919  1.00  0.00     0.050 A 
HETATM   15  C   UNL     1      -3.287   6.131 -33.264  1.00  0.00     0.025 A 
HETATM   16  C   UNL     1      -1.782   6.947 -31.551  1.00  0.00     0.031 A 
HETATM   17  C   UNL     1      -2.261   6.302 -34.209  1.00  0.00     0.016 A 
HETATM   18  C   UNL     1      -4.601   5.602 -33.658  1.00  0.00     0.096 C 
HETATM   19  C   UNL     1      -1.010   6.789 -33.831  1.00  0.00     0.001 A 
HETATM   20  C   UNL     1      -0.772   7.110 -32.500  1.00  0.00     0.002 A 
BRANCH  18  21
HETATM   21  O   UNL     1      -4.727   5.275 -34.999  1.00  0.00    -0.359 OA
HETATM   22  H   UNL     1      -4.422   6.035 -35.540  1.00  0.00     0.218 HD
ENDBRANCH  18  21
ENDBRANCH   6   9
BRANCH   1  23
HETATM   23  C   UNL     1      -6.387   0.997 -33.733  1.00  0.00    -0.035 A 
HETATM   24  C   UNL     1      -6.758   0.582 -35.017  1.00  0.00     0.012 A 
HETATM   25  C   UNL     1      -6.908  -0.778 -35.307  1.00  0.00     0.007 A 
HETATM   26  C   UNL     1      -6.690  -1.743 -34.317  1.00  0.00    -0.062 A 
HETATM   27  C   UNL     1      -6.812  -3.205 -34.627  1.00  0.00     0.048 C 
HETATM   28  C   UNL     1      -6.300  -1.327 -33.040  1.00  0.00     0.007 A 
HETATM   29  C   UNL     1      -6.146   0.032 -32.752  1.00  0.00     0.012 A 
ENDBRANCH   1  23
TORSDOF 3
ENDMDL
MODEL 7
REMARK VINA RESULT:      -8.6      5.181      7.764
REMARK  3 active torsions:
REMARK  status: ('A' for Active; 'I' for Inactive)
REMARK    1  A    between atoms: C_5  and  C_6 
REMARK    2  A    between atoms: C_11  and  C_12 
REMARK    3  A    between atoms: C_23  and  O_24 
ROOT
HETATM    1  C   UNL     1      -8.059   1.388 -32.620  1.00  0.00     0.031 C 
HETATM    2  C   UNL     1      -8.052   2.588 -33.217  1.00  0.00     0.066 A 
HETATM    3  C   UNL     1      -6.885   3.352 -33.725  1.00  0.00     0.274 A 
HETATM    4  O   UNL     1      -5.718   3.031 -33.805  1.00  0.00    -0.266 OA
HETATM    5  N   UNL     1      -7.442   4.573 -34.074  1.00  0.00    -0.242 N 
HETATM    6  C   UNL     1      -9.197   3.516 -33.423  1.00  0.00     0.111 A 
HETATM    7  N   UNL     1      -8.800   4.678 -33.894  1.00  0.00    -0.170 NA
HETATM    8  H   UNL     1      -6.901   5.335 -34.468  1.00  0.00     0.192 HD
ENDROOT
BRANCH   6   9
HETATM    9  C   UNL     1     -10.606   3.202 -33.105  1.00  0.00     0.098 C 
HETATM   10  C   UNL     1     -11.285   3.747 -31.898  1.00  0.00     0.263 C 
HETATM   11  O   UNL     1     -10.625   4.372 -31.068  1.00  0.00    -0.267 OA
HETATM   12  N   UNL     1     -12.651   3.525 -31.762  1.00  0.00    -0.317 N 
HETATM   13  C   UNL     1     -13.338   4.135 -30.634  1.00  0.00     0.159 C 
HETATM   14  C   UNL     1     -13.362   2.651 -32.638  1.00  0.00     0.050 A 
HETATM   15  C   UNL     1     -12.676   2.042 -33.704  1.00  0.00     0.025 A 
HETATM   16  C   UNL     1     -14.724   2.362 -32.450  1.00  0.00     0.031 A 
HETATM   17  C   UNL     1     -13.363   1.154 -34.548  1.00  0.00     0.016 A 
HETATM   18  C   UNL     1     -11.256   2.355 -33.923  1.00  0.00     0.096 C 
HETATM   19  C   UNL     1     -14.714   0.871 -34.347  1.00  0.00     0.001 A 
HETATM   20  C   UNL     1     -15.394   1.478 -33.298  1.00  0.00     0.002 A 
BRANCH  18  21
HETATM   21  O   UNL     1     -10.678   1.730 -35.018  1.00  0.00    -0.359 OA
HETATM   22  H   UNL     1      -9.823   2.169 -35.218  1.00  0.00     0.218 HD
ENDBRANCH  18  21
ENDBRANCH   6   9
BRANCH   1  23
HETATM   23  C   UNL     1      -6.920   0.480 -32.443  1.00  0.00    -0.035 A 
HETATM   24  C   UNL     1      -6.589  -0.413 -33.469  1.00  0.00     0.012 A 
HETATM   25  C   UNL     1      -5.459  -1.231 -33.361  1.00  0.00     0.007 A 
HETATM   26  C   UNL     1      -4.646  -1.170 -32.224  1.00  0.00    -0.062 A 
HETATM   27  C   UNL     1      -3.412  -2.017 -32.114  1.00  0.00     0.048 C 
HETATM   28  C   UNL     1      -4.967  -0.264 -31.209  1.00  0.00     0.007 A 
HETATM   29  C   UNL     1      -6.093   0.557 -31.319  1.00  0.00     0.012 A 
ENDBRANCH   1  23
TORSDOF 3
ENDMDL
MODEL 8
REMARK VINA RESULT:      -8.5      2.209      2.970
REMARK  3 active torsions:
REMARK  status: ('A' for Active; 'I' for Inactive)
REMARK    1  A    between atoms: C_5  and  C_6 
REMARK    2  A    between atoms: C_11  and  C_12 
REMARK    3  A    between atoms: C_23  and  O_24 
ROOT
HETATM    1  C   UNL     1      -5.379   2.556 -32.983  1.00  0.00     0.031 C 
HETATM    2  C   UNL     1      -6.107   3.572 -32.497  1.00  0.00     0.066 A 
HETATM    3  C   UNL     1      -7.579   3.638 -32.313  1.00  0.00     0.274 A 
HETATM    4  O   UNL     1      -8.422   2.779 -32.460  1.00  0.00    -0.266 OA
HETATM    5  N   UNL     1      -7.787   4.960 -31.950  1.00  0.00    -0.242 N 
HETATM    6  C   UNL     1      -5.644   4.936 -32.124  1.00  0.00     0.111 A 
HETATM    7  N   UNL     1      -6.654   5.730 -31.842  1.00  0.00    -0.170 NA
HETATM    8  H   UNL     1      -8.704   5.339 -31.743  1.00  0.00     0.192 HD
ENDROOT
BRANCH   6   9
HETATM    9  C   UNL     1      -4.232   5.373 -32.108  1.00  0.00     0.098 C 
HETATM   10  C   UNL     1      -3.429   5.502 -33.354  1.00  0.00     0.263 C 
HETATM   11  O   UNL     1      -3.906   5.111 -34.419  1.00  0.00    -0.267 OA
HETATM   12  N   UNL     1      -2.162   6.066 -33.257  1.00  0.00    -0.317 N 
HETATM   13  C   UNL     1      -1.410   6.281 -34.484  1.00  0.00     0.159 C 
HETATM   14  C   UNL     1      -1.557   6.347 -31.996  1.00  0.00     0.050 A 
HETATM   15  C   UNL     1      -2.284   6.102 -30.818  1.00  0.00     0.025 A 
HETATM   16  C   UNL     1      -0.245   6.839 -31.897  1.00  0.00     0.031 A 
HETATM   17  C   UNL     1      -1.682   6.344 -29.572  1.00  0.00     0.016 A 
HETATM   18  C   UNL     1      -3.667   5.607 -30.909  1.00  0.00     0.096 C 
HETATM   19  C   UNL     1      -0.376   6.827 -29.488  1.00  0.00     0.001 A 
HETATM   20  C   UNL     1       0.340   7.077 -30.651  1.00  0.00     0.002 A 
BRANCH  18  21
HETATM   21  O   UNL     1      -4.309   5.428 -29.695  1.00  0.00    -0.359 OA
HETATM   22  H   UNL     1      -5.038   4.782 -29.815  1.00  0.00     0.218 HD
ENDBRANCH  18  21
ENDBRANCH   6   9
BRANCH   1  23
HETATM   23  C   UNL     1      -5.854   1.211 -33.327  1.00  0.00    -0.035 A 
HETATM   24  C   UNL     1      -6.483   1.000 -34.558  1.00  0.00     0.012 A 
HETATM   25  C   UNL     1      -6.872  -0.287 -34.946  1.00  0.00     0.007 A 
HETATM   26  C   UNL     1      -6.637  -1.381 -34.106  1.00  0.00    -0.062 A 
HETATM   27  C   UNL     1      -7.017  -2.770 -34.526  1.00  0.00     0.048 C 
HETATM   28  C   UNL     1      -5.990  -1.171 -32.884  1.00  0.00     0.007 A 
HETATM   29  C   UNL     1      -5.599   0.114 -32.499  1.00  0.00     0.012 A 
ENDBRANCH   1  23
TORSDOF 3
ENDMDL
MODEL 9
REMARK VINA RESULT:      -8.5      4.560      6.306
REMARK  3 active torsions:
REMARK  status: ('A' for Active; 'I' for Inactive)
REMARK    1  A    between atoms: C_5  and  C_6 
REMARK    2  A    between atoms: C_11  and  C_12 
REMARK    3  A    between atoms: C_23  and  O_24 
ROOT
HETATM    1  C   UNL     1      -7.655  -0.458 -33.594  1.00  0.00     0.031 C 
HETATM    2  C   UNL     1      -7.658   0.286 -32.478  1.00  0.00     0.066 A 
HETATM    3  C   UNL     1      -6.785   0.151 -31.285  1.00  0.00     0.274 A 
HETATM    4  O   UNL     1      -5.832  -0.576 -31.095  1.00  0.00    -0.266 OA
HETATM    5  N   UNL     1      -7.340   1.053 -30.390  1.00  0.00    -0.242 N 
HETATM    6  C   UNL     1      -8.610   1.364 -32.097  1.00  0.00     0.111 A 
HETATM    7  N   UNL     1      -8.417   1.766 -30.860  1.00  0.00    -0.170 NA
HETATM    8  H   UNL     1      -6.967   1.210 -29.461  1.00  0.00     0.192 HD
ENDROOT
BRANCH   6   9
HETATM    9  C   UNL     1      -9.673   1.900 -32.973  1.00  0.00     0.098 C 
HETATM   10  C   UNL     1     -10.858   1.090 -33.366  1.00  0.00     0.263 C 
HETATM   11  O   UNL     1     -10.897  -0.102 -33.064  1.00  0.00    -0.267 OA
HETATM   12  N   UNL     1     -11.879   1.725 -34.063  1.00  0.00    -0.317 N 
HETATM   13  C   UNL     1     -13.081   0.963 -34.368  1.00  0.00     0.159 C 
HETATM   14  C   UNL     1     -11.738   3.056 -34.559  1.00  0.00     0.050 A 
HETATM   15  C   UNL     1     -10.557   3.767 -34.286  1.00  0.00     0.025 A 
HETATM   16  C   UNL     1     -12.738   3.667 -35.335  1.00  0.00     0.031 A 
HETATM   17  C   UNL     1     -10.398   5.064 -34.801  1.00  0.00     0.016 A 
HETATM   18  C   UNL     1      -9.513   3.146 -33.456  1.00  0.00     0.096 C 
HETATM   19  C   UNL     1     -11.396   5.657 -35.574  1.00  0.00     0.001 A 
HETATM   20  C   UNL     1     -12.566   4.958 -35.838  1.00  0.00     0.002 A 
BRANCH  18  21
HETATM   21  O   UNL     1      -8.402   3.939 -33.217  1.00  0.00    -0.359 OA
HETATM   22  H   UNL     1      -7.921   3.583 -32.439  1.00  0.00     0.218 HD
ENDBRANCH  18  21
ENDBRANCH   6   9
BRANCH   1  23
HETATM   23  C   UNL     1      -6.694  -1.506 -33.958  1.00  0.00    -0.035 A 
HETATM   24  C   UNL     1      -5.324  -1.235 -33.883  1.00  0.00     0.012 A 
HETATM   25  C   UNL     1      -4.386  -2.240 -34.145  1.00  0.00     0.007 A 
HETATM   26  C   UNL     1      -4.807  -3.530 -34.487  1.00  0.00    -0.062 A 
HETATM   27  C   UNL     1      -3.811  -4.624 -34.735  1.00  0.00     0.048 C 
HETATM   28  C   UNL     1      -6.177  -3.804 -34.542  1.00  0.00     0.007 A 
HETATM   29  C   UNL     1      -7.113  -2.801 -34.276  1.00  0.00     0.012 A 
ENDBRANCH   1  23
TORSDOF 3
ENDMDL
MODEL 10
REMARK VINA RESULT:      -8.1      1.835      2.334
REMARK  3 active torsions:
REMARK  status: ('A' for Active; 'I' for Inactive)
REMARK    1  A    between atoms: C_5  and  C_6 
REMARK    2  A    between atoms: C_11  and  C_12 
REMARK    3  A    between atoms: C_23  and  O_24 
ROOT
HETATM    1  C   UNL     1      -4.591   1.142 -32.387  1.00  0.00     0.031 C 
HETATM    2  C   UNL     1      -5.657   1.728 -31.823  1.00  0.00     0.066 A 
HETATM    3  C   UNL     1      -6.920   1.091 -31.372  1.00  0.00     0.274 A 
HETATM    4  O   UNL     1      -7.227  -0.082 -31.320  1.00  0.00    -0.266 OA
HETATM    5  N   UNL     1      -7.714   2.179 -31.039  1.00  0.00    -0.242 N 
HETATM    6  C   UNL     1      -5.899   3.180 -31.607  1.00  0.00     0.111 A 
HETATM    7  N   UNL     1      -7.121   3.410 -31.180  1.00  0.00    -0.170 NA
HETATM    8  H   UNL     1      -8.659   2.085 -30.684  1.00  0.00     0.192 HD
ENDROOT
BRANCH   6   9
HETATM    9  C   UNL     1      -4.912   4.248 -31.874  1.00  0.00     0.098 C 
HETATM   10  C   UNL     1      -4.414   4.541 -33.244  1.00  0.00     0.263 C 
HETATM   11  O   UNL     1      -4.726   3.793 -34.170  1.00  0.00    -0.267 OA
HETATM   12  N   UNL     1      -3.608   5.661 -33.420  1.00  0.00    -0.317 N 
HETATM   13  C   UNL     1      -3.194   6.005 -34.772  1.00  0.00     0.159 C 
HETATM   14  C   UNL     1      -3.110   6.411 -32.313  1.00  0.00     0.050 A 
HETATM   15  C   UNL     1      -3.492   6.044 -31.010  1.00  0.00     0.025 A 
HETATM   16  C   UNL     1      -2.229   7.492 -32.487  1.00  0.00     0.031 A 
HETATM   17  C   UNL     1      -2.977   6.758 -29.914  1.00  0.00     0.016 A 
HETATM   18  C   UNL     1      -4.430   4.929 -30.817  1.00  0.00     0.096 C 
HETATM   19  C   UNL     1      -2.099   7.825 -30.101  1.00  0.00     0.001 A 
HETATM   20  C   UNL     1      -1.728   8.193 -31.388  1.00  0.00     0.002 A 
BRANCH  18  21
HETATM   21  O   UNL     1      -4.770   4.667 -29.499  1.00  0.00    -0.359 OA
HETATM   22  H   UNL     1      -4.800   3.695 -29.368  1.00  0.00     0.218 HD
ENDBRANCH  18  21
ENDBRANCH   6   9
BRANCH   1  23
HETATM   23  C   UNL     1      -4.365  -0.296 -32.573  1.00  0.00    -0.035 A 
HETATM   24  C   UNL     1      -4.934  -0.942 -33.676  1.00  0.00     0.012 A 
HETATM   25  C   UNL     1      -4.668  -2.294 -33.922  1.00  0.00     0.007 A 
HETATM   26  C   UNL     1      -3.830  -3.018 -33.067  1.00  0.00    -0.062 A 
HETATM   27  C   UNL     1      -3.508  -4.457 -33.341  1.00  0.00     0.048 C 
HETATM   28  C   UNL     1      -3.247  -2.365 -31.976  1.00  0.00     0.007 A 
HETATM   29  C   UNL     1      -3.509  -1.014 -31.734  1.00  0.00     0.012 A 
ENDBRANCH   1  23
TORSDOF 3
ENDMDL
