MODEL 1
REMARK VINA RESULT:      -8.7      0.000      0.000
REMARK  11 active torsions:
REMARK  status: ('A' for Active; 'I' for Inactive)
REMARK    1  A    between atoms: C_3  and  C_4 
REMARK    2  A    between atoms: C_4  and  O_5 
REMARK    3  A    between atoms: C_12  and  C_13 
REMARK    4  A    between atoms: C_13  and  C_14 
REMARK    5  A    between atoms: C_15  and  C_16 
REMARK    6  A    between atoms: C_18  and  N_19 
REMARK    7  A    between atoms: N_25  and  C_26 
REMARK    8  A    between atoms: C_26  and  C_27 
REMARK    9  A    between atoms: C_27  and  C_28 
REMARK   10  A    between atoms: C_28  and  N_29 
REMARK   11  A    between atoms: C_38  and  O_39 
ROOT
HETATM    1  C   UNL     1      -7.498   2.137 -31.349  1.00  0.00     0.059 A 
HETATM    2  C   UNL     1      -6.547   2.207 -32.524  1.00  0.00     0.161 A 
HETATM    3  N   UNL     1      -5.510   3.077 -31.997  1.00  0.00    -0.333 N 
HETATM    4  C   UNL     1      -5.774   3.459 -30.700  1.00  0.00     0.278 A 
HETATM    5  O   UNL     1      -5.141   4.296 -30.074  1.00  0.00    -0.265 OA
HETATM    6  C   UNL     1      -7.067   2.857 -30.299  1.00  0.00     0.146 A 
ENDROOT
BRANCH   1   7
HETATM    7  C   UNL     1      -8.790   1.462 -31.613  1.00  0.00     0.196 C 
HETATM    8  O   UNL     1      -8.919   0.280 -31.313  1.00  0.00    -0.287 OA
BRANCH   7   9
HETATM    9  C   UNL     1      -9.814   2.201 -32.342  1.00  0.00     0.045 A 
HETATM   10  C   UNL     1     -10.262   1.905 -33.681  1.00  0.00    -0.013 A 
HETATM   11  C   UNL     1      -9.742   0.805 -34.549  1.00  0.00     0.052 C 
HETATM   12  C   UNL     1     -11.271   2.811 -34.000  1.00  0.00     0.115 A 
HETATM   13  N   UNL     1     -11.435   3.626 -32.902  1.00  0.00    -0.354 N 
HETATM   14  H   UNL     1     -12.135   4.360 -32.860  1.00  0.00     0.166 HD
HETATM   15  C   UNL     1     -10.596   3.255 -31.882  1.00  0.00     0.020 A 
HETATM   16  C   UNL     1     -10.685   3.947 -30.566  1.00  0.00     0.069 C 
BRANCH  12  17
HETATM   17  C   UNL     1     -12.104   2.993 -35.171  1.00  0.00     0.310 C 
HETATM   18  O   UNL     1     -12.174   4.043 -35.796  1.00  0.00    -0.258 OA
BRANCH  17  19
HETATM   19  O   UNL     1     -12.785   1.856 -35.469  1.00  0.00    -0.321 OA
HETATM   20  C   UNL     1     -13.807   1.524 -34.530  1.00  0.00     0.213 C 
ENDBRANCH  17  19
ENDBRANCH  12  17
ENDBRANCH   7   9
ENDBRANCH   1   7
BRANCH   2  21
HETATM   21  C   UNL     1      -5.984   0.888 -33.025  1.00  0.00    -0.028 A 
HETATM   22  C   UNL     1      -4.893   0.249 -32.413  1.00  0.00     0.045 A 
HETATM   23  C   UNL     1      -4.452  -1.003 -32.875  1.00  0.00     0.103 A 
HETATM   24  C   UNL     1      -5.049  -1.606 -33.986  1.00  0.00     0.036 A 
HETATM   25  C   UNL     1      -6.103  -0.958 -34.626  1.00  0.00     0.003 A 
HETATM   26  C   UNL     1      -6.571   0.269 -34.144  1.00  0.00     0.010 A 
BRANCH  23  27
HETATM   27  N   UNL     1      -3.368  -1.696 -32.163  1.00  0.00    -0.116 N 
HETATM   28  O   UNL     1      -2.494  -0.993 -31.637  1.00  0.00    -0.532 OA
HETATM   29  O   UNL     1      -3.396  -2.933 -32.132  1.00  0.00    -0.532 OA
ENDBRANCH  23  27
ENDBRANCH   2  21
BRANCH   6  30
HETATM   30  O   UNL     1      -7.669   3.215 -29.131  1.00  0.00    -0.355 OA
HETATM   31  H   UNL     1      -8.608   3.427 -29.271  1.00  0.00     0.218 HD
ENDBRANCH   6  30
BRANCH   3  32
HETATM   32  C   UNL     1      -4.531   3.761 -32.825  1.00  0.00     0.129 C 
BRANCH  32  33
HETATM   33  C   UNL     1      -3.080   3.327 -32.571  1.00  0.00     0.048 C 
BRANCH  33  34
HETATM   34  C   UNL     1      -2.247   4.167 -31.595  1.00  0.00     0.236 C 
BRANCH  34  35
HETATM   35  N   UNL     1      -1.624   5.389 -32.208  1.00  0.00    -0.067 N 
HETATM   36  H   UNL     1      -0.668   5.495 -31.809  1.00  0.00     0.280 HD
HETATM   37  C   UNL     1      -1.528   5.367 -33.722  1.00  0.00     0.261 C 
HETATM   38  C   UNL     1      -0.872   6.658 -34.224  1.00  0.00     0.195 C 
HETATM   39  O   UNL     1      -1.590   7.812 -33.774  1.00  0.00    -0.388 OA
HETATM   40  C   UNL     1      -1.608   7.887 -32.343  1.00  0.00     0.195 C 
HETATM   41  C   UNL     1      -2.327   6.671 -31.749  1.00  0.00     0.261 C 
ENDBRANCH  34  35
ENDBRANCH  33  34
ENDBRANCH  32  33
ENDBRANCH   3  32
TORSDOF 11
ENDMDL
MODEL 2
REMARK VINA RESULT:      -8.7      2.264      8.341
REMARK  11 active torsions:
REMARK  status: ('A' for Active; 'I' for Inactive)
REMARK    1  A    between atoms: C_3  and  C_4 
REMARK    2  A    between atoms: C_4  and  O_5 
REMARK    3  A    between atoms: C_12  and  C_13 
REMARK    4  A    between atoms: C_13  and  C_14 
REMARK    5  A    between atoms: C_15  and  C_16 
REMARK    6  A    between atoms: C_18  and  N_19 
REMARK    7  A    between atoms: N_25  and  C_26 
REMARK    8  A    between atoms: C_26  and  C_27 
REMARK    9  A    between atoms: C_27  and  C_28 
REMARK   10  A    between atoms: C_28  and  N_29 
REMARK   11  A    between atoms: C_38  and  O_39 
ROOT
HETATM    1  C   UNL     1      -5.048   2.800 -32.413  1.00  0.00     0.059 A 
HETATM    2  C   UNL     1      -6.258   1.913 -32.607  1.00  0.00     0.161 A 
HETATM    3  N   UNL     1      -5.870   0.735 -31.849  1.00  0.00    -0.333 N 
HETATM    4  C   UNL     1      -4.632   0.888 -31.267  1.00  0.00     0.278 A 
HETATM    5  O   UNL     1      -4.012   0.003 -30.698  1.00  0.00    -0.265 OA
HETATM    6  C   UNL     1      -4.106   2.219 -31.651  1.00  0.00     0.146 A 
ENDROOT
BRANCH   1   7
HETATM    7  C   UNL     1      -5.030   4.040 -33.224  1.00  0.00     0.196 C 
HETATM    8  O   UNL     1      -5.385   3.993 -34.397  1.00  0.00    -0.287 OA
BRANCH   7   9
HETATM    9  C   UNL     1      -4.463   5.243 -32.625  1.00  0.00     0.045 A 
HETATM   10  C   UNL     1      -3.106   5.702 -32.801  1.00  0.00    -0.013 A 
HETATM   11  C   UNL     1      -2.054   5.016 -33.611  1.00  0.00     0.052 C 
HETATM   12  C   UNL     1      -2.970   6.899 -32.102  1.00  0.00     0.115 A 
HETATM   13  N   UNL     1      -4.192   7.162 -31.523  1.00  0.00    -0.354 N 
HETATM   14  H   UNL     1      -4.374   7.998 -30.978  1.00  0.00     0.166 HD
HETATM   15  C   UNL     1      -5.112   6.199 -31.854  1.00  0.00     0.020 A 
HETATM   16  C   UNL     1      -6.526   6.349 -31.411  1.00  0.00     0.069 C 
BRANCH  12  17
HETATM   17  C   UNL     1      -1.869   7.825 -31.929  1.00  0.00     0.310 C 
HETATM   18  O   UNL     1      -1.714   8.828 -32.612  1.00  0.00    -0.258 OA
BRANCH  17  19
HETATM   19  O   UNL     1      -1.050   7.427 -30.922  1.00  0.00    -0.321 OA
HETATM   20  C   UNL     1       0.211   6.922 -31.360  1.00  0.00     0.213 C 
ENDBRANCH  17  19
ENDBRANCH  12  17
ENDBRANCH   7   9
ENDBRANCH   1   7
BRANCH   2  21
HETATM   21  C   UNL     1      -7.595   2.471 -32.148  1.00  0.00    -0.028 A 
HETATM   22  C   UNL     1      -8.698   2.598 -33.007  1.00  0.00     0.045 A 
HETATM   23  C   UNL     1      -9.933   3.058 -32.516  1.00  0.00     0.103 A 
HETATM   24  C   UNL     1     -10.069   3.454 -31.182  1.00  0.00     0.036 A 
HETATM   25  C   UNL     1      -8.967   3.373 -30.334  1.00  0.00     0.003 A 
HETATM   26  C   UNL     1      -7.748   2.878 -30.809  1.00  0.00     0.010 A 
BRANCH  23  27
HETATM   27  N   UNL     1     -11.098   3.096 -33.411  1.00  0.00    -0.116 N 
HETATM   28  O   UNL     1     -12.187   2.735 -32.942  1.00  0.00    -0.532 OA
HETATM   29  O   UNL     1     -10.922   3.486 -34.572  1.00  0.00    -0.532 OA
ENDBRANCH  23  27
ENDBRANCH   2  21
BRANCH   6  30
HETATM   30  O   UNL     1      -2.820   2.567 -31.370  1.00  0.00    -0.355 OA
HETATM   31  H   UNL     1      -2.541   2.212 -30.509  1.00  0.00     0.218 HD
ENDBRANCH   6  30
BRANCH   3  32
HETATM   32  C   UNL     1      -6.510  -0.563 -31.989  1.00  0.00     0.129 C 
BRANCH  32  33
HETATM   33  C   UNL     1      -6.974  -0.883 -33.418  1.00  0.00     0.048 C 
BRANCH  33  34
HETATM   34  C   UNL     1      -5.898  -1.009 -34.504  1.00  0.00     0.236 C 
BRANCH  34  35
HETATM   35  N   UNL     1      -5.490  -2.422 -34.809  1.00  0.00    -0.067 N 
HETATM   36  H   UNL     1      -5.169  -2.456 -35.800  1.00  0.00     0.280 HD
HETATM   37  C   UNL     1      -4.397  -2.978 -33.917  1.00  0.00     0.261 C 
HETATM   38  C   UNL     1      -4.065  -4.417 -34.330  1.00  0.00     0.195 C 
HETATM   39  O   UNL     1      -5.230  -5.248 -34.290  1.00  0.00    -0.388 OA
HETATM   40  C   UNL     1      -6.234  -4.779 -35.199  1.00  0.00     0.195 C 
HETATM   41  C   UNL     1      -6.694  -3.370 -34.811  1.00  0.00     0.261 C 
ENDBRANCH  34  35
ENDBRANCH  33  34
ENDBRANCH  32  33
ENDBRANCH   3  32
TORSDOF 11
ENDMDL
MODEL 3
REMARK VINA RESULT:      -8.6      1.876      7.424
REMARK  11 active torsions:
REMARK  status: ('A' for Active; 'I' for Inactive)
REMARK    1  A    between atoms: C_3  and  C_4 
REMARK    2  A    between atoms: C_4  and  O_5 
REMARK    3  A    between atoms: C_12  and  C_13 
REMARK    4  A    between atoms: C_13  and  C_14 
REMARK    5  A    between atoms: C_15  and  C_16 
REMARK    6  A    between atoms: C_18  and  N_19 
REMARK    7  A    between atoms: N_25  and  C_26 
REMARK    8  A    between atoms: C_26  and  C_27 
REMARK    9  A    between atoms: C_27  and  C_28 
REMARK   10  A    between atoms: C_28  and  N_29 
REMARK   11  A    between atoms: C_38  and  O_39 
ROOT
HETATM    1  C   UNL     1      -5.145   2.194 -31.212  1.00  0.00     0.059 A 
HETATM    2  C   UNL     1      -5.367   3.480 -31.976  1.00  0.00     0.161 A 
HETATM    3  N   UNL     1      -6.536   4.015 -31.296  1.00  0.00    -0.333 N 
HETATM    4  C   UNL     1      -6.946   3.197 -30.268  1.00  0.00     0.278 A 
HETATM    5  O   UNL     1      -7.980   3.337 -29.631  1.00  0.00    -0.265 OA
HETATM    6  C   UNL     1      -6.050   2.018 -30.233  1.00  0.00     0.146 A 
ENDROOT
BRANCH   1   7
HETATM    7  C   UNL     1      -4.117   1.287 -31.774  1.00  0.00     0.196 C 
HETATM    8  O   UNL     1      -2.935   1.498 -31.527  1.00  0.00    -0.287 OA
BRANCH   7   9
HETATM    9  C   UNL     1      -4.551   0.255 -32.709  1.00  0.00     0.045 A 
HETATM   10  C   UNL     1      -4.055  -1.100 -32.745  1.00  0.00    -0.013 A 
HETATM   11  C   UNL     1      -3.005  -1.666 -31.843  1.00  0.00     0.052 C 
HETATM   12  C   UNL     1      -4.744  -1.777 -33.747  1.00  0.00     0.115 A 
HETATM   13  N   UNL     1      -5.625  -0.876 -34.303  1.00  0.00    -0.354 N 
HETATM   14  H   UNL     1      -6.274  -1.123 -35.042  1.00  0.00     0.166 HD
HETATM   15  C   UNL     1      -5.551   0.340 -33.670  1.00  0.00     0.020 A 
HETATM   16  C   UNL     1      -6.494   1.428 -34.052  1.00  0.00     0.069 C 
BRANCH  12  17
HETATM   17  C   UNL     1      -4.701  -3.142 -34.230  1.00  0.00     0.310 C 
HETATM   18  O   UNL     1      -3.948  -3.996 -33.782  1.00  0.00    -0.258 OA
BRANCH  17  19
HETATM   19  O   UNL     1      -5.597  -3.335 -35.232  1.00  0.00    -0.321 OA
HETATM   20  C   UNL     1      -6.494  -4.424 -35.012  1.00  0.00     0.213 C 
ENDBRANCH  17  19
ENDBRANCH  12  17
ENDBRANCH   7   9
ENDBRANCH   1   7
BRANCH   2  21
HETATM   21  C   UNL     1      -4.216   4.472 -31.993  1.00  0.00    -0.028 A 
HETATM   22  C   UNL     1      -3.404   4.669 -33.122  1.00  0.00     0.045 A 
HETATM   23  C   UNL     1      -2.393   5.646 -33.109  1.00  0.00     0.103 A 
HETATM   24  C   UNL     1      -2.139   6.396 -31.957  1.00  0.00     0.036 A 
HETATM   25  C   UNL     1      -2.911   6.175 -30.819  1.00  0.00     0.003 A 
HETATM   26  C   UNL     1      -3.944   5.231 -30.841  1.00  0.00     0.010 A 
BRANCH  23  27
HETATM   27  N   UNL     1      -1.617   5.899 -34.330  1.00  0.00    -0.116 N 
HETATM   28  O   UNL     1      -0.906   6.914 -34.352  1.00  0.00    -0.532 OA
HETATM   29  O   UNL     1      -1.718   5.086 -35.258  1.00  0.00    -0.532 OA
ENDBRANCH  23  27
ENDBRANCH   2  21
BRANCH   6  30
HETATM   30  O   UNL     1      -6.332   0.951 -29.435  1.00  0.00    -0.355 OA
HETATM   31  H   UNL     1      -5.553   0.379 -29.327  1.00  0.00     0.218 HD
ENDBRANCH   6  30
BRANCH   3  32
HETATM   32  C   UNL     1      -7.385   5.057 -31.848  1.00  0.00     0.129 C 
BRANCH  32  33
HETATM   33  C   UNL     1      -8.084   4.669 -33.159  1.00  0.00     0.048 C 
BRANCH  33  34
HETATM   34  C   UNL     1      -9.590   4.383 -33.105  1.00  0.00     0.236 C 
BRANCH  34  35
HETATM   35  N   UNL     1      -9.971   2.993 -33.532  1.00  0.00    -0.067 N 
HETATM   36  H   UNL     1      -9.421   2.759 -34.385  1.00  0.00     0.280 HD
HETATM   37  C   UNL     1      -9.741   1.918 -32.486  1.00  0.00     0.261 C 
HETATM   38  C   UNL     1     -10.158   0.551 -33.040  1.00  0.00     0.195 C 
HETATM   39  O   UNL     1     -11.524   0.562 -33.471  1.00  0.00    -0.388 OA
HETATM   40  C   UNL     1     -11.729   1.514 -34.522  1.00  0.00     0.195 C 
HETATM   41  C   UNL     1     -11.417   2.933 -34.033  1.00  0.00     0.261 C 
ENDBRANCH  34  35
ENDBRANCH  33  34
ENDBRANCH  32  33
ENDBRANCH   3  32
TORSDOF 11
ENDMDL
MODEL 4
REMARK VINA RESULT:      -8.6      2.131      6.789
REMARK  11 active torsions:
REMARK  status: ('A' for Active; 'I' for Inactive)
REMARK    1  A    between atoms: C_3  and  C_4 
REMARK    2  A    between atoms: C_4  and  O_5 
REMARK    3  A    between atoms: C_12  and  C_13 
REMARK    4  A    between atoms: C_13  and  C_14 
REMARK    5  A    between atoms: C_15  and  C_16 
REMARK    6  A    between atoms: C_18  and  N_19 
REMARK    7  A    between atoms: N_25  and  C_26 
REMARK    8  A    between atoms: C_26  and  C_27 
REMARK    9  A    between atoms: C_27  and  C_28 
REMARK   10  A    between atoms: C_28  and  N_29 
REMARK   11  A    between atoms: C_38  and  O_39 
ROOT
HETATM    1  C   UNL     1      -6.333   2.537 -32.317  1.00  0.00     0.059 A 
HETATM    2  C   UNL     1      -5.893   3.981 -32.216  1.00  0.00     0.161 A 
HETATM    3  N   UNL     1      -6.452   4.358 -30.929  1.00  0.00    -0.333 N 
HETATM    4  C   UNL     1      -7.108   3.306 -30.330  1.00  0.00     0.278 A 
HETATM    5  O   UNL     1      -7.784   3.388 -29.315  1.00  0.00    -0.265 OA
HETATM    6  C   UNL     1      -7.037   2.141 -31.243  1.00  0.00     0.146 A 
ENDROOT
BRANCH   1   7
HETATM    7  C   UNL     1      -6.083   1.883 -33.623  1.00  0.00     0.196 C 
HETATM    8  O   UNL     1      -6.286   2.514 -34.656  1.00  0.00    -0.287 OA
BRANCH   7   9
HETATM    9  C   UNL     1      -5.730   0.469 -33.626  1.00  0.00     0.045 A 
HETATM   10  C   UNL     1      -6.457  -0.572 -34.312  1.00  0.00    -0.013 A 
HETATM   11  C   UNL     1      -7.700  -0.376 -35.120  1.00  0.00     0.052 C 
HETATM   12  C   UNL     1      -5.781  -1.770 -34.102  1.00  0.00     0.115 A 
HETATM   13  N   UNL     1      -4.686  -1.478 -33.320  1.00  0.00    -0.354 N 
HETATM   14  H   UNL     1      -4.003  -2.176 -33.044  1.00  0.00     0.166 HD
HETATM   15  C   UNL     1      -4.615  -0.133 -33.053  1.00  0.00     0.020 A 
HETATM   16  C   UNL     1      -3.447   0.409 -32.305  1.00  0.00     0.069 C 
BRANCH  12  17
HETATM   17  C   UNL     1      -6.011  -3.129 -34.550  1.00  0.00     0.310 C 
HETATM   18  O   UNL     1      -7.113  -3.660 -34.563  1.00  0.00    -0.258 OA
BRANCH  17  19
HETATM   19  O   UNL     1      -4.852  -3.717 -34.945  1.00  0.00    -0.321 OA
HETATM   20  C   UNL     1      -4.527  -4.907 -34.228  1.00  0.00     0.213 C 
ENDBRANCH  17  19
ENDBRANCH  12  17
ENDBRANCH   7   9
ENDBRANCH   1   7
BRANCH   2  21
HETATM   21  C   UNL     1      -4.399   4.246 -32.288  1.00  0.00    -0.028 A 
HETATM   22  C   UNL     1      -3.798   4.907 -33.371  1.00  0.00     0.045 A 
HETATM   23  C   UNL     1      -2.420   5.186 -33.359  1.00  0.00     0.103 A 
HETATM   24  C   UNL     1      -1.614   4.760 -32.299  1.00  0.00     0.036 A 
HETATM   25  C   UNL     1      -2.195   4.065 -31.241  1.00  0.00     0.003 A 
HETATM   26  C   UNL     1      -3.572   3.820 -31.231  1.00  0.00     0.010 A 
BRANCH  23  27
HETATM   27  N   UNL     1      -1.829   5.959 -34.460  1.00  0.00    -0.116 N 
HETATM   28  O   UNL     1      -1.334   5.322 -35.401  1.00  0.00    -0.532 OA
HETATM   29  O   UNL     1      -1.862   7.194 -34.381  1.00  0.00    -0.532 OA
ENDBRANCH  23  27
ENDBRANCH   2  21
BRANCH   6  30
HETATM   30  O   UNL     1      -7.759   1.014 -30.992  1.00  0.00    -0.355 OA
HETATM   31  H   UNL     1      -7.463   0.276 -31.552  1.00  0.00     0.218 HD
ENDBRANCH   6  30
BRANCH   3  32
HETATM   32  C   UNL     1      -6.631   5.734 -30.497  1.00  0.00     0.129 C 
BRANCH  32  33
HETATM   33  C   UNL     1      -7.574   6.554 -31.390  1.00  0.00     0.048 C 
BRANCH  33  34
HETATM   34  C   UNL     1      -9.083   6.345 -31.212  1.00  0.00     0.236 C 
BRANCH  34  35
HETATM   35  N   UNL     1      -9.731   5.551 -32.311  1.00  0.00    -0.067 N 
HETATM   36  H   UNL     1     -10.618   6.031 -32.571  1.00  0.00     0.280 HD
HETATM   37  C   UNL     1      -8.883   5.373 -33.556  1.00  0.00     0.261 C 
HETATM   38  C   UNL     1      -9.652   4.557 -34.601  1.00  0.00     0.195 C 
HETATM   39  O   UNL     1     -10.057   3.290 -34.073  1.00  0.00    -0.388 OA
HETATM   40  C   UNL     1     -10.933   3.452 -32.949  1.00  0.00     0.195 C 
HETATM   41  C   UNL     1     -10.217   4.187 -31.811  1.00  0.00     0.261 C 
ENDBRANCH  34  35
ENDBRANCH  33  34
ENDBRANCH  32  33
ENDBRANCH   3  32
TORSDOF 11
ENDMDL
MODEL 5
REMARK VINA RESULT:      -8.5      2.842      6.410
REMARK  11 active torsions:
REMARK  status: ('A' for Active; 'I' for Inactive)
REMARK    1  A    between atoms: C_3  and  C_4 
REMARK    2  A    between atoms: C_4  and  O_5 
REMARK    3  A    between atoms: C_12  and  C_13 
REMARK    4  A    between atoms: C_13  and  C_14 
REMARK    5  A    between atoms: C_15  and  C_16 
REMARK    6  A    between atoms: C_18  and  N_19 
REMARK    7  A    between atoms: N_25  and  C_26 
REMARK    8  A    between atoms: C_26  and  C_27 
REMARK    9  A    between atoms: C_27  and  C_28 
REMARK   10  A    between atoms: C_28  and  N_29 
REMARK   11  A    between atoms: C_38  and  O_39 
ROOT
HETATM    1  C   UNL     1      -6.239   2.994 -32.171  1.00  0.00     0.059 A 
HETATM    2  C   UNL     1      -5.706   4.405 -32.052  1.00  0.00     0.161 A 
HETATM    3  N   UNL     1      -6.190   4.781 -30.735  1.00  0.00    -0.333 N 
HETATM    4  C   UNL     1      -6.886   3.755 -30.135  1.00  0.00     0.278 A 
HETATM    5  O   UNL     1      -7.516   3.851 -29.093  1.00  0.00    -0.265 OA
HETATM    6  C   UNL     1      -6.923   2.613 -31.079  1.00  0.00     0.146 A 
ENDROOT
BRANCH   1   7
HETATM    7  C   UNL     1      -6.081   2.362 -33.502  1.00  0.00     0.196 C 
HETATM    8  O   UNL     1      -6.201   3.052 -34.509  1.00  0.00    -0.287 OA
BRANCH   7   9
HETATM    9  C   UNL     1      -5.918   0.914 -33.558  1.00  0.00     0.045 A 
HETATM   10  C   UNL     1      -4.705   0.198 -33.241  1.00  0.00    -0.013 A 
HETATM   11  C   UNL     1      -3.413   0.821 -32.819  1.00  0.00     0.052 C 
HETATM   12  C   UNL     1      -4.968  -1.161 -33.379  1.00  0.00     0.115 A 
HETATM   13  N   UNL     1      -6.286  -1.275 -33.763  1.00  0.00    -0.354 N 
HETATM   14  H   UNL     1      -6.744  -2.170 -33.904  1.00  0.00     0.166 HD
HETATM   15  C   UNL     1      -6.885  -0.043 -33.841  1.00  0.00     0.020 A 
HETATM   16  C   UNL     1      -8.340   0.051 -34.144  1.00  0.00     0.069 C 
BRANCH  12  17
HETATM   17  C   UNL     1      -4.165  -2.351 -33.177  1.00  0.00     0.310 C 
HETATM   18  O   UNL     1      -4.082  -3.258 -33.994  1.00  0.00    -0.258 OA
BRANCH  17  19
HETATM   19  O   UNL     1      -3.533  -2.317 -31.976  1.00  0.00    -0.321 OA
HETATM   20  C   UNL     1      -2.877  -3.535 -31.626  1.00  0.00     0.213 C 
ENDBRANCH  17  19
ENDBRANCH  12  17
ENDBRANCH   7   9
ENDBRANCH   1   7
BRANCH   2  21
HETATM   21  C   UNL     1      -4.202   4.581 -32.178  1.00  0.00    -0.028 A 
HETATM   22  C   UNL     1      -3.610   5.329 -33.208  1.00  0.00     0.045 A 
HETATM   23  C   UNL     1      -2.218   5.516 -33.242  1.00  0.00     0.103 A 
HETATM   24  C   UNL     1      -1.392   4.913 -32.289  1.00  0.00     0.036 A 
HETATM   25  C   UNL     1      -1.968   4.132 -31.289  1.00  0.00     0.003 A 
HETATM   26  C   UNL     1      -3.357   3.977 -31.229  1.00  0.00     0.010 A 
BRANCH  23  27
HETATM   27  N   UNL     1      -1.628   6.379 -34.275  1.00  0.00    -0.116 N 
HETATM   28  O   UNL     1      -1.713   7.604 -34.110  1.00  0.00    -0.532 OA
HETATM   29  O   UNL     1      -1.085   5.832 -35.244  1.00  0.00    -0.532 OA
ENDBRANCH  23  27
ENDBRANCH   2  21
BRANCH   6  30
HETATM   30  O   UNL     1      -7.704   1.526 -30.827  1.00  0.00    -0.355 OA
HETATM   31  H   UNL     1      -8.520   1.552 -31.354  1.00  0.00     0.218 HD
ENDBRANCH   6  30
BRANCH   3  32
HETATM   32  C   UNL     1      -6.267   6.153 -30.263  1.00  0.00     0.129 C 
BRANCH  32  33
HETATM   33  C   UNL     1      -5.329   6.467 -29.088  1.00  0.00     0.048 C 
BRANCH  33  34
HETATM   34  C   UNL     1      -3.953   7.059 -29.415  1.00  0.00     0.236 C 
BRANCH  34  35
HETATM   35  N   UNL     1      -2.864   6.657 -28.461  1.00  0.00    -0.067 N 
HETATM   36  H   UNL     1      -2.884   5.619 -28.372  1.00  0.00     0.280 HD
HETATM   37  C   UNL     1      -1.467   7.090 -28.866  1.00  0.00     0.261 C 
HETATM   38  C   UNL     1      -0.449   6.616 -27.822  1.00  0.00     0.195 C 
HETATM   39  O   UNL     1      -0.779   7.106 -26.518  1.00  0.00    -0.388 OA
HETATM   40  C   UNL     1      -2.060   6.627 -26.092  1.00  0.00     0.195 C 
HETATM   41  C   UNL     1      -3.162   7.125 -27.033  1.00  0.00     0.261 C 
ENDBRANCH  34  35
ENDBRANCH  33  34
ENDBRANCH  32  33
ENDBRANCH   3  32
TORSDOF 11
ENDMDL
MODEL 6
REMARK VINA RESULT:      -8.4      2.046      2.855
REMARK  11 active torsions:
REMARK  status: ('A' for Active; 'I' for Inactive)
REMARK    1  A    between atoms: C_3  and  C_4 
REMARK    2  A    between atoms: C_4  and  O_5 
REMARK    3  A    between atoms: C_12  and  C_13 
REMARK    4  A    between atoms: C_13  and  C_14 
REMARK    5  A    between atoms: C_15  and  C_16 
REMARK    6  A    between atoms: C_18  and  N_19 
REMARK    7  A    between atoms: N_25  and  C_26 
REMARK    8  A    between atoms: C_26  and  C_27 
REMARK    9  A    between atoms: C_27  and  C_28 
REMARK   10  A    between atoms: C_28  and  N_29 
REMARK   11  A    between atoms: C_38  and  O_39 
ROOT
HETATM    1  C   UNL     1      -8.804   3.687 -32.244  1.00  0.00     0.059 A 
HETATM    2  C   UNL     1      -7.315   3.510 -32.051  1.00  0.00     0.161 A 
HETATM    3  N   UNL     1      -7.086   4.311 -30.861  1.00  0.00    -0.333 N 
HETATM    4  C   UNL     1      -8.253   4.869 -30.389  1.00  0.00     0.278 A 
HETATM    5  O   UNL     1      -8.321   5.696 -29.492  1.00  0.00    -0.265 OA
HETATM    6  C   UNL     1      -9.352   4.470 -31.299  1.00  0.00     0.146 A 
ENDROOT
BRANCH   1   7
HETATM    7  C   UNL     1      -9.355   3.138 -33.505  1.00  0.00     0.196 C 
HETATM    8  O   UNL     1      -8.871   3.496 -34.574  1.00  0.00    -0.287 OA
BRANCH   7   9
HETATM    9  C   UNL     1     -10.539   2.291 -33.426  1.00  0.00     0.045 A 
HETATM   10  C   UNL     1     -11.894   2.726 -33.669  1.00  0.00    -0.013 A 
HETATM   11  C   UNL     1     -12.309   4.117 -34.027  1.00  0.00     0.052 C 
HETATM   12  C   UNL     1     -12.725   1.618 -33.532  1.00  0.00     0.115 A 
HETATM   13  N   UNL     1     -11.916   0.549 -33.218  1.00  0.00    -0.354 N 
HETATM   14  H   UNL     1     -12.270  -0.393 -33.093  1.00  0.00     0.166 HD
HETATM   15  C   UNL     1     -10.595   0.923 -33.185  1.00  0.00     0.020 A 
HETATM   16  C   UNL     1      -9.543  -0.107 -32.963  1.00  0.00     0.069 C 
BRANCH  12  17
HETATM   17  C   UNL     1     -14.154   1.429 -33.677  1.00  0.00     0.310 C 
HETATM   18  O   UNL     1     -14.692   1.116 -34.731  1.00  0.00    -0.258 OA
BRANCH  17  19
HETATM   19  O   UNL     1     -14.799   1.646 -32.502  1.00  0.00    -0.321 OA
HETATM   20  C   UNL     1     -16.146   2.095 -32.648  1.00  0.00     0.213 C 
ENDBRANCH  17  19
ENDBRANCH  12  17
ENDBRANCH   7   9
ENDBRANCH   1   7
BRANCH   2  21
HETATM   21  C   UNL     1      -6.812   2.085 -31.884  1.00  0.00    -0.028 A 
HETATM   22  C   UNL     1      -6.324   1.323 -32.958  1.00  0.00     0.045 A 
HETATM   23  C   UNL     1      -5.809   0.034 -32.739  1.00  0.00     0.103 A 
HETATM   24  C   UNL     1      -5.828  -0.536 -31.463  1.00  0.00     0.036 A 
HETATM   25  C   UNL     1      -6.351   0.196 -30.399  1.00  0.00     0.003 A 
HETATM   26  C   UNL     1      -6.827   1.495 -30.607  1.00  0.00     0.010 A 
BRANCH  23  27
HETATM   27  N   UNL     1      -5.220  -0.710 -33.861  1.00  0.00    -0.116 N 
HETATM   28  O   UNL     1      -5.963  -0.984 -34.814  1.00  0.00    -0.532 OA
HETATM   29  O   UNL     1      -4.023  -1.014 -33.787  1.00  0.00    -0.532 OA
ENDBRANCH  23  27
ENDBRANCH   2  21
BRANCH   6  30
HETATM   30  O   UNL     1     -10.589   5.028 -31.183  1.00  0.00    -0.355 OA
HETATM   31  H   UNL     1     -11.250   4.521 -31.684  1.00  0.00     0.218 HD
ENDBRANCH   6  30
BRANCH   3  32
HETATM   32  C   UNL     1      -5.775   4.777 -30.440  1.00  0.00     0.129 C 
BRANCH  32  33
HETATM   33  C   UNL     1      -4.796   5.027 -31.597  1.00  0.00     0.048 C 
BRANCH  33  34
HETATM   34  C   UNL     1      -3.391   4.425 -31.482  1.00  0.00     0.236 C 
BRANCH  34  35
HETATM   35  N   UNL     1      -2.359   5.095 -32.346  1.00  0.00    -0.067 N 
HETATM   36  H   UNL     1      -1.420   4.778 -32.026  1.00  0.00     0.280 HD
HETATM   37  C   UNL     1      -2.494   4.821 -33.832  1.00  0.00     0.261 C 
HETATM   38  C   UNL     1      -1.386   5.550 -34.602  1.00  0.00     0.195 C 
HETATM   39  O   UNL     1      -1.411   6.956 -34.336  1.00  0.00    -0.388 OA
HETATM   40  C   UNL     1      -1.194   7.226 -32.946  1.00  0.00     0.195 C 
HETATM   41  C   UNL     1      -2.309   6.606 -32.096  1.00  0.00     0.261 C 
ENDBRANCH  34  35
ENDBRANCH  33  34
ENDBRANCH  32  33
ENDBRANCH   3  32
TORSDOF 11
ENDMDL
MODEL 7
REMARK VINA RESULT:      -8.4     16.795     19.899
REMARK  11 active torsions:
REMARK  status: ('A' for Active; 'I' for Inactive)
REMARK    1  A    between atoms: C_3  and  C_4 
REMARK    2  A    between atoms: C_4  and  O_5 
REMARK    3  A    between atoms: C_12  and  C_13 
REMARK    4  A    between atoms: C_13  and  C_14 
REMARK    5  A    between atoms: C_15  and  C_16 
REMARK    6  A    between atoms: C_18  and  N_19 
REMARK    7  A    between atoms: N_25  and  C_26 
REMARK    8  A    between atoms: C_26  and  C_27 
REMARK    9  A    between atoms: C_27  and  C_28 
REMARK   10  A    between atoms: C_28  and  N_29 
REMARK   11  A    between atoms: C_38  and  O_39 
ROOT
HETATM    1  C   UNL     1      -4.158 -13.407 -37.117  1.00  0.00     0.059 A 
HETATM    2  C   UNL     1      -4.863 -14.401 -38.015  1.00  0.00     0.161 A 
HETATM    3  N   UNL     1      -5.971 -14.809 -37.169  1.00  0.00    -0.333 N 
HETATM    4  C   UNL     1      -5.958 -14.153 -35.958  1.00  0.00     0.278 A 
HETATM    5  O   UNL     1      -6.689 -14.412 -35.014  1.00  0.00    -0.265 OA
HETATM    6  C   UNL     1      -4.775 -13.262 -35.932  1.00  0.00     0.146 A 
ENDROOT
BRANCH   1   7
HETATM    7  C   UNL     1      -2.848 -12.920 -37.609  1.00  0.00     0.196 C 
HETATM    8  O   UNL     1      -2.743 -11.754 -37.975  1.00  0.00    -0.287 OA
BRANCH   7   9
HETATM    9  C   UNL     1      -1.769 -13.889 -37.761  1.00  0.00     0.045 A 
HETATM   10  C   UNL     1      -1.085 -14.189 -38.996  1.00  0.00    -0.013 A 
HETATM   11  C   UNL     1      -1.378 -13.570 -40.325  1.00  0.00     0.052 C 
HETATM   12  C   UNL     1      -0.101 -15.133 -38.716  1.00  0.00     0.115 A 
HETATM   13  N   UNL     1      -0.177 -15.400 -37.367  1.00  0.00    -0.354 N 
HETATM   14  H   UNL     1       0.455 -16.038 -36.894  1.00  0.00     0.166 HD
HETATM   15  C   UNL     1      -1.148 -14.637 -36.768  1.00  0.00     0.020 A 
HETATM   16  C   UNL     1      -1.327 -14.700 -35.290  1.00  0.00     0.069 C 
BRANCH  12  17
HETATM   17  C   UNL     1       0.902 -15.790 -39.530  1.00  0.00     0.310 C 
HETATM   18  O   UNL     1       1.804 -15.195 -40.104  1.00  0.00    -0.258 OA
BRANCH  17  19
HETATM   19  O   UNL     1       0.700 -17.132 -39.567  1.00  0.00    -0.321 OA
HETATM   20  C   UNL     1      -0.499 -17.525 -40.234  1.00  0.00     0.213 C 
ENDBRANCH  17  19
ENDBRANCH  12  17
ENDBRANCH   7   9
ENDBRANCH   1   7
BRANCH   2  21
HETATM   21  C   UNL     1      -5.336 -13.886 -39.364  1.00  0.00    -0.028 A 
HETATM   22  C   UNL     1      -4.918 -14.453 -40.579  1.00  0.00     0.045 A 
HETATM   23  C   UNL     1      -5.436 -13.983 -41.798  1.00  0.00     0.103 A 
HETATM   24  C   UNL     1      -6.329 -12.908 -41.829  1.00  0.00     0.036 A 
HETATM   25  C   UNL     1      -6.714 -12.311 -40.630  1.00  0.00     0.003 A 
HETATM   26  C   UNL     1      -6.231 -12.802 -39.413  1.00  0.00     0.010 A 
BRANCH  23  27
HETATM   27  N   UNL     1      -5.055 -14.650 -43.051  1.00  0.00    -0.116 N 
HETATM   28  O   UNL     1      -5.755 -15.603 -43.424  1.00  0.00    -0.532 OA
HETATM   29  O   UNL     1      -4.064 -14.222 -43.656  1.00  0.00    -0.532 OA
ENDBRANCH  23  27
ENDBRANCH   2  21
BRANCH   6  30
HETATM   30  O   UNL     1      -4.406 -12.628 -34.785  1.00  0.00    -0.355 OA
HETATM   31  H   UNL     1      -4.644 -11.685 -34.813  1.00  0.00     0.218 HD
ENDBRANCH   6  30
BRANCH   3  32
HETATM   32  C   UNL     1      -6.763 -16.007 -37.396  1.00  0.00     0.129 C 
BRANCH  32  33
HETATM   33  C   UNL     1      -8.122 -15.744 -38.059  1.00  0.00     0.048 C 
BRANCH  33  34
HETATM   34  C   UNL     1      -8.262 -16.074 -39.551  1.00  0.00     0.236 C 
BRANCH  34  35
HETATM   35  N   UNL     1      -9.268 -15.229 -40.279  1.00  0.00    -0.067 N 
HETATM   36  H   UNL     1      -8.775 -14.746 -41.060  1.00  0.00     0.280 HD
HETATM   37  C   UNL     1     -10.455 -15.989 -40.840  1.00  0.00     0.261 C 
HETATM   38  C   UNL     1     -11.402 -15.023 -41.563  1.00  0.00     0.195 C 
HETATM   39  O   UNL     1     -11.832 -13.972 -40.692  1.00  0.00    -0.388 OA
HETATM   40  C   UNL     1     -10.722 -13.193 -40.229  1.00  0.00     0.195 C 
HETATM   41  C   UNL     1      -9.757 -14.062 -39.415  1.00  0.00     0.261 C 
ENDBRANCH  34  35
ENDBRANCH  33  34
ENDBRANCH  32  33
ENDBRANCH   3  32
TORSDOF 11
ENDMDL
MODEL 8
REMARK VINA RESULT:      -8.3      2.818      6.385
REMARK  11 active torsions:
REMARK  status: ('A' for Active; 'I' for Inactive)
REMARK    1  A    between atoms: C_3  and  C_4 
REMARK    2  A    between atoms: C_4  and  O_5 
REMARK    3  A    between atoms: C_12  and  C_13 
REMARK    4  A    between atoms: C_13  and  C_14 
REMARK    5  A    between atoms: C_15  and  C_16 
REMARK    6  A    between atoms: C_18  and  N_19 
REMARK    7  A    between atoms: N_25  and  C_26 
REMARK    8  A    between atoms: C_26  and  C_27 
REMARK    9  A    between atoms: C_27  and  C_28 
REMARK   10  A    between atoms: C_28  and  N_29 
REMARK   11  A    between atoms: C_38  and  O_39 
ROOT
HETATM    1  C   UNL     1      -5.086   2.539 -30.942  1.00  0.00     0.059 A 
HETATM    2  C   UNL     1      -5.982   3.632 -30.402  1.00  0.00     0.161 A 
HETATM    3  N   UNL     1      -5.221   4.820 -30.751  1.00  0.00    -0.333 N 
HETATM    4  C   UNL     1      -4.058   4.503 -31.418  1.00  0.00     0.278 A 
HETATM    5  O   UNL     1      -3.173   5.298 -31.698  1.00  0.00    -0.265 OA
HETATM    6  C   UNL     1      -3.976   3.028 -31.522  1.00  0.00     0.146 A 
ENDROOT
BRANCH   1   7
HETATM    7  C   UNL     1      -5.481   1.156 -30.586  1.00  0.00     0.196 C 
HETATM    8  O   UNL     1      -5.601   0.855 -29.403  1.00  0.00    -0.287 OA
BRANCH   7   9
HETATM    9  C   UNL     1      -5.583   0.174 -31.659  1.00  0.00     0.045 A 
HETATM   10  C   UNL     1      -4.529  -0.719 -32.075  1.00  0.00    -0.013 A 
HETATM   11  C   UNL     1      -3.155  -0.774 -31.489  1.00  0.00     0.052 C 
HETATM   12  C   UNL     1      -5.032  -1.521 -33.096  1.00  0.00     0.115 A 
HETATM   13  N   UNL     1      -6.339  -1.137 -33.296  1.00  0.00    -0.354 N 
HETATM   14  H   UNL     1      -6.949  -1.588 -33.970  1.00  0.00     0.166 HD
HETATM   15  C   UNL     1      -6.702  -0.145 -32.419  1.00  0.00     0.020 A 
HETATM   16  C   UNL     1      -8.109   0.343 -32.400  1.00  0.00     0.069 C 
BRANCH  12  17
HETATM   17  C   UNL     1      -4.464  -2.599 -33.879  1.00  0.00     0.310 C 
HETATM   18  O   UNL     1      -4.669  -2.748 -35.076  1.00  0.00    -0.258 OA
BRANCH  17  19
HETATM   19  O   UNL     1      -3.688  -3.406 -33.111  1.00  0.00    -0.321 OA
HETATM   20  C   UNL     1      -3.476  -4.707 -33.658  1.00  0.00     0.213 C 
ENDBRANCH  17  19
ENDBRANCH  12  17
ENDBRANCH   7   9
ENDBRANCH   1   7
BRANCH   2  21
HETATM   21  C   UNL     1      -7.400   3.684 -30.946  1.00  0.00    -0.028 A 
HETATM   22  C   UNL     1      -7.693   4.086 -32.259  1.00  0.00     0.045 A 
HETATM   23  C   UNL     1      -9.015   4.053 -32.735  1.00  0.00     0.103 A 
HETATM   24  C   UNL     1     -10.068   3.679 -31.894  1.00  0.00     0.036 A 
HETATM   25  C   UNL     1      -9.791   3.322 -30.576  1.00  0.00     0.003 A 
HETATM   26  C   UNL     1      -8.471   3.315 -30.112  1.00  0.00     0.010 A 
BRANCH  23  27
HETATM   27  N   UNL     1      -9.287   4.389 -34.139  1.00  0.00    -0.116 N 
HETATM   28  O   UNL     1      -8.656   5.336 -34.630  1.00  0.00    -0.532 OA
HETATM   29  O   UNL     1     -10.126   3.708 -34.744  1.00  0.00    -0.532 OA
ENDBRANCH  23  27
ENDBRANCH   2  21
BRANCH   6  30
HETATM   30  O   UNL     1      -2.842   2.423 -31.970  1.00  0.00    -0.355 OA
HETATM   31  H   UNL     1      -2.059   2.973 -31.794  1.00  0.00     0.218 HD
ENDBRANCH   6  30
BRANCH   3  32
HETATM   32  C   UNL     1      -5.446   6.128 -30.158  1.00  0.00     0.129 C 
BRANCH  32  33
HETATM   33  C   UNL     1      -4.764   6.325 -28.796  1.00  0.00     0.048 C 
BRANCH  33  34
HETATM   34  C   UNL     1      -3.555   7.267 -28.737  1.00  0.00     0.236 C 
BRANCH  34  35
HETATM   35  N   UNL     1      -2.276   6.604 -28.308  1.00  0.00    -0.067 N 
HETATM   36  H   UNL     1      -2.467   5.586 -28.189  1.00  0.00     0.280 HD
HETATM   37  C   UNL     1      -1.113   6.779 -29.267  1.00  0.00     0.261 C 
HETATM   38  C   UNL     1       0.125   6.054 -28.726  1.00  0.00     0.195 C 
HETATM   39  O   UNL     1       0.467   6.522 -27.417  1.00  0.00    -0.388 OA
HETATM   40  C   UNL     1      -0.594   6.278 -26.485  1.00  0.00     0.195 C 
HETATM   41  C   UNL     1      -1.860   7.037 -26.899  1.00  0.00     0.261 C 
ENDBRANCH  34  35
ENDBRANCH  33  34
ENDBRANCH  32  33
ENDBRANCH   3  32
TORSDOF 11
ENDMDL
MODEL 9
REMARK VINA RESULT:      -8.3      2.297      5.722
REMARK  11 active torsions:
REMARK  status: ('A' for Active; 'I' for Inactive)
REMARK    1  A    between atoms: C_3  and  C_4 
REMARK    2  A    between atoms: C_4  and  O_5 
REMARK    3  A    between atoms: C_12  and  C_13 
REMARK    4  A    between atoms: C_13  and  C_14 
REMARK    5  A    between atoms: C_15  and  C_16 
REMARK    6  A    between atoms: C_18  and  N_19 
REMARK    7  A    between atoms: N_25  and  C_26 
REMARK    8  A    between atoms: C_26  and  C_27 
REMARK    9  A    between atoms: C_27  and  C_28 
REMARK   10  A    between atoms: C_28  and  N_29 
REMARK   11  A    between atoms: C_38  and  O_39 
ROOT
HETATM    1  C   UNL     1      -5.135   1.925 -30.997  1.00  0.00     0.059 A 
HETATM    2  C   UNL     1      -5.942   3.165 -30.684  1.00  0.00     0.161 A 
HETATM    3  N   UNL     1      -4.918   4.194 -30.750  1.00  0.00    -0.333 N 
HETATM    4  C   UNL     1      -3.688   3.669 -31.075  1.00  0.00     0.278 A 
HETATM    5  O   UNL     1      -2.635   4.289 -31.058  1.00  0.00    -0.265 OA
HETATM    6  C   UNL     1      -3.838   2.202 -31.218  1.00  0.00     0.146 A 
ENDROOT
BRANCH   1   7
HETATM    7  C   UNL     1      -5.850   0.638 -30.829  1.00  0.00     0.196 C 
HETATM    8  O   UNL     1      -6.126   0.251 -29.699  1.00  0.00    -0.287 OA
BRANCH   7   9
HETATM    9  C   UNL     1      -6.078  -0.179 -32.015  1.00  0.00     0.045 A 
HETATM   10  C   UNL     1      -5.130  -1.106 -32.585  1.00  0.00    -0.013 A 
HETATM   11  C   UNL     1      -3.753  -1.370 -32.066  1.00  0.00     0.052 C 
HETATM   12  C   UNL     1      -5.739  -1.714 -33.679  1.00  0.00     0.115 A 
HETATM   13  N   UNL     1      -7.006  -1.184 -33.776  1.00  0.00    -0.354 N 
HETATM   14  H   UNL     1      -7.676  -1.482 -34.478  1.00  0.00     0.166 HD
HETATM   15  C   UNL     1      -7.244  -0.287 -32.765  1.00  0.00     0.020 A 
HETATM   16  C   UNL     1      -8.594   0.327 -32.628  1.00  0.00     0.069 C 
BRANCH  12  17
HETATM   17  C   UNL     1      -5.302  -2.729 -34.617  1.00  0.00     0.310 C 
HETATM   18  O   UNL     1      -4.134  -3.063 -34.759  1.00  0.00    -0.258 OA
BRANCH  17  19
HETATM   19  O   UNL     1      -6.354  -3.246 -35.304  1.00  0.00    -0.321 OA
HETATM   20  C   UNL     1      -6.639  -4.610 -34.997  1.00  0.00     0.213 C 
ENDBRANCH  17  19
ENDBRANCH  12  17
ENDBRANCH   7   9
ENDBRANCH   1   7
BRANCH   2  21
HETATM   21  C   UNL     1      -7.114   3.467 -31.603  1.00  0.00    -0.028 A 
HETATM   22  C   UNL     1      -8.429   3.609 -31.132  1.00  0.00     0.045 A 
HETATM   23  C   UNL     1      -9.468   3.955 -32.014  1.00  0.00     0.103 A 
HETATM   24  C   UNL     1      -9.223   4.104 -33.382  1.00  0.00     0.036 A 
HETATM   25  C   UNL     1      -7.929   3.921 -33.864  1.00  0.00     0.003 A 
HETATM   26  C   UNL     1      -6.886   3.617 -32.983  1.00  0.00     0.010 A 
BRANCH  23  27
HETATM   27  N   UNL     1     -10.818   4.188 -31.485  1.00  0.00    -0.116 N 
HETATM   28  O   UNL     1     -11.757   3.601 -32.042  1.00  0.00    -0.532 OA
HETATM   29  O   UNL     1     -10.936   4.953 -30.519  1.00  0.00    -0.532 OA
ENDBRANCH  23  27
ENDBRANCH   2  21
BRANCH   6  30
HETATM   30  O   UNL     1      -2.746   1.400 -31.354  1.00  0.00    -0.355 OA
HETATM   31  H   UNL     1      -1.967   1.792 -30.923  1.00  0.00     0.218 HD
ENDBRANCH   6  30
BRANCH   3  32
HETATM   32  C   UNL     1      -5.072   5.525 -30.187  1.00  0.00     0.129 C 
BRANCH  32  33
HETATM   33  C   UNL     1      -5.385   6.613 -31.225  1.00  0.00     0.048 C 
BRANCH  33  34
HETATM   34  C   UNL     1      -4.256   7.578 -31.606  1.00  0.00     0.236 C 
BRANCH  34  35
HETATM   35  N   UNL     1      -3.105   6.930 -32.322  1.00  0.00    -0.067 N 
HETATM   36  H   UNL     1      -2.711   6.196 -31.696  1.00  0.00     0.280 HD
HETATM   37  C   UNL     1      -3.455   6.303 -33.658  1.00  0.00     0.261 C 
HETATM   38  C   UNL     1      -2.206   5.671 -34.284  1.00  0.00     0.195 C 
HETATM   39  O   UNL     1      -1.157   6.634 -34.430  1.00  0.00    -0.388 OA
HETATM   40  C   UNL     1      -0.759   7.166 -33.160  1.00  0.00     0.195 C 
HETATM   41  C   UNL     1      -1.928   7.897 -32.492  1.00  0.00     0.261 C 
ENDBRANCH  34  35
ENDBRANCH  33  34
ENDBRANCH  32  33
ENDBRANCH   3  32
TORSDOF 11
ENDMDL
MODEL 10
REMARK VINA RESULT:      -8.2      3.737      8.763
REMARK  11 active torsions:
REMARK  status: ('A' for Active; 'I' for Inactive)
REMARK    1  A    between atoms: C_3  and  C_4 
REMARK    2  A    between atoms: C_4  and  O_5 
REMARK    3  A    between atoms: C_12  and  C_13 
REMARK    4  A    between atoms: C_13  and  C_14 
REMARK    5  A    between atoms: C_15  and  C_16 
REMARK    6  A    between atoms: C_18  and  N_19 
REMARK    7  A    between atoms: N_25  and  C_26 
REMARK    8  A    between atoms: C_26  and  C_27 
REMARK    9  A    between atoms: C_27  and  C_28 
REMARK   10  A    between atoms: C_28  and  N_29 
REMARK   11  A    between atoms: C_38  and  O_39 
ROOT
HETATM    1  C   UNL     1      -5.226   6.815 -31.472  1.00  0.00     0.059 A 
HETATM    2  C   UNL     1      -4.210   5.695 -31.462  1.00  0.00     0.161 A 
HETATM    3  N   UNL     1      -4.636   4.916 -32.613  1.00  0.00    -0.333 N 
HETATM    4  C   UNL     1      -5.724   5.482 -33.238  1.00  0.00     0.278 A 
HETATM    5  O   UNL     1      -6.365   4.960 -34.138  1.00  0.00    -0.265 OA
HETATM    6  C   UNL     1      -6.104   6.700 -32.483  1.00  0.00     0.146 A 
ENDROOT
BRANCH   1   7
HETATM    7  C   UNL     1      -5.196   7.715 -30.295  1.00  0.00     0.196 C 
HETATM    8  O   UNL     1      -5.503   8.894 -30.436  1.00  0.00    -0.287 OA
BRANCH   7   9
HETATM    9  C   UNL     1      -4.673   7.186 -29.041  1.00  0.00     0.045 A 
HETATM   10  C   UNL     1      -3.459   7.621 -28.393  1.00  0.00    -0.013 A 
HETATM   11  C   UNL     1      -2.530   8.673 -28.906  1.00  0.00     0.052 C 
HETATM   12  C   UNL     1      -3.332   6.904 -27.207  1.00  0.00     0.115 A 
HETATM   13  N   UNL     1      -4.421   6.064 -27.130  1.00  0.00    -0.354 N 
HETATM   14  H   UNL     1      -4.587   5.448 -26.342  1.00  0.00     0.166 HD
HETATM   15  C   UNL     1      -5.258   6.243 -28.203  1.00  0.00     0.020 A 
HETATM   16  C   UNL     1      -6.548   5.502 -28.262  1.00  0.00     0.069 C 
BRANCH  12  17
HETATM   17  C   UNL     1      -2.350   6.919 -26.142  1.00  0.00     0.310 C 
HETATM   18  O   UNL     1      -2.559   7.396 -25.035  1.00  0.00    -0.258 OA
BRANCH  17  19
HETATM   19  O   UNL     1      -1.187   6.340 -26.539  1.00  0.00    -0.321 OA
HETATM   20  C   UNL     1      -0.045   7.191 -26.433  1.00  0.00     0.213 C 
ENDBRANCH  17  19
ENDBRANCH  12  17
ENDBRANCH   7   9
ENDBRANCH   1   7
BRANCH   2  21
HETATM   21  C   UNL     1      -2.748   6.098 -31.558  1.00  0.00    -0.028 A 
HETATM   22  C   UNL     1      -1.733   5.442 -30.844  1.00  0.00     0.045 A 
HETATM   23  C   UNL     1      -0.387   5.811 -31.018  1.00  0.00     0.103 A 
HETATM   24  C   UNL     1      -0.041   6.873 -31.857  1.00  0.00     0.036 A 
HETATM   25  C   UNL     1      -1.046   7.559 -32.536  1.00  0.00     0.003 A 
HETATM   26  C   UNL     1      -2.382   7.168 -32.396  1.00  0.00     0.010 A 
BRANCH  23  27
HETATM   27  N   UNL     1       0.666   5.051 -30.331  1.00  0.00    -0.116 N 
HETATM   28  O   UNL     1       0.712   5.133 -29.095  1.00  0.00    -0.532 OA
HETATM   29  O   UNL     1       1.438   4.376 -31.024  1.00  0.00    -0.532 OA
ENDBRANCH  23  27
ENDBRANCH   2  21
BRANCH   6  30
HETATM   30  O   UNL     1      -7.260   7.361 -32.765  1.00  0.00    -0.355 OA
HETATM   31  H   UNL     1      -7.553   7.895 -32.007  1.00  0.00     0.218 HD
ENDBRANCH   6  30
BRANCH   3  32
HETATM   32  C   UNL     1      -4.228   3.542 -32.854  1.00  0.00     0.129 C 
BRANCH  32  33
HETATM   33  C   UNL     1      -4.859   2.521 -31.896  1.00  0.00     0.048 C 
BRANCH  33  34
HETATM   34  C   UNL     1      -6.053   1.707 -32.408  1.00  0.00     0.236 C 
BRANCH  34  35
HETATM   35  N   UNL     1      -5.679   0.556 -33.298  1.00  0.00    -0.067 N 
HETATM   36  H   UNL     1      -5.282   0.947 -34.178  1.00  0.00     0.280 HD
HETATM   37  C   UNL     1      -4.683  -0.419 -32.698  1.00  0.00     0.261 C 
HETATM   38  C   UNL     1      -4.378  -1.539 -33.699  1.00  0.00     0.195 C 
HETATM   39  O   UNL     1      -5.575  -2.213 -34.102  1.00  0.00    -0.388 OA
HETATM   40  C   UNL     1      -6.483  -1.316 -34.751  1.00  0.00     0.195 C 
HETATM   41  C   UNL     1      -6.916  -0.201 -33.793  1.00  0.00     0.261 C 
ENDBRANCH  34  35
ENDBRANCH  33  34
ENDBRANCH  32  33
ENDBRANCH   3  32
TORSDOF 11
ENDMDL
