MODEL 1
REMARK VINA RESULT:      -8.0      0.000      0.000
REMARK  6 active torsions:
REMARK  status: ('A' for Active; 'I' for Inactive)
REMARK    1  A    between atoms: C_4  and  C_5 
REMARK    2  A    between atoms: C_5  and  N_6 
REMARK    3  A    between atoms: C_5  and  C_22 
REMARK    4  A    between atoms: N_6  and  C_9 
REMARK    5  A    between atoms: C_9  and  C_10 
REMARK    6  A    between atoms: C_13  and  C_14 
REMARK       I    between atoms: C_22  and  N_23 
ROOT
HETATM    1  N   UNL     1      -7.062   3.683 -32.323  1.00  0.00    -0.054 N 
HETATM    2  H   UNL     1      -6.601   4.531 -31.979  1.00  0.00     0.278 HD
HETATM    3  H   UNL     1      -6.657   2.892 -31.806  1.00  0.00     0.278 HD
ENDROOT
BRANCH   1   4
HETATM    4  C   UNL     1      -8.535   3.709 -31.982  1.00  0.00     0.310 C 
BRANCH   4   5
HETATM    5  C   UNL     1      -9.239   2.414 -32.327  1.00  0.00    -0.019 A 
HETATM    6  C   UNL     1      -8.906   1.185 -31.734  1.00  0.00     0.010 A 
HETATM    7  C   UNL     1      -9.571   0.014 -32.104  1.00  0.00     0.001 A 
HETATM    8  C   UNL     1     -10.560   0.047 -33.085  1.00  0.00     0.000 A 
HETATM    9  C   UNL     1     -10.891   1.252 -33.695  1.00  0.00     0.001 A 
HETATM   10  C   UNL     1     -10.241   2.427 -33.319  1.00  0.00     0.010 A 
ENDBRANCH   4   5
BRANCH   4  11
HETATM   11  C   UNL     1      -8.740   4.241 -30.543  1.00  0.00     0.251 C 
HETATM   12  N   UNL     1     -10.015   4.480 -30.124  1.00  0.00    -0.368 N 
HETATM   13  H   UNL     1     -10.852   4.223 -30.635  1.00  0.00     0.159 HD
HETATM   14  H   UNL     1     -10.151   4.836 -29.182  1.00  0.00     0.159 HD
HETATM   15  O   UNL     1      -7.779   4.525 -29.829  1.00  0.00    -0.271 OA
ENDBRANCH   4  11
ENDBRANCH   1   4
BRANCH   1  16
HETATM   16  C   UNL     1      -6.683   3.481 -33.751  1.00  0.00     0.272 C 
BRANCH  16  17
HETATM   17  C   UNL     1      -6.361   2.026 -33.968  1.00  0.00    -0.033 A 
HETATM   18  C   UNL     1      -7.032   1.292 -34.954  1.00  0.00     0.010 A 
HETATM   19  C   UNL     1      -6.820  -0.085 -35.082  1.00  0.00     0.013 A 
HETATM   20  C   UNL     1      -5.930  -0.770 -34.237  1.00  0.00    -0.025 A 
HETATM   21  C   UNL     1      -5.248  -0.017 -33.267  1.00  0.00     0.013 A 
HETATM   22  C   UNL     1      -5.462   1.359 -33.126  1.00  0.00     0.010 A 
BRANCH  20  23
HETATM   23  C   UNL     1      -5.726  -2.225 -34.359  1.00  0.00    -0.008 A 
HETATM   24  C   UNL     1      -4.492  -2.825 -34.094  1.00  0.00     0.128 A 
HETATM   25  N   UNL     1      -4.232  -4.149 -34.205  1.00  0.00    -0.272 NA
HETATM   26  C   UNL     1      -5.254  -4.939 -34.593  1.00  0.00     0.116 A 
HETATM   27  C   UNL     1      -6.520  -4.460 -34.878  1.00  0.00     0.020 A 
HETATM   28  C   UNL     1      -6.753  -3.089 -34.760  1.00  0.00     0.015 A 
ENDBRANCH  20  23
ENDBRANCH  16  17
ENDBRANCH   1  16
TORSDOF 6
ENDMDL
MODEL 2
REMARK VINA RESULT:      -7.9      4.429      6.549
REMARK  6 active torsions:
REMARK  status: ('A' for Active; 'I' for Inactive)
REMARK    1  A    between atoms: C_4  and  C_5 
REMARK    2  A    between atoms: C_5  and  N_6 
REMARK    3  A    between atoms: C_5  and  C_22 
REMARK    4  A    between atoms: N_6  and  C_9 
REMARK    5  A    between atoms: C_9  and  C_10 
REMARK    6  A    between atoms: C_13  and  C_14 
REMARK       I    between atoms: C_22  and  N_23 
ROOT
HETATM    1  N   UNL     1      -2.886   3.600 -32.792  1.00  0.00    -0.054 N 
HETATM    2  H   UNL     1      -2.720   3.011 -33.613  1.00  0.00     0.278 HD
HETATM    3  H   UNL     1      -2.169   3.355 -32.098  1.00  0.00     0.278 HD
ENDROOT
BRANCH   1   4
HETATM    4  C   UNL     1      -2.669   5.057 -33.137  1.00  0.00     0.310 C 
BRANCH   4   5
HETATM    5  C   UNL     1      -1.590   5.703 -32.295  1.00  0.00    -0.019 A 
HETATM    6  C   UNL     1      -1.412   7.094 -32.220  1.00  0.00     0.010 A 
HETATM    7  C   UNL     1      -0.386   7.639 -31.445  1.00  0.00     0.001 A 
HETATM    8  C   UNL     1       0.490   6.807 -30.753  1.00  0.00     0.000 A 
HETATM    9  C   UNL     1       0.339   5.426 -30.827  1.00  0.00     0.001 A 
HETATM   10  C   UNL     1      -0.693   4.876 -31.587  1.00  0.00     0.010 A 
ENDBRANCH   4   5
BRANCH   4  11
HETATM   11  C   UNL     1      -2.541   5.229 -34.670  1.00  0.00     0.251 C 
HETATM   12  N   UNL     1      -3.688   5.342 -35.400  1.00  0.00    -0.368 N 
HETATM   13  H   UNL     1      -4.617   5.445 -35.008  1.00  0.00     0.159 HD
HETATM   14  H   UNL     1      -3.605   5.448 -36.407  1.00  0.00     0.159 HD
HETATM   15  O   UNL     1      -1.445   5.176 -35.224  1.00  0.00    -0.271 OA
ENDBRANCH   4  11
ENDBRANCH   1   4
BRANCH   1  16
HETATM   16  C   UNL     1      -4.195   3.217 -32.188  1.00  0.00     0.272 C 
BRANCH  16  17
HETATM   17  C   UNL     1      -4.505   1.791 -32.560  1.00  0.00    -0.033 A 
HETATM   18  C   UNL     1      -3.491   0.826 -32.565  1.00  0.00     0.010 A 
HETATM   19  C   UNL     1      -3.748  -0.472 -33.021  1.00  0.00     0.013 A 
HETATM   20  C   UNL     1      -5.022  -0.847 -33.478  1.00  0.00    -0.025 A 
HETATM   21  C   UNL     1      -6.035   0.126 -33.446  1.00  0.00     0.013 A 
HETATM   22  C   UNL     1      -5.784   1.429 -33.001  1.00  0.00     0.010 A 
BRANCH  20  23
HETATM   23  C   UNL     1      -5.285  -2.209 -33.978  1.00  0.00    -0.008 A 
HETATM   24  C   UNL     1      -4.311  -3.209 -33.952  1.00  0.00     0.128 A 
HETATM   25  N   UNL     1      -4.480  -4.472 -34.412  1.00  0.00    -0.272 NA
HETATM   26  C   UNL     1      -5.690  -4.775 -34.924  1.00  0.00     0.116 A 
HETATM   27  C   UNL     1      -6.733  -3.870 -34.999  1.00  0.00     0.020 A 
HETATM   28  C   UNL     1      -6.524  -2.575 -34.521  1.00  0.00     0.015 A 
ENDBRANCH  20  23
ENDBRANCH  16  17
ENDBRANCH   1  16
TORSDOF 6
ENDMDL
MODEL 3
REMARK VINA RESULT:      -7.7      2.849      6.731
REMARK  6 active torsions:
REMARK  status: ('A' for Active; 'I' for Inactive)
REMARK    1  A    between atoms: C_4  and  C_5 
REMARK    2  A    between atoms: C_5  and  N_6 
REMARK    3  A    between atoms: C_5  and  C_22 
REMARK    4  A    between atoms: N_6  and  C_9 
REMARK    5  A    between atoms: C_9  and  C_10 
REMARK    6  A    between atoms: C_13  and  C_14 
REMARK       I    between atoms: C_22  and  N_23 
ROOT
HETATM    1  N   UNL     1      -5.478   0.345 -33.633  1.00  0.00    -0.054 N 
HETATM    2  H   UNL     1      -4.765   0.779 -34.226  1.00  0.00     0.278 HD
HETATM    3  H   UNL     1      -6.210  -0.016 -34.259  1.00  0.00     0.278 HD
ENDROOT
BRANCH   1   4
HETATM    4  C   UNL     1      -4.903  -0.854 -32.911  1.00  0.00     0.310 C 
BRANCH   4   5
HETATM    5  C   UNL     1      -5.211  -2.161 -33.610  1.00  0.00    -0.019 A 
HETATM    6  C   UNL     1      -4.276  -3.203 -33.724  1.00  0.00     0.010 A 
HETATM    7  C   UNL     1      -4.602  -4.381 -34.399  1.00  0.00     0.001 A 
HETATM    8  C   UNL     1      -5.856  -4.529 -34.988  1.00  0.00     0.000 A 
HETATM    9  C   UNL     1      -6.789  -3.502 -34.900  1.00  0.00     0.001 A 
HETATM   10  C   UNL     1      -6.474  -2.329 -34.214  1.00  0.00     0.010 A 
ENDBRANCH   4   5
BRANCH   4  11
HETATM   11  C   UNL     1      -3.419  -0.598 -32.552  1.00  0.00     0.251 C 
HETATM   12  N   UNL     1      -3.018  -0.848 -31.273  1.00  0.00    -0.368 N 
HETATM   13  H   UNL     1      -3.583  -1.304 -30.566  1.00  0.00     0.159 HD
HETATM   14  H   UNL     1      -2.045  -0.674 -31.035  1.00  0.00     0.159 HD
HETATM   15  O   UNL     1      -2.646  -0.101 -33.369  1.00  0.00    -0.271 OA
ENDBRANCH   4  11
ENDBRANCH   1   4
BRANCH   1  16
HETATM   16  C   UNL     1      -6.125   1.407 -32.809  1.00  0.00     0.272 C 
BRANCH  16  17
HETATM   17  C   UNL     1      -7.617   1.331 -33.001  1.00  0.00    -0.033 A 
HETATM   18  C   UNL     1      -8.358   0.319 -32.379  1.00  0.00     0.010 A 
HETATM   19  C   UNL     1      -9.724   0.174 -32.645  1.00  0.00     0.013 A 
HETATM   20  C   UNL     1     -10.391   1.035 -33.533  1.00  0.00    -0.025 A 
HETATM   21  C   UNL     1      -9.639   2.058 -34.133  1.00  0.00     0.013 A 
HETATM   22  C   UNL     1      -8.271   2.204 -33.879  1.00  0.00     0.010 A 
BRANCH  20  23
HETATM   23  C   UNL     1     -11.826   0.866 -33.829  1.00  0.00    -0.008 A 
HETATM   24  C   UNL     1     -12.546   1.808 -34.567  1.00  0.00     0.128 A 
HETATM   25  N   UNL     1     -13.867   1.724 -34.858  1.00  0.00    -0.272 NA
HETATM   26  C   UNL     1     -14.521   0.637 -34.401  1.00  0.00     0.116 A 
HETATM   27  C   UNL     1     -13.913  -0.364 -33.665  1.00  0.00     0.020 A 
HETATM   28  C   UNL     1     -12.553  -0.243 -33.377  1.00  0.00     0.015 A 
ENDBRANCH  20  23
ENDBRANCH  16  17
ENDBRANCH   1  16
TORSDOF 6
ENDMDL
MODEL 4
REMARK VINA RESULT:      -7.6      1.784      2.409
REMARK  6 active torsions:
REMARK  status: ('A' for Active; 'I' for Inactive)
REMARK    1  A    between atoms: C_4  and  C_5 
REMARK    2  A    between atoms: C_5  and  N_6 
REMARK    3  A    between atoms: C_5  and  C_22 
REMARK    4  A    between atoms: N_6  and  C_9 
REMARK    5  A    between atoms: C_9  and  C_10 
REMARK    6  A    between atoms: C_13  and  C_14 
REMARK       I    between atoms: C_22  and  N_23 
ROOT
HETATM    1  N   UNL     1      -9.201   2.563 -34.093  1.00  0.00    -0.054 N 
HETATM    2  H   UNL     1      -9.407   1.615 -34.422  1.00  0.00     0.278 HD
HETATM    3  H   UNL     1      -9.422   3.203 -34.867  1.00  0.00     0.278 HD
ENDROOT
BRANCH   1   4
HETATM    4  C   UNL     1     -10.121   2.936 -32.952  1.00  0.00     0.310 C 
BRANCH   4   5
HETATM    5  C   UNL     1     -11.541   2.457 -33.165  1.00  0.00    -0.019 A 
HETATM    6  C   UNL     1     -12.660   3.142 -32.661  1.00  0.00     0.010 A 
HETATM    7  C   UNL     1     -13.949   2.646 -32.866  1.00  0.00     0.001 A 
HETATM    8  C   UNL     1     -14.141   1.451 -33.556  1.00  0.00     0.000 A 
HETATM    9  C   UNL     1     -13.045   0.751 -34.048  1.00  0.00     0.001 A 
HETATM   10  C   UNL     1     -11.756   1.249 -33.860  1.00  0.00     0.010 A 
ENDBRANCH   4   5
BRANCH   4  11
HETATM   11  C   UNL     1      -9.467   2.570 -31.598  1.00  0.00     0.251 C 
HETATM   12  N   UNL     1      -9.428   1.254 -31.241  1.00  0.00    -0.368 N 
HETATM   13  H   UNL     1      -9.685   0.481 -31.844  1.00  0.00     0.159 HD
HETATM   14  H   UNL     1      -9.005   1.013 -30.349  1.00  0.00     0.159 HD
HETATM   15  O   UNL     1      -9.073   3.443 -30.827  1.00  0.00    -0.271 OA
ENDBRANCH   4  11
ENDBRANCH   1   4
BRANCH   1  16
HETATM   16  C   UNL     1      -7.732   2.680 -33.867  1.00  0.00     0.272 C 
BRANCH  16  17
HETATM   17  C   UNL     1      -7.100   1.326 -34.055  1.00  0.00    -0.033 A 
HETATM   18  C   UNL     1      -7.659   0.404 -34.948  1.00  0.00     0.010 A 
HETATM   19  C   UNL     1      -7.146  -0.895 -35.042  1.00  0.00     0.013 A 
HETATM   20  C   UNL     1      -6.060  -1.310 -34.254  1.00  0.00    -0.025 A 
HETATM   21  C   UNL     1      -5.496  -0.368 -33.378  1.00  0.00     0.013 A 
HETATM   22  C   UNL     1      -6.009   0.929 -33.271  1.00  0.00     0.010 A 
BRANCH  20  23
HETATM   23  C   UNL     1      -5.536  -2.687 -34.338  1.00  0.00    -0.008 A 
HETATM   24  C   UNL     1      -6.280  -3.730 -34.893  1.00  0.00     0.128 A 
HETATM   25  N   UNL     1      -5.867  -5.017 -34.983  1.00  0.00    -0.272 NA
HETATM   26  C   UNL     1      -4.638  -5.295 -34.504  1.00  0.00     0.116 A 
HETATM   27  C   UNL     1      -3.808  -4.345 -33.937  1.00  0.00     0.020 A 
HETATM   28  C   UNL     1      -4.267  -3.029 -33.854  1.00  0.00     0.015 A 
ENDBRANCH  20  23
ENDBRANCH  16  17
ENDBRANCH   1  16
TORSDOF 6
ENDMDL
MODEL 5
REMARK VINA RESULT:      -7.4      2.189      2.786
REMARK  6 active torsions:
REMARK  status: ('A' for Active; 'I' for Inactive)
REMARK    1  A    between atoms: C_4  and  C_5 
REMARK    2  A    between atoms: C_5  and  N_6 
REMARK    3  A    between atoms: C_5  and  C_22 
REMARK    4  A    between atoms: N_6  and  C_9 
REMARK    5  A    between atoms: C_9  and  C_10 
REMARK    6  A    between atoms: C_13  and  C_14 
REMARK       I    between atoms: C_22  and  N_23 
ROOT
HETATM    1  N   UNL     1      -9.619   2.729 -33.044  1.00  0.00    -0.054 N 
HETATM    2  H   UNL     1      -9.734   3.388 -32.269  1.00  0.00     0.278 HD
HETATM    3  H   UNL     1      -9.769   1.787 -32.661  1.00  0.00     0.278 HD
ENDROOT
BRANCH   1   4
HETATM    4  C   UNL     1     -10.696   2.945 -34.083  1.00  0.00     0.310 C 
BRANCH   4   5
HETATM    5  C   UNL     1     -11.812   1.926 -33.990  1.00  0.00    -0.019 A 
HETATM    6  C   UNL     1     -11.610   0.614 -33.530  1.00  0.00     0.010 A 
HETATM    7  C   UNL     1     -12.669  -0.295 -33.485  1.00  0.00     0.001 A 
HETATM    8  C   UNL     1     -13.938   0.082 -33.918  1.00  0.00     0.000 A 
HETATM    9  C   UNL     1     -14.154   1.372 -34.392  1.00  0.00     0.001 A 
HETATM   10  C   UNL     1     -13.103   2.289 -34.425  1.00  0.00     0.010 A 
ENDBRANCH   4   5
BRANCH   4  11
HETATM   11  C   UNL     1     -11.123   4.433 -34.107  1.00  0.00     0.251 C 
HETATM   12  N   UNL     1     -11.375   5.046 -32.916  1.00  0.00    -0.368 N 
HETATM   13  H   UNL     1     -11.189   4.643 -32.004  1.00  0.00     0.159 HD
HETATM   14  H   UNL     1     -11.662   6.021 -32.931  1.00  0.00     0.159 HD
HETATM   15  O   UNL     1     -11.316   5.020 -35.170  1.00  0.00    -0.271 OA
ENDBRANCH   4  11
ENDBRANCH   1   4
BRANCH   1  16
HETATM   16  C   UNL     1      -8.199   2.770 -33.497  1.00  0.00     0.272 C 
BRANCH  16  17
HETATM   17  C   UNL     1      -7.710   1.359 -33.695  1.00  0.00    -0.033 A 
HETATM   18  C   UNL     1      -7.223   0.622 -32.608  1.00  0.00     0.010 A 
HETATM   19  C   UNL     1      -6.662  -0.645 -32.804  1.00  0.00     0.013 A 
HETATM   20  C   UNL     1      -6.574  -1.215 -34.085  1.00  0.00    -0.025 A 
HETATM   21  C   UNL     1      -7.085  -0.473 -35.162  1.00  0.00     0.013 A 
HETATM   22  C   UNL     1      -7.640   0.798 -34.976  1.00  0.00     0.010 A 
BRANCH  20  23
HETATM   23  C   UNL     1      -5.960  -2.540 -34.292  1.00  0.00    -0.008 A 
HETATM   24  C   UNL     1      -4.626  -2.798 -33.968  1.00  0.00     0.128 A 
HETATM   25  N   UNL     1      -3.997  -3.984 -34.150  1.00  0.00    -0.272 NA
HETATM   26  C   UNL     1      -4.731  -4.986 -34.677  1.00  0.00     0.116 A 
HETATM   27  C   UNL     1      -6.060  -4.851 -35.032  1.00  0.00     0.020 A 
HETATM   28  C   UNL     1      -6.677  -3.613 -34.837  1.00  0.00     0.015 A 
ENDBRANCH  20  23
ENDBRANCH  16  17
ENDBRANCH   1  16
TORSDOF 6
ENDMDL
MODEL 6
REMARK VINA RESULT:      -7.4      2.584      4.711
REMARK  6 active torsions:
REMARK  status: ('A' for Active; 'I' for Inactive)
REMARK    1  A    between atoms: C_4  and  C_5 
REMARK    2  A    between atoms: C_5  and  N_6 
REMARK    3  A    between atoms: C_5  and  C_22 
REMARK    4  A    between atoms: N_6  and  C_9 
REMARK    5  A    between atoms: C_9  and  C_10 
REMARK    6  A    between atoms: C_13  and  C_14 
REMARK       I    between atoms: C_22  and  N_23 
ROOT
HETATM    1  N   UNL     1      -6.153   3.770 -34.149  1.00  0.00    -0.054 N 
HETATM    2  H   UNL     1      -6.400   4.536 -34.782  1.00  0.00     0.278 HD
HETATM    3  H   UNL     1      -5.499   3.160 -34.657  1.00  0.00     0.278 HD
ENDROOT
BRANCH   1   4
HETATM    4  C   UNL     1      -5.399   4.300 -32.950  1.00  0.00     0.310 C 
BRANCH   4   5
HETATM    5  C   UNL     1      -3.956   4.634 -33.266  1.00  0.00    -0.019 A 
HETATM    6  C   UNL     1      -2.930   4.559 -32.309  1.00  0.00     0.010 A 
HETATM    7  C   UNL     1      -1.618   4.900 -32.646  1.00  0.00     0.001 A 
HETATM    8  C   UNL     1      -1.314   5.339 -33.932  1.00  0.00     0.000 A 
HETATM    9  C   UNL     1      -2.320   5.435 -34.889  1.00  0.00     0.001 A 
HETATM   10  C   UNL     1      -3.630   5.082 -34.562  1.00  0.00     0.010 A 
ENDBRANCH   4   5
BRANCH   4  11
HETATM   11  C   UNL     1      -6.223   5.407 -32.248  1.00  0.00     0.251 C 
HETATM   12  N   UNL     1      -6.329   6.617 -32.868  1.00  0.00    -0.368 N 
HETATM   13  H   UNL     1      -6.011   6.816 -33.810  1.00  0.00     0.159 HD
HETATM   14  H   UNL     1      -6.864   7.346 -32.405  1.00  0.00     0.159 HD
HETATM   15  O   UNL     1      -6.695   5.230 -31.126  1.00  0.00    -0.271 OA
ENDBRANCH   4  11
ENDBRANCH   1   4
BRANCH   1  16
HETATM   16  C   UNL     1      -7.372   2.949 -33.895  1.00  0.00     0.272 C 
BRANCH  16  17
HETATM   17  C   UNL     1      -6.997   1.491 -33.953  1.00  0.00    -0.033 A 
HETATM   18  C   UNL     1      -6.002   0.983 -33.109  1.00  0.00     0.010 A 
HETATM   19  C   UNL     1      -5.570  -0.342 -33.238  1.00  0.00     0.013 A 
HETATM   20  C   UNL     1      -6.120  -1.199 -34.206  1.00  0.00    -0.025 A 
HETATM   21  C   UNL     1      -7.132  -0.682 -35.031  1.00  0.00     0.013 A 
HETATM   22  C   UNL     1      -7.563   0.644 -34.915  1.00  0.00     0.010 A 
BRANCH  20  23
HETATM   23  C   UNL     1      -5.647  -2.588 -34.355  1.00  0.00    -0.008 A 
HETATM   24  C   UNL     1      -6.462  -3.597 -34.874  1.00  0.00     0.128 A 
HETATM   25  N   UNL     1      -6.097  -4.893 -35.020  1.00  0.00    -0.272 NA
HETATM   26  C   UNL     1      -4.845  -5.218 -34.638  1.00  0.00     0.116 A 
HETATM   27  C   UNL     1      -3.947  -4.306 -34.115  1.00  0.00     0.020 A 
HETATM   28  C   UNL     1      -4.357  -2.979 -33.973  1.00  0.00     0.015 A 
ENDBRANCH  20  23
ENDBRANCH  16  17
ENDBRANCH   1  16
TORSDOF 6
ENDMDL
MODEL 7
REMARK VINA RESULT:      -7.4      3.308      6.815
REMARK  6 active torsions:
REMARK  status: ('A' for Active; 'I' for Inactive)
REMARK    1  A    between atoms: C_4  and  C_5 
REMARK    2  A    between atoms: C_5  and  N_6 
REMARK    3  A    between atoms: C_5  and  C_22 
REMARK    4  A    between atoms: N_6  and  C_9 
REMARK    5  A    between atoms: C_9  and  C_10 
REMARK    6  A    between atoms: C_13  and  C_14 
REMARK       I    between atoms: C_22  and  N_23 
ROOT
HETATM    1  N   UNL     1      -7.142  -0.481 -32.125  1.00  0.00    -0.054 N 
HETATM    2  H   UNL     1      -7.911   0.188 -32.030  1.00  0.00     0.278 HD
HETATM    3  H   UNL     1      -7.524  -1.410 -31.906  1.00  0.00     0.278 HD
ENDROOT
BRANCH   1   4
HETATM    4  C   UNL     1      -6.668  -0.539 -33.560  1.00  0.00     0.310 C 
BRANCH   4   5
HETATM    5  C   UNL     1      -6.168  -1.912 -33.955  1.00  0.00    -0.019 A 
HETATM    6  C   UNL     1      -4.808  -2.264 -33.930  1.00  0.00     0.010 A 
HETATM    7  C   UNL     1      -4.395  -3.538 -34.326  1.00  0.00     0.001 A 
HETATM    8  C   UNL     1      -5.327  -4.471 -34.775  1.00  0.00     0.000 A 
HETATM    9  C   UNL     1      -6.677  -4.135 -34.823  1.00  0.00     0.001 A 
HETATM   10  C   UNL     1      -7.096  -2.869 -34.413  1.00  0.00     0.010 A 
ENDBRANCH   4   5
BRANCH   4  11
HETATM   11  C   UNL     1      -7.720   0.106 -34.495  1.00  0.00     0.251 C 
HETATM   12  N   UNL     1      -7.310   0.527 -35.725  1.00  0.00    -0.368 N 
HETATM   13  H   UNL     1      -6.398   0.343 -36.128  1.00  0.00     0.159 HD
HETATM   14  H   UNL     1      -7.998   0.957 -36.337  1.00  0.00     0.159 HD
HETATM   15  O   UNL     1      -8.869   0.314 -34.108  1.00  0.00    -0.271 OA
ENDBRANCH   4  11
ENDBRANCH   1   4
BRANCH   1  16
HETATM   16  C   UNL     1      -6.127  -0.193 -31.070  1.00  0.00     0.272 C 
BRANCH  16  17
HETATM   17  C   UNL     1      -5.326   1.014 -31.481  1.00  0.00    -0.033 A 
HETATM   18  C   UNL     1      -5.958   2.250 -31.669  1.00  0.00     0.010 A 
HETATM   19  C   UNL     1      -5.241   3.346 -32.162  1.00  0.00     0.013 A 
HETATM   20  C   UNL     1      -3.875   3.245 -32.475  1.00  0.00    -0.025 A 
HETATM   21  C   UNL     1      -3.250   2.005 -32.261  1.00  0.00     0.013 A 
HETATM   22  C   UNL     1      -3.962   0.902 -31.778  1.00  0.00     0.010 A 
BRANCH  20  23
HETATM   23  C   UNL     1      -3.127   4.395 -33.016  1.00  0.00    -0.008 A 
HETATM   24  C   UNL     1      -3.665   5.235 -33.994  1.00  0.00     0.128 A 
HETATM   25  N   UNL     1      -3.026   6.295 -34.545  1.00  0.00    -0.272 NA
HETATM   26  C   UNL     1      -1.779   6.551 -34.100  1.00  0.00     0.116 A 
HETATM   27  C   UNL     1      -1.145   5.793 -33.133  1.00  0.00     0.020 A 
HETATM   28  C   UNL     1      -1.829   4.704 -32.590  1.00  0.00     0.015 A 
ENDBRANCH  20  23
ENDBRANCH  16  17
ENDBRANCH   1  16
TORSDOF 6
ENDMDL
MODEL 8
REMARK VINA RESULT:      -7.3      4.836      6.686
REMARK  6 active torsions:
REMARK  status: ('A' for Active; 'I' for Inactive)
REMARK    1  A    between atoms: C_4  and  C_5 
REMARK    2  A    between atoms: C_5  and  N_6 
REMARK    3  A    between atoms: C_5  and  C_22 
REMARK    4  A    between atoms: N_6  and  C_9 
REMARK    5  A    between atoms: C_9  and  C_10 
REMARK    6  A    between atoms: C_13  and  C_14 
REMARK       I    between atoms: C_22  and  N_23 
ROOT
HETATM    1  N   UNL     1      -3.051   5.002 -32.409  1.00  0.00    -0.054 N 
HETATM    2  H   UNL     1      -3.408   5.111 -33.363  1.00  0.00     0.278 HD
HETATM    3  H   UNL     1      -2.237   4.376 -32.464  1.00  0.00     0.278 HD
ENDROOT
BRANCH   1   4
HETATM    4  C   UNL     1      -2.540   6.325 -31.885  1.00  0.00     0.310 C 
BRANCH   4   5
HETATM    5  C   UNL     1      -1.496   6.161 -30.800  1.00  0.00    -0.019 A 
HETATM    6  C   UNL     1      -1.462   6.963 -29.648  1.00  0.00     0.010 A 
HETATM    7  C   UNL     1      -0.464   6.786 -28.687  1.00  0.00     0.001 A 
HETATM    8  C   UNL     1       0.525   5.823 -28.871  1.00  0.00     0.000 A 
HETATM    9  C   UNL     1       0.517   5.029 -30.013  1.00  0.00     0.001 A 
HETATM   10  C   UNL     1      -0.486   5.192 -30.969  1.00  0.00     0.010 A 
ENDBRANCH   4   5
BRANCH   4  11
HETATM   11  C   UNL     1      -2.167   7.258 -33.063  1.00  0.00     0.251 C 
HETATM   12  N   UNL     1      -2.260   6.759 -34.328  1.00  0.00    -0.368 N 
HETATM   13  H   UNL     1      -2.669   5.864 -34.571  1.00  0.00     0.159 HD
HETATM   14  H   UNL     1      -2.009   7.368 -35.102  1.00  0.00     0.159 HD
HETATM   15  O   UNL     1      -1.717   8.384 -32.861  1.00  0.00    -0.271 OA
ENDBRANCH   4  11
ENDBRANCH   1   4
BRANCH   1  16
HETATM   16  C   UNL     1      -4.073   4.281 -31.596  1.00  0.00     0.272 C 
BRANCH  16  17
HETATM   17  C   UNL     1      -4.335   2.937 -32.224  1.00  0.00    -0.033 A 
HETATM   18  C   UNL     1      -5.518   2.709 -32.937  1.00  0.00     0.010 A 
HETATM   19  C   UNL     1      -5.819   1.432 -33.423  1.00  0.00     0.013 A 
HETATM   20  C   UNL     1      -4.950   0.348 -33.218  1.00  0.00    -0.025 A 
HETATM   21  C   UNL     1      -3.757   0.596 -32.519  1.00  0.00     0.013 A 
HETATM   22  C   UNL     1      -3.452   1.869 -32.022  1.00  0.00     0.010 A 
BRANCH  20  23
HETATM   23  C   UNL     1      -5.280  -1.002 -33.711  1.00  0.00    -0.008 A 
HETATM   24  C   UNL     1      -4.310  -1.996 -33.856  1.00  0.00     0.128 A 
HETATM   25  N   UNL     1      -4.542  -3.247 -34.320  1.00  0.00    -0.272 NA
HETATM   26  C   UNL     1      -5.814  -3.544 -34.655  1.00  0.00     0.116 A 
HETATM   27  C   UNL     1      -6.859  -2.645 -34.550  1.00  0.00     0.020 A 
HETATM   28  C   UNL     1      -6.584  -1.362 -34.074  1.00  0.00     0.015 A 
ENDBRANCH  20  23
ENDBRANCH  16  17
ENDBRANCH   1  16
TORSDOF 6
ENDMDL
MODEL 9
REMARK VINA RESULT:      -7.2      1.896      2.736
REMARK  6 active torsions:
REMARK  status: ('A' for Active; 'I' for Inactive)
REMARK    1  A    between atoms: C_4  and  C_5 
REMARK    2  A    between atoms: C_5  and  N_6 
REMARK    3  A    between atoms: C_5  and  C_22 
REMARK    4  A    between atoms: N_6  and  C_9 
REMARK    5  A    between atoms: C_9  and  C_10 
REMARK    6  A    between atoms: C_13  and  C_14 
REMARK       I    between atoms: C_22  and  N_23 
ROOT
HETATM    1  N   UNL     1      -5.578   3.202 -31.341  1.00  0.00    -0.054 N 
HETATM    2  H   UNL     1      -5.555   4.090 -30.832  1.00  0.00     0.278 HD
HETATM    3  H   UNL     1      -6.353   2.652 -30.949  1.00  0.00     0.278 HD
ENDROOT
BRANCH   1   4
HETATM    4  C   UNL     1      -5.912   3.438 -32.797  1.00  0.00     0.310 C 
BRANCH   4   5
HETATM    5  C   UNL     1      -6.829   2.376 -33.366  1.00  0.00    -0.019 A 
HETATM    6  C   UNL     1      -6.531   1.662 -34.539  1.00  0.00     0.010 A 
HETATM    7  C   UNL     1      -7.422   0.708 -35.035  1.00  0.00     0.001 A 
HETATM    8  C   UNL     1      -8.629   0.466 -34.384  1.00  0.00     0.000 A 
HETATM    9  C   UNL     1      -8.948   1.175 -33.230  1.00  0.00     0.001 A 
HETATM   10  C   UNL     1      -8.056   2.119 -32.721  1.00  0.00     0.010 A 
ENDBRANCH   4   5
BRANCH   4  11
HETATM   11  C   UNL     1      -6.346   4.909 -33.012  1.00  0.00     0.251 C 
HETATM   12  N   UNL     1      -6.613   5.666 -31.911  1.00  0.00    -0.368 N 
HETATM   13  H   UNL     1      -6.436   5.381 -30.954  1.00  0.00     0.159 HD
HETATM   14  H   UNL     1      -6.905   6.629 -32.051  1.00  0.00     0.159 HD
HETATM   15  O   UNL     1      -6.529   5.356 -34.143  1.00  0.00    -0.271 OA
ENDBRANCH   4  11
ENDBRANCH   1   4
BRANCH   1  16
HETATM   16  C   UNL     1      -4.333   2.442 -31.030  1.00  0.00     0.272 C 
BRANCH  16  17
HETATM   17  C   UNL     1      -4.434   1.070 -31.643  1.00  0.00    -0.033 A 
HETATM   18  C   UNL     1      -3.566   0.692 -32.675  1.00  0.00     0.010 A 
HETATM   19  C   UNL     1      -3.729  -0.536 -33.326  1.00  0.00     0.013 A 
HETATM   20  C   UNL     1      -4.757  -1.423 -32.966  1.00  0.00    -0.025 A 
HETATM   21  C   UNL     1      -5.607  -1.040 -31.916  1.00  0.00     0.013 A 
HETATM   22  C   UNL     1      -5.456   0.190 -31.265  1.00  0.00     0.010 A 
BRANCH  20  23
HETATM   23  C   UNL     1      -4.941  -2.706 -33.670  1.00  0.00    -0.008 A 
HETATM   24  C   UNL     1      -4.031  -3.758 -33.542  1.00  0.00     0.128 A 
HETATM   25  N   UNL     1      -4.131  -4.953 -34.173  1.00  0.00    -0.272 NA
HETATM   26  C   UNL     1      -5.200  -5.128 -34.976  1.00  0.00     0.116 A 
HETATM   27  C   UNL     1      -6.168  -4.161 -35.177  1.00  0.00     0.020 A 
HETATM   28  C   UNL     1      -6.033  -2.939 -34.516  1.00  0.00     0.015 A 
ENDBRANCH  20  23
ENDBRANCH  16  17
ENDBRANCH   1  16
TORSDOF 6
ENDMDL
MODEL 10
REMARK VINA RESULT:      -7.1      3.958      6.800
REMARK  6 active torsions:
REMARK  status: ('A' for Active; 'I' for Inactive)
REMARK    1  A    between atoms: C_4  and  C_5 
REMARK    2  A    between atoms: C_5  and  N_6 
REMARK    3  A    between atoms: C_5  and  C_22 
REMARK    4  A    between atoms: N_6  and  C_9 
REMARK    5  A    between atoms: C_9  and  C_10 
REMARK    6  A    between atoms: C_13  and  C_14 
REMARK       I    between atoms: C_22  and  N_23 
ROOT
HETATM    1  N   UNL     1      -7.574   2.105 -32.870  1.00  0.00    -0.054 N 
HETATM    2  H   UNL     1      -8.254   2.602 -32.288  1.00  0.00     0.278 HD
HETATM    3  H   UNL     1      -6.754   1.919 -32.280  1.00  0.00     0.278 HD
ENDROOT
BRANCH   1   4
HETATM    4  C   UNL     1      -8.120   0.757 -33.283  1.00  0.00     0.310 C 
BRANCH   4   5
HETATM    5  C   UNL     1      -7.033  -0.278 -33.483  1.00  0.00    -0.019 A 
HETATM    6  C   UNL     1      -5.905  -0.368 -32.652  1.00  0.00     0.010 A 
HETATM    7  C   UNL     1      -4.919  -1.328 -32.892  1.00  0.00     0.001 A 
HETATM    8  C   UNL     1      -5.032  -2.195 -33.976  1.00  0.00     0.000 A 
HETATM    9  C   UNL     1      -6.135  -2.110 -34.820  1.00  0.00     0.001 A 
HETATM   10  C   UNL     1      -7.130  -1.164 -34.576  1.00  0.00     0.010 A 
ENDBRANCH   4   5
BRANCH   4  11
HETATM   11  C   UNL     1      -9.295   0.351 -32.360  1.00  0.00     0.251 C 
HETATM   12  N   UNL     1      -9.171   0.592 -31.023  1.00  0.00    -0.368 N 
HETATM   13  H   UNL     1      -8.422   1.125 -30.596  1.00  0.00     0.159 HD
HETATM   14  H   UNL     1      -9.939   0.320 -30.416  1.00  0.00     0.159 HD
HETATM   15  O   UNL     1     -10.272  -0.249 -32.804  1.00  0.00    -0.271 OA
ENDBRANCH   4  11
ENDBRANCH   1   4
BRANCH   1  16
HETATM   16  C   UNL     1      -7.108   3.025 -33.948  1.00  0.00     0.272 C 
BRANCH  16  17
HETATM   17  C   UNL     1      -5.761   3.580 -33.566  1.00  0.00    -0.033 A 
HETATM   18  C   UNL     1      -5.043   3.021 -32.501  1.00  0.00     0.010 A 
HETATM   19  C   UNL     1      -3.847   3.604 -32.068  1.00  0.00     0.013 A 
HETATM   20  C   UNL     1      -3.330   4.755 -32.685  1.00  0.00    -0.025 A 
HETATM   21  C   UNL     1      -4.049   5.292 -33.765  1.00  0.00     0.013 A 
HETATM   22  C   UNL     1      -5.251   4.720 -34.199  1.00  0.00     0.010 A 
BRANCH  20  23
HETATM   23  C   UNL     1      -2.081   5.381 -32.212  1.00  0.00    -0.008 A 
HETATM   24  C   UNL     1      -1.327   4.835 -31.171  1.00  0.00     0.128 A 
HETATM   25  N   UNL     1      -0.184   5.368 -30.676  1.00  0.00    -0.272 NA
HETATM   26  C   UNL     1       0.252   6.508 -31.249  1.00  0.00     0.116 A 
HETATM   27  C   UNL     1      -0.407   7.138 -32.289  1.00  0.00     0.020 A 
HETATM   28  C   UNL     1      -1.585   6.566 -32.771  1.00  0.00     0.015 A 
ENDBRANCH  20  23
ENDBRANCH  16  17
ENDBRANCH   1  16
TORSDOF 6
ENDMDL
