MODEL 1
REMARK VINA RESULT:      -8.6      0.000      0.000
REMARK  10 active torsions:
REMARK  status: ('A' for Active; 'I' for Inactive)
REMARK    1  A    between atoms: C_3  and  N_4 
REMARK    2  A    between atoms: C_5  and  S_6 
REMARK    3  A    between atoms: S_6  and  C_7 
REMARK    4  A    between atoms: C_7  and  C_8 
REMARK       I    between atoms: C_8  and  N_9 
REMARK    5  A    between atoms: N_9  and  C_10 
REMARK    6  A    between atoms: C_10  and  C_11 
REMARK    7  A    between atoms: C_11  and  C_12 
REMARK    8  A    between atoms: C_15  and  S_16 
REMARK    9  A    between atoms: S_16  and  N_17 
REMARK   10  A    between atoms: C_26  and  N_27 
ROOT
HETATM    1  N   UNL     1      -4.617   4.087 -31.753  1.00  0.00    -0.275 N 
HETATM    2  C   UNL     1      -4.737   2.731 -31.688  1.00  0.00     0.177 A 
HETATM    3  N   UNL     1      -5.749   2.070 -31.083  1.00  0.00    -0.204 NA
HETATM    4  C   UNL     1      -6.700   2.901 -30.656  1.00  0.00     0.162 A 
HETATM    5  C   UNL     1      -6.692   4.277 -30.732  1.00  0.00     0.081 A 
HETATM    6  C   UNL     1      -5.575   4.932 -31.278  1.00  0.00     0.124 A 
HETATM    7  N   UNL     1      -7.878   2.541 -30.066  1.00  0.00    -0.260 N 
HETATM    8  H   UNL     1      -8.211   1.606 -29.856  1.00  0.00     0.191 HD
HETATM    9  N   UNL     1      -8.652   3.590 -29.756  1.00  0.00    -0.177 NA
HETATM   10  C   UNL     1      -7.948   4.654 -30.164  1.00  0.00     0.068 A 
HETATM   11  C   UNL     1      -8.525   6.013 -29.991  1.00  0.00     0.073 C 
ENDROOT
BRANCH   2  12
HETATM   12  S   UNL     1      -3.488   1.649 -32.413  1.00  0.00    -0.082 SA
BRANCH  12  13
HETATM   13  C   UNL     1      -3.539   0.260 -31.236  1.00  0.00     0.185 C 
BRANCH  13  14
HETATM   14  C   UNL     1      -2.677  -0.922 -31.670  1.00  0.00     0.227 C 
HETATM   15  N   UNL     1      -3.333  -2.020 -32.175  1.00  0.00    -0.360 N 
HETATM   16  H   UNL     1      -2.717  -2.755 -32.509  1.00  0.00     0.162 HD
HETATM   17  O   UNL     1      -1.447  -0.925 -31.600  1.00  0.00    -0.273 OA
BRANCH  15  18
HETATM   18  C   UNL     1      -4.736  -2.050 -32.558  1.00  0.00     0.127 C 
BRANCH  18  19
HETATM   19  C   UNL     1      -5.016  -1.450 -33.936  1.00  0.00     0.058 C 
BRANCH  19  20
HETATM   20  C   UNL     1      -6.365  -0.768 -33.927  1.00  0.00    -0.057 A 
HETATM   21  C   UNL     1      -6.857  -0.156 -35.089  1.00  0.00     0.009 A 
HETATM   22  C   UNL     1      -8.047   0.574 -35.054  1.00  0.00     0.025 A 
HETATM   23  C   UNL     1      -8.753   0.688 -33.854  1.00  0.00     0.074 A 
HETATM   24  C   UNL     1      -8.280   0.074 -32.691  1.00  0.00     0.025 A 
HETATM   25  C   UNL     1      -7.092  -0.655 -32.731  1.00  0.00     0.009 A 
BRANCH  23  26
HETATM   26  S   UNL     1     -10.196   1.712 -33.782  1.00  0.00     0.239 S 
HETATM   27  O   UNL     1      -9.991   2.869 -34.622  1.00  0.00    -0.206 OA
HETATM   28  O   UNL     1     -11.366   0.872 -33.895  1.00  0.00    -0.206 OA
BRANCH  26  29
HETATM   29  N   UNL     1     -10.161   2.265 -32.200  1.00  0.00    -0.225 NA
HETATM   30  H   UNL     1     -10.033   1.480 -31.559  1.00  0.00     0.136 HD
HETATM   31  H   UNL     1      -9.451   2.991 -32.100  1.00  0.00     0.136 HD
ENDBRANCH  26  29
ENDBRANCH  23  26
ENDBRANCH  19  20
ENDBRANCH  18  19
ENDBRANCH  15  18
ENDBRANCH  13  14
ENDBRANCH  12  13
ENDBRANCH   2  12
BRANCH   1  32
HETATM   32  C   UNL     1      -3.448   4.665 -32.361  1.00  0.00     0.051 A 
HETATM   33  C   UNL     1      -3.457   4.997 -33.728  1.00  0.00    -0.035 A 
HETATM   34  C   UNL     1      -4.666   4.869 -34.611  1.00  0.00     0.050 C 
HETATM   35  C   UNL     1      -2.278   5.526 -34.271  1.00  0.00     0.011 A 
HETATM   36  C   UNL     1      -1.131   5.670 -33.484  1.00  0.00     0.024 A 
HETATM   37  C   UNL     1      -1.149   5.301 -32.139  1.00  0.00     0.036 A 
HETATM   38  C   UNL     1      -2.309   4.796 -31.561  1.00  0.00     0.054 A 
HETATM   39 CL   UNL     1       0.273   5.457 -31.191  1.00  0.00    -0.084 Cl
ENDBRANCH   1  32
BRANCH   6  40
HETATM   40  N   UNL     1      -5.459   6.315 -31.320  1.00  0.00    -0.384 N 
HETATM   41  H   UNL     1      -5.858   6.818 -32.105  1.00  0.00     0.157 HD
HETATM   42  H   UNL     1      -5.325   6.874 -30.487  1.00  0.00     0.157 HD
ENDBRANCH   6  40
TORSDOF 10
ENDMDL
MODEL 2
REMARK VINA RESULT:      -8.5      3.386      7.378
REMARK  10 active torsions:
REMARK  status: ('A' for Active; 'I' for Inactive)
REMARK    1  A    between atoms: C_3  and  N_4 
REMARK    2  A    between atoms: C_5  and  S_6 
REMARK    3  A    between atoms: S_6  and  C_7 
REMARK    4  A    between atoms: C_7  and  C_8 
REMARK       I    between atoms: C_8  and  N_9 
REMARK    5  A    between atoms: N_9  and  C_10 
REMARK    6  A    between atoms: C_10  and  C_11 
REMARK    7  A    between atoms: C_11  and  C_12 
REMARK    8  A    between atoms: C_15  and  S_16 
REMARK    9  A    between atoms: S_16  and  N_17 
REMARK   10  A    between atoms: C_26  and  N_27 
ROOT
HETATM    1  N   UNL     1      -5.318  -0.514 -33.191  1.00  0.00    -0.275 N 
HETATM    2  C   UNL     1      -6.423  -0.480 -33.990  1.00  0.00     0.177 A 
HETATM    3  N   UNL     1      -6.811  -1.475 -34.819  1.00  0.00    -0.204 NA
HETATM    4  C   UNL     1      -6.055  -2.563 -34.678  1.00  0.00     0.162 A 
HETATM    5  C   UNL     1      -4.958  -2.709 -33.854  1.00  0.00     0.081 A 
HETATM    6  C   UNL     1      -4.526  -1.617 -33.083  1.00  0.00     0.124 A 
HETATM    7  N   UNL     1      -6.231  -3.755 -35.320  1.00  0.00    -0.260 N 
HETATM    8  H   UNL     1      -6.945  -3.999 -35.999  1.00  0.00     0.191 HD
HETATM    9  N   UNL     1      -5.328  -4.680 -34.969  1.00  0.00    -0.177 NA
HETATM   10  C   UNL     1      -4.552  -4.061 -34.070  1.00  0.00     0.068 A 
HETATM   11  C   UNL     1      -3.434  -4.812 -33.440  1.00  0.00     0.073 C 
ENDROOT
BRANCH   2  12
HETATM   12  S   UNL     1      -7.496   0.969 -34.034  1.00  0.00    -0.082 SA
BRANCH  12  13
HETATM   13  C   UNL     1      -8.872   0.385 -32.993  1.00  0.00     0.185 C 
BRANCH  13  14
HETATM   14  C   UNL     1     -10.122   1.253 -33.113  1.00  0.00     0.227 C 
HETATM   15  N   UNL     1     -10.234   2.307 -32.239  1.00  0.00    -0.360 N 
HETATM   16  H   UNL     1     -11.049   2.894 -32.397  1.00  0.00     0.162 HD
HETATM   17  O   UNL     1     -11.004   1.057 -33.950  1.00  0.00    -0.273 OA
BRANCH  15  18
HETATM   18  C   UNL     1      -9.162   2.808 -31.393  1.00  0.00     0.127 C 
BRANCH  18  19
HETATM   19  C   UNL     1      -8.416   4.006 -31.980  1.00  0.00     0.058 C 
BRANCH  19  20
HETATM   20  C   UNL     1      -7.669   4.726 -30.880  1.00  0.00    -0.057 A 
HETATM   21  C   UNL     1      -6.738   5.728 -31.194  1.00  0.00     0.009 A 
HETATM   22  C   UNL     1      -5.963   6.312 -30.190  1.00  0.00     0.025 A 
HETATM   23  C   UNL     1      -6.122   5.898 -28.865  1.00  0.00     0.074 A 
HETATM   24  C   UNL     1      -7.052   4.909 -28.537  1.00  0.00     0.025 A 
HETATM   25  C   UNL     1      -7.826   4.329 -29.543  1.00  0.00     0.009 A 
BRANCH  23  26
HETATM   26  S   UNL     1      -5.056   6.553 -27.612  1.00  0.00     0.239 S 
HETATM   27  O   UNL     1      -3.763   6.826 -28.193  1.00  0.00    -0.206 OA
HETATM   28  O   UNL     1      -5.787   7.540 -26.852  1.00  0.00    -0.206 OA
BRANCH  26  29
HETATM   29  N   UNL     1      -4.848   5.234 -26.598  1.00  0.00    -0.225 NA
HETATM   30  H   UNL     1      -5.172   5.464 -25.657  1.00  0.00     0.136 HD
HETATM   31  H   UNL     1      -5.306   4.413 -26.995  1.00  0.00     0.136 HD
ENDBRANCH  26  29
ENDBRANCH  23  26
ENDBRANCH  19  20
ENDBRANCH  18  19
ENDBRANCH  15  18
ENDBRANCH  13  14
ENDBRANCH  12  13
ENDBRANCH   2  12
BRANCH   1  32
HETATM   32  C   UNL     1      -4.973   0.646 -32.413  1.00  0.00     0.051 A 
HETATM   33  C   UNL     1      -5.562   0.847 -31.151  1.00  0.00    -0.035 A 
HETATM   34  C   UNL     1      -6.489  -0.138 -30.496  1.00  0.00     0.050 C 
HETATM   35  C   UNL     1      -5.211   2.010 -30.454  1.00  0.00     0.011 A 
HETATM   36  C   UNL     1      -4.345   2.950 -31.022  1.00  0.00     0.024 A 
HETATM   37  C   UNL     1      -3.804   2.733 -32.289  1.00  0.00     0.036 A 
HETATM   38  C   UNL     1      -4.110   1.577 -32.999  1.00  0.00     0.054 A 
HETATM   39 CL   UNL     1      -2.764   3.907 -32.988  1.00  0.00    -0.084 Cl
ENDBRANCH   1  32
BRANCH   6  40
HETATM   40  N   UNL     1      -3.387  -1.661 -32.289  1.00  0.00    -0.384 N 
HETATM   41  H   UNL     1      -3.284  -0.984 -31.540  1.00  0.00     0.157 HD
HETATM   42  H   UNL     1      -2.838  -2.503 -32.171  1.00  0.00     0.157 HD
ENDBRANCH   6  40
TORSDOF 10
ENDMDL
MODEL 3
REMARK VINA RESULT:      -8.3      3.591      7.599
REMARK  10 active torsions:
REMARK  status: ('A' for Active; 'I' for Inactive)
REMARK    1  A    between atoms: C_3  and  N_4 
REMARK    2  A    between atoms: C_5  and  S_6 
REMARK    3  A    between atoms: S_6  and  C_7 
REMARK    4  A    between atoms: C_7  and  C_8 
REMARK       I    between atoms: C_8  and  N_9 
REMARK    5  A    between atoms: N_9  and  C_10 
REMARK    6  A    between atoms: C_10  and  C_11 
REMARK    7  A    between atoms: C_11  and  C_12 
REMARK    8  A    between atoms: C_15  and  S_16 
REMARK    9  A    between atoms: S_16  and  N_17 
REMARK   10  A    between atoms: C_26  and  N_27 
ROOT
HETATM    1  N   UNL     1      -9.176   1.428 -33.193  1.00  0.00    -0.275 N 
HETATM    2  C   UNL     1      -9.233   2.763 -33.464  1.00  0.00     0.177 A 
HETATM    3  N   UNL     1     -10.331   3.419 -33.903  1.00  0.00    -0.204 NA
HETATM    4  C   UNL     1     -11.405   2.630 -33.924  1.00  0.00     0.162 A 
HETATM    5  C   UNL     1     -11.454   1.288 -33.610  1.00  0.00     0.081 A 
HETATM    6  C   UNL     1     -10.271   0.619 -33.256  1.00  0.00     0.124 A 
HETATM    7  N   UNL     1     -12.675   3.008 -34.253  1.00  0.00    -0.260 N 
HETATM    8  H   UNL     1     -12.999   3.927 -34.535  1.00  0.00     0.191 HD
HETATM    9  N   UNL     1     -13.561   2.006 -34.169  1.00  0.00    -0.177 NA
HETATM   10  C   UNL     1     -12.834   0.955 -33.769  1.00  0.00     0.068 A 
HETATM   11  C   UNL     1     -13.511  -0.350 -33.549  1.00  0.00     0.073 C 
ENDROOT
BRANCH   2  12
HETATM   12  S   UNL     1      -7.779   3.815 -33.279  1.00  0.00    -0.082 SA
BRANCH  12  13
HETATM   13  C   UNL     1      -8.311   4.862 -31.887  1.00  0.00     0.185 C 
BRANCH  13  14
HETATM   14  C   UNL     1      -8.757   4.056 -30.671  1.00  0.00     0.227 C 
HETATM   15  N   UNL     1      -7.804   3.783 -29.720  1.00  0.00    -0.360 N 
HETATM   16  H   UNL     1      -8.160   3.300 -28.900  1.00  0.00     0.162 HD
HETATM   17  O   UNL     1      -9.913   3.662 -30.507  1.00  0.00    -0.273 OA
BRANCH  15  18
HETATM   18  C   UNL     1      -6.490   4.403 -29.654  1.00  0.00     0.127 C 
BRANCH  18  19
HETATM   19  C   UNL     1      -5.376   3.566 -30.285  1.00  0.00     0.058 C 
BRANCH  19  20
HETATM   20  C   UNL     1      -4.393   4.477 -30.984  1.00  0.00    -0.057 A 
HETATM   21  C   UNL     1      -3.177   3.970 -31.466  1.00  0.00     0.009 A 
HETATM   22  C   UNL     1      -2.218   4.829 -32.007  1.00  0.00     0.025 A 
HETATM   23  C   UNL     1      -2.477   6.200 -32.074  1.00  0.00     0.074 A 
HETATM   24  C   UNL     1      -3.688   6.717 -31.609  1.00  0.00     0.025 A 
HETATM   25  C   UNL     1      -4.645   5.855 -31.070  1.00  0.00     0.009 A 
BRANCH  23  26
HETATM   26  S   UNL     1      -1.215   7.300 -32.649  1.00  0.00     0.239 S 
HETATM   27  O   UNL     1      -1.731   8.649 -32.643  1.00  0.00    -0.206 OA
HETATM   28  O   UNL     1       0.033   6.947 -32.013  1.00  0.00    -0.206 OA
BRANCH  26  29
HETATM   29  N   UNL     1      -1.067   6.860 -34.260  1.00  0.00    -0.225 NA
HETATM   30  H   UNL     1      -0.649   5.931 -34.330  1.00  0.00     0.136 HD
HETATM   31  H   UNL     1      -1.971   6.934 -34.727  1.00  0.00     0.136 HD
ENDBRANCH  26  29
ENDBRANCH  23  26
ENDBRANCH  19  20
ENDBRANCH  18  19
ENDBRANCH  15  18
ENDBRANCH  13  14
ENDBRANCH  12  13
ENDBRANCH   2  12
BRANCH   1  32
HETATM   32  C   UNL     1      -7.921   0.839 -32.806  1.00  0.00     0.051 A 
HETATM   33  C   UNL     1      -7.092   0.250 -33.779  1.00  0.00    -0.035 A 
HETATM   34  C   UNL     1      -7.389   0.269 -35.252  1.00  0.00     0.050 C 
HETATM   35  C   UNL     1      -5.897  -0.336 -33.339  1.00  0.00     0.011 A 
HETATM   36  C   UNL     1      -5.577  -0.369 -31.978  1.00  0.00     0.024 A 
HETATM   37  C   UNL     1      -6.438   0.197 -31.038  1.00  0.00     0.036 A 
HETATM   38  C   UNL     1      -7.620   0.810 -31.442  1.00  0.00     0.054 A 
HETATM   39 CL   UNL     1      -6.047   0.126 -29.368  1.00  0.00    -0.084 Cl
ENDBRANCH   1  32
BRANCH   6  40
HETATM   40  N   UNL     1     -10.224  -0.745 -33.000  1.00  0.00    -0.384 N 
HETATM   41  H   UNL     1     -10.932  -1.157 -32.401  1.00  0.00     0.157 HD
HETATM   42  H   UNL     1      -9.769  -1.399 -33.625  1.00  0.00     0.157 HD
ENDBRANCH   6  40
TORSDOF 10
ENDMDL
MODEL 4
REMARK VINA RESULT:      -8.1      2.005      2.525
REMARK  10 active torsions:
REMARK  status: ('A' for Active; 'I' for Inactive)
REMARK    1  A    between atoms: C_3  and  N_4 
REMARK    2  A    between atoms: C_5  and  S_6 
REMARK    3  A    between atoms: S_6  and  C_7 
REMARK    4  A    between atoms: C_7  and  C_8 
REMARK       I    between atoms: C_8  and  N_9 
REMARK    5  A    between atoms: N_9  and  C_10 
REMARK    6  A    between atoms: C_10  and  C_11 
REMARK    7  A    between atoms: C_11  and  C_12 
REMARK    8  A    between atoms: C_15  and  S_16 
REMARK    9  A    between atoms: S_16  and  N_17 
REMARK   10  A    between atoms: C_26  and  N_27 
ROOT
HETATM    1  N   UNL     1      -5.435   3.664 -31.755  1.00  0.00    -0.275 N 
HETATM    2  C   UNL     1      -5.587   2.312 -31.664  1.00  0.00     0.177 A 
HETATM    3  N   UNL     1      -6.683   1.686 -31.178  1.00  0.00    -0.204 NA
HETATM    4  C   UNL     1      -7.666   2.544 -30.907  1.00  0.00     0.162 A 
HETATM    5  C   UNL     1      -7.623   3.917 -31.023  1.00  0.00     0.081 A 
HETATM    6  C   UNL     1      -6.432   4.537 -31.436  1.00  0.00     0.124 A 
HETATM    7  N   UNL     1      -8.918   2.221 -30.467  1.00  0.00    -0.260 N 
HETATM    8  H   UNL     1      -9.293   1.299 -30.274  1.00  0.00     0.191 HD
HETATM    9  N   UNL     1      -9.706   3.291 -30.294  1.00  0.00    -0.177 NA
HETATM   10  C   UNL     1      -8.935   4.330 -30.638  1.00  0.00     0.068 A 
HETATM   11  C   UNL     1      -9.504   5.702 -30.585  1.00  0.00     0.073 C 
ENDROOT
BRANCH   2  12
HETATM   12  S   UNL     1      -4.274   1.189 -32.184  1.00  0.00    -0.082 SA
BRANCH  12  13
HETATM   13  C   UNL     1      -5.167  -0.398 -32.138  1.00  0.00     0.185 C 
BRANCH  13  14
HETATM   14  C   UNL     1      -5.157  -1.127 -33.479  1.00  0.00     0.227 C 
HETATM   15  N   UNL     1      -6.354  -1.217 -34.149  1.00  0.00    -0.360 N 
HETATM   16  H   UNL     1      -6.286  -1.654 -35.064  1.00  0.00     0.162 HD
HETATM   17  O   UNL     1      -4.141  -1.614 -33.977  1.00  0.00    -0.273 OA
BRANCH  15  18
HETATM   18  C   UNL     1      -7.556  -0.469 -33.813  1.00  0.00     0.127 C 
BRANCH  18  19
HETATM   19  C   UNL     1      -7.662   0.883 -34.518  1.00  0.00     0.058 C 
BRANCH  19  20
HETATM   20  C   UNL     1      -9.008   1.504 -34.223  1.00  0.00    -0.057 A 
HETATM   21  C   UNL     1      -9.179   2.895 -34.294  1.00  0.00     0.009 A 
HETATM   22  C   UNL     1     -10.387   3.479 -33.909  1.00  0.00     0.025 A 
HETATM   23  C   UNL     1     -11.433   2.671 -33.457  1.00  0.00     0.074 A 
HETATM   24  C   UNL     1     -11.281   1.284 -33.392  1.00  0.00     0.025 A 
HETATM   25  C   UNL     1     -10.072   0.703 -33.778  1.00  0.00     0.009 A 
BRANCH  23  26
HETATM   26  S   UNL     1     -12.920   3.421 -32.857  1.00  0.00     0.239 S 
HETATM   27  O   UNL     1     -13.899   2.389 -32.610  1.00  0.00    -0.206 OA
HETATM   28  O   UNL     1     -12.572   4.411 -31.865  1.00  0.00    -0.206 OA
BRANCH  26  29
HETATM   29  N   UNL     1     -13.458   4.268 -34.201  1.00  0.00    -0.225 NA
HETATM   30  H   UNL     1     -12.766   4.970 -34.470  1.00  0.00     0.136 HD
HETATM   31  H   UNL     1     -13.691   3.618 -34.953  1.00  0.00     0.136 HD
ENDBRANCH  26  29
ENDBRANCH  23  26
ENDBRANCH  19  20
ENDBRANCH  18  19
ENDBRANCH  15  18
ENDBRANCH  13  14
ENDBRANCH  12  13
ENDBRANCH   2  12
BRANCH   1  32
HETATM   32  C   UNL     1      -4.185   4.204 -32.219  1.00  0.00     0.051 A 
HETATM   33  C   UNL     1      -4.015   4.512 -33.582  1.00  0.00    -0.035 A 
HETATM   34  C   UNL     1      -5.108   4.396 -34.607  1.00  0.00     0.050 C 
HETATM   35  C   UNL     1      -2.766   5.005 -33.981  1.00  0.00     0.011 A 
HETATM   36  C   UNL     1      -1.722   5.137 -33.059  1.00  0.00     0.024 A 
HETATM   37  C   UNL     1      -1.917   4.793 -31.722  1.00  0.00     0.036 A 
HETATM   38  C   UNL     1      -3.152   4.324 -31.286  1.00  0.00     0.054 A 
HETATM   39 CL   UNL     1      -0.621   4.932 -30.605  1.00  0.00    -0.084 Cl
ENDBRANCH   1  32
BRANCH   6  40
HETATM   40  N   UNL     1      -6.285   5.917 -31.505  1.00  0.00    -0.384 N 
HETATM   41  H   UNL     1      -6.563   6.398 -32.354  1.00  0.00     0.157 HD
HETATM   42  H   UNL     1      -6.257   6.501 -30.680  1.00  0.00     0.157 HD
ENDBRANCH   6  40
TORSDOF 10
ENDMDL
MODEL 5
REMARK VINA RESULT:      -8.0      2.683      5.322
REMARK  10 active torsions:
REMARK  status: ('A' for Active; 'I' for Inactive)
REMARK    1  A    between atoms: C_3  and  N_4 
REMARK    2  A    between atoms: C_5  and  S_6 
REMARK    3  A    between atoms: S_6  and  C_7 
REMARK    4  A    between atoms: C_7  and  C_8 
REMARK       I    between atoms: C_8  and  N_9 
REMARK    5  A    between atoms: N_9  and  C_10 
REMARK    6  A    between atoms: C_10  and  C_11 
REMARK    7  A    between atoms: C_11  and  C_12 
REMARK    8  A    between atoms: C_15  and  S_16 
REMARK    9  A    between atoms: S_16  and  N_17 
REMARK   10  A    between atoms: C_26  and  N_27 
ROOT
HETATM    1  N   UNL     1      -4.104   3.983 -31.252  1.00  0.00    -0.275 N 
HETATM    2  C   UNL     1      -4.976   4.450 -30.314  1.00  0.00     0.177 A 
HETATM    3  N   UNL     1      -5.932   3.711 -29.707  1.00  0.00    -0.204 NA
HETATM    4  C   UNL     1      -5.849   2.422 -30.039  1.00  0.00     0.162 A 
HETATM    5  C   UNL     1      -4.965   1.851 -30.931  1.00  0.00     0.081 A 
HETATM    6  C   UNL     1      -4.053   2.670 -31.617  1.00  0.00     0.124 A 
HETATM    7  N   UNL     1      -6.625   1.413 -29.547  1.00  0.00    -0.260 N 
HETATM    8  H   UNL     1      -7.377   1.477 -28.869  1.00  0.00     0.191 HD
HETATM    9  N   UNL     1      -6.306   0.212 -30.048  1.00  0.00    -0.177 NA
HETATM   10  C   UNL     1      -5.291   0.461 -30.885  1.00  0.00     0.068 A 
HETATM   11  C   UNL     1      -4.661  -0.670 -31.616  1.00  0.00     0.073 C 
ENDROOT
BRANCH   2  12
HETATM   12  S   UNL     1      -4.948   6.177 -29.794  1.00  0.00    -0.082 SA
BRANCH  12  13
HETATM   13  C   UNL     1      -5.749   6.038 -28.164  1.00  0.00     0.185 C 
BRANCH  13  14
HETATM   14  C   UNL     1      -6.325   7.361 -27.668  1.00  0.00     0.227 C 
HETATM   15  N   UNL     1      -7.604   7.672 -28.063  1.00  0.00    -0.360 N 
HETATM   16  H   UNL     1      -7.968   8.530 -27.658  1.00  0.00     0.162 HD
HETATM   17  O   UNL     1      -5.708   8.136 -26.934  1.00  0.00    -0.273 OA
BRANCH  15  18
HETATM   18  C   UNL     1      -8.530   6.745 -28.695  1.00  0.00     0.127 C 
BRANCH  18  19
HETATM   19  C   UNL     1      -8.635   6.909 -30.211  1.00  0.00     0.058 C 
BRANCH  19  20
HETATM   20  C   UNL     1      -8.848   5.558 -30.854  1.00  0.00    -0.057 A 
HETATM   21  C   UNL     1      -9.625   4.582 -30.210  1.00  0.00     0.009 A 
HETATM   22  C   UNL     1      -9.727   3.296 -30.744  1.00  0.00     0.025 A 
HETATM   23  C   UNL     1      -9.057   2.984 -31.930  1.00  0.00     0.074 A 
HETATM   24  C   UNL     1      -8.290   3.949 -32.586  1.00  0.00     0.025 A 
HETATM   25  C   UNL     1      -8.191   5.233 -32.051  1.00  0.00     0.009 A 
BRANCH  23  26
HETATM   26  S   UNL     1      -9.090   1.322 -32.541  1.00  0.00     0.239 S 
HETATM   27  O   UNL     1     -10.334   1.106 -33.242  1.00  0.00    -0.206 OA
HETATM   28  O   UNL     1      -7.807   1.020 -33.130  1.00  0.00    -0.206 OA
BRANCH  26  29
HETATM   29  N   UNL     1      -9.185   0.426 -31.127  1.00  0.00    -0.225 NA
HETATM   30  H   UNL     1      -8.784   0.956 -30.351  1.00  0.00     0.136 HD
HETATM   31  H   UNL     1     -10.149   0.133 -30.963  1.00  0.00     0.136 HD
ENDBRANCH  26  29
ENDBRANCH  23  26
ENDBRANCH  19  20
ENDBRANCH  18  19
ENDBRANCH  15  18
ENDBRANCH  13  14
ENDBRANCH  12  13
ENDBRANCH   2  12
BRANCH   1  32
HETATM   32  C   UNL     1      -3.185   4.895 -31.879  1.00  0.00     0.051 A 
HETATM   33  C   UNL     1      -3.517   5.493 -33.109  1.00  0.00    -0.035 A 
HETATM   34  C   UNL     1      -4.840   5.312 -33.796  1.00  0.00     0.050 C 
HETATM   35  C   UNL     1      -2.568   6.348 -33.686  1.00  0.00     0.011 A 
HETATM   36  C   UNL     1      -1.326   6.552 -33.077  1.00  0.00     0.024 A 
HETATM   37  C   UNL     1      -1.019   5.918 -31.873  1.00  0.00     0.036 A 
HETATM   38  C   UNL     1      -1.946   5.083 -31.259  1.00  0.00     0.054 A 
HETATM   39 CL   UNL     1       0.519   6.156 -31.149  1.00  0.00    -0.084 Cl
ENDBRANCH   1  32
BRANCH   6  40
HETATM   40  N   UNL     1      -3.184   2.183 -32.585  1.00  0.00    -0.384 N 
HETATM   41  H   UNL     1      -2.186   2.313 -32.458  1.00  0.00     0.157 HD
HETATM   42  H   UNL     1      -3.434   1.425 -33.207  1.00  0.00     0.157 HD
ENDBRANCH   6  40
TORSDOF 10
ENDMDL
MODEL 6
REMARK VINA RESULT:      -8.0      2.621      6.082
REMARK  10 active torsions:
REMARK  status: ('A' for Active; 'I' for Inactive)
REMARK    1  A    between atoms: C_3  and  N_4 
REMARK    2  A    between atoms: C_5  and  S_6 
REMARK    3  A    between atoms: S_6  and  C_7 
REMARK    4  A    between atoms: C_7  and  C_8 
REMARK       I    between atoms: C_8  and  N_9 
REMARK    5  A    between atoms: N_9  and  C_10 
REMARK    6  A    between atoms: C_10  and  C_11 
REMARK    7  A    between atoms: C_11  and  C_12 
REMARK    8  A    between atoms: C_15  and  S_16 
REMARK    9  A    between atoms: S_16  and  N_17 
REMARK   10  A    between atoms: C_26  and  N_27 
ROOT
HETATM    1  N   UNL     1      -5.473   5.707 -31.802  1.00  0.00    -0.275 N 
HETATM    2  C   UNL     1      -6.197   5.596 -32.952  1.00  0.00     0.177 A 
HETATM    3  N   UNL     1      -5.671   5.505 -34.194  1.00  0.00    -0.204 NA
HETATM    4  C   UNL     1      -4.342   5.410 -34.165  1.00  0.00     0.162 A 
HETATM    5  C   UNL     1      -3.532   5.453 -33.049  1.00  0.00     0.081 A 
HETATM    6  C   UNL     1      -4.111   5.650 -31.785  1.00  0.00     0.124 A 
HETATM    7  N   UNL     1      -3.523   5.239 -35.244  1.00  0.00    -0.260 N 
HETATM    8  H   UNL     1      -3.785   5.166 -36.221  1.00  0.00     0.191 HD
HETATM    9  N   UNL     1      -2.227   5.159 -34.913  1.00  0.00    -0.177 NA
HETATM   10  C   UNL     1      -2.218   5.278 -33.579  1.00  0.00     0.068 A 
HETATM   11  C   UNL     1      -0.920   5.212 -32.857  1.00  0.00     0.073 C 
ENDROOT
BRANCH   2  12
HETATM   12  S   UNL     1      -8.001   5.584 -32.919  1.00  0.00    -0.082 SA
BRANCH  12  13
HETATM   13  C   UNL     1      -8.312   3.791 -32.837  1.00  0.00     0.185 C 
BRANCH  13  14
HETATM   14  C   UNL     1      -9.454   3.426 -31.892  1.00  0.00     0.227 C 
HETATM   15  N   UNL     1     -10.253   2.370 -32.259  1.00  0.00    -0.360 N 
HETATM   16  H   UNL     1     -10.959   2.124 -31.570  1.00  0.00     0.162 HD
HETATM   17  O   UNL     1      -9.673   4.020 -30.835  1.00  0.00    -0.273 OA
BRANCH  15  18
HETATM   18  C   UNL     1      -9.952   1.427 -33.325  1.00  0.00     0.127 C 
BRANCH  18  19
HETATM   19  C   UNL     1      -9.600   0.024 -32.831  1.00  0.00     0.058 C 
BRANCH  19  20
HETATM   20  C   UNL     1      -8.099  -0.111 -32.718  1.00  0.00    -0.057 A 
HETATM   21  C   UNL     1      -7.344  -0.568 -33.808  1.00  0.00     0.009 A 
HETATM   22  C   UNL     1      -5.974  -0.805 -33.670  1.00  0.00     0.025 A 
HETATM   23  C   UNL     1      -5.354  -0.577 -32.439  1.00  0.00     0.074 A 
HETATM   24  C   UNL     1      -6.091  -0.112 -31.348  1.00  0.00     0.025 A 
HETATM   25  C   UNL     1      -7.459   0.125 -31.490  1.00  0.00     0.009 A 
BRANCH  23  26
HETATM   26  S   UNL     1      -3.645  -0.990 -32.233  1.00  0.00     0.239 S 
HETATM   27  O   UNL     1      -3.530  -2.413 -32.015  1.00  0.00    -0.206 OA
HETATM   28  O   UNL     1      -2.876  -0.298 -33.240  1.00  0.00    -0.206 OA
BRANCH  26  29
HETATM   29  N   UNL     1      -3.276  -0.259 -30.770  1.00  0.00    -0.225 NA
HETATM   30  H   UNL     1      -3.892  -0.615 -30.038  1.00  0.00     0.136 HD
HETATM   31  H   UNL     1      -2.284  -0.378 -30.560  1.00  0.00     0.136 HD
ENDBRANCH  26  29
ENDBRANCH  23  26
ENDBRANCH  19  20
ENDBRANCH  18  19
ENDBRANCH  15  18
ENDBRANCH  13  14
ENDBRANCH  12  13
ENDBRANCH   2  12
BRANCH   1  32
HETATM   32  C   UNL     1      -6.159   5.875 -30.549  1.00  0.00     0.051 A 
HETATM   33  C   UNL     1      -6.442   4.754 -29.746  1.00  0.00    -0.035 A 
HETATM   34  C   UNL     1      -5.988   3.359 -30.071  1.00  0.00     0.050 C 
HETATM   35  C   UNL     1      -7.140   4.975 -28.552  1.00  0.00     0.011 A 
HETATM   36  C   UNL     1      -7.575   6.259 -28.206  1.00  0.00     0.024 A 
HETATM   37  C   UNL     1      -7.304   7.343 -29.041  1.00  0.00     0.036 A 
HETATM   38  C   UNL     1      -6.591   7.163 -30.222  1.00  0.00     0.054 A 
HETATM   39 CL   UNL     1      -7.867   8.909 -28.619  1.00  0.00    -0.084 Cl
ENDBRANCH   1  32
BRANCH   6  40
HETATM   40  N   UNL     1      -3.360   5.781 -30.624  1.00  0.00    -0.384 N 
HETATM   41  H   UNL     1      -2.435   6.194 -30.682  1.00  0.00     0.157 HD
HETATM   42  H   UNL     1      -3.782   5.824 -29.705  1.00  0.00     0.157 HD
ENDBRANCH   6  40
TORSDOF 10
ENDMDL
MODEL 7
REMARK VINA RESULT:      -8.0      4.407      8.212
REMARK  10 active torsions:
REMARK  status: ('A' for Active; 'I' for Inactive)
REMARK    1  A    between atoms: C_3  and  N_4 
REMARK    2  A    between atoms: C_5  and  S_6 
REMARK    3  A    between atoms: S_6  and  C_7 
REMARK    4  A    between atoms: C_7  and  C_8 
REMARK       I    between atoms: C_8  and  N_9 
REMARK    5  A    between atoms: N_9  and  C_10 
REMARK    6  A    between atoms: C_10  and  C_11 
REMARK    7  A    between atoms: C_11  and  C_12 
REMARK    8  A    between atoms: C_15  and  S_16 
REMARK    9  A    between atoms: S_16  and  N_17 
REMARK   10  A    between atoms: C_26  and  N_27 
ROOT
HETATM    1  N   UNL     1      -7.616   2.826 -33.163  1.00  0.00    -0.275 N 
HETATM    2  C   UNL     1      -6.848   3.933 -33.372  1.00  0.00     0.177 A 
HETATM    3  N   UNL     1      -7.282   5.082 -33.938  1.00  0.00    -0.204 NA
HETATM    4  C   UNL     1      -8.596   5.060 -34.162  1.00  0.00     0.162 A 
HETATM    5  C   UNL     1      -9.460   4.011 -33.927  1.00  0.00     0.081 A 
HETATM    6  C   UNL     1      -8.952   2.798 -33.432  1.00  0.00     0.124 A 
HETATM    7  N   UNL     1      -9.345   6.087 -34.660  1.00  0.00    -0.260 N 
HETATM    8  H   UNL     1      -9.031   7.010 -34.941  1.00  0.00     0.191 HD
HETATM    9  N   UNL     1     -10.647   5.787 -34.762  1.00  0.00    -0.177 NA
HETATM   10  C   UNL     1     -10.734   4.530 -34.311  1.00  0.00     0.068 A 
HETATM   11  C   UNL     1     -12.065   3.869 -34.262  1.00  0.00     0.073 C 
ENDROOT
BRANCH   2  12
HETATM   12  S   UNL     1      -5.104   3.957 -32.916  1.00  0.00    -0.082 SA
BRANCH  12  13
HETATM   13  C   UNL     1      -4.637   5.616 -33.505  1.00  0.00     0.185 C 
BRANCH  13  14
HETATM   14  C   UNL     1      -3.717   5.580 -34.722  1.00  0.00     0.227 C 
HETATM   15  N   UNL     1      -2.627   6.418 -34.705  1.00  0.00    -0.360 N 
HETATM   16  H   UNL     1      -2.010   6.313 -35.505  1.00  0.00     0.162 HD
HETATM   17  O   UNL     1      -3.902   4.839 -35.689  1.00  0.00    -0.273 OA
BRANCH  15  18
HETATM   18  C   UNL     1      -2.146   7.137 -33.535  1.00  0.00     0.127 C 
BRANCH  18  19
HETATM   19  C   UNL     1      -0.789   6.654 -33.024  1.00  0.00     0.058 C 
BRANCH  19  20
HETATM   20  C   UNL     1      -0.775   6.689 -31.513  1.00  0.00    -0.057 A 
HETATM   21  C   UNL     1      -1.979   6.712 -30.793  1.00  0.00     0.009 A 
HETATM   22  C   UNL     1      -1.970   6.862 -29.405  1.00  0.00     0.025 A 
HETATM   23  C   UNL     1      -0.753   6.984 -28.731  1.00  0.00     0.074 A 
HETATM   24  C   UNL     1       0.454   6.953 -29.433  1.00  0.00     0.025 A 
HETATM   25  C   UNL     1       0.441   6.801 -30.820  1.00  0.00     0.009 A 
BRANCH  23  26
HETATM   26  S   UNL     1      -0.747   7.295 -26.988  1.00  0.00     0.239 S 
HETATM   27  O   UNL     1       0.484   7.962 -26.635  1.00  0.00    -0.206 OA
HETATM   28  O   UNL     1      -2.042   7.807 -26.605  1.00  0.00    -0.206 OA
BRANCH  26  29
HETATM   29  N   UNL     1      -0.644   5.747 -26.351  1.00  0.00    -0.225 NA
HETATM   30  H   UNL     1       0.319   5.412 -26.404  1.00  0.00     0.136 HD
HETATM   31  H   UNL     1      -1.027   5.733 -25.405  1.00  0.00     0.136 HD
ENDBRANCH  26  29
ENDBRANCH  23  26
ENDBRANCH  19  20
ENDBRANCH  18  19
ENDBRANCH  15  18
ENDBRANCH  13  14
ENDBRANCH  12  13
ENDBRANCH   2  12
BRANCH   1  32
HETATM   32  C   UNL     1      -7.010   1.639 -32.621  1.00  0.00     0.051 A 
HETATM   33  C   UNL     1      -6.873   1.492 -31.228  1.00  0.00    -0.035 A 
HETATM   34  C   UNL     1      -7.409   2.477 -30.228  1.00  0.00     0.050 C 
HETATM   35  C   UNL     1      -6.246   0.329 -30.761  1.00  0.00     0.011 A 
HETATM   36  C   UNL     1      -5.739  -0.618 -31.656  1.00  0.00     0.024 A 
HETATM   37  C   UNL     1      -5.866  -0.426 -33.031  1.00  0.00     0.036 A 
HETATM   38  C   UNL     1      -6.505   0.705 -33.530  1.00  0.00     0.054 A 
HETATM   39 CL   UNL     1      -5.216  -1.582 -34.120  1.00  0.00    -0.084 Cl
ENDBRANCH   1  32
BRANCH   6  40
HETATM   40  N   UNL     1      -9.743   1.672 -33.242  1.00  0.00    -0.384 N 
HETATM   41  H   UNL     1     -10.686   1.788 -32.889  1.00  0.00     0.157 HD
HETATM   42  H   UNL     1      -9.585   0.807 -33.744  1.00  0.00     0.157 HD
ENDBRANCH   6  40
TORSDOF 10
ENDMDL
MODEL 8
REMARK VINA RESULT:      -7.8      1.663      2.246
REMARK  10 active torsions:
REMARK  status: ('A' for Active; 'I' for Inactive)
REMARK    1  A    between atoms: C_3  and  N_4 
REMARK    2  A    between atoms: C_5  and  S_6 
REMARK    3  A    between atoms: S_6  and  C_7 
REMARK    4  A    between atoms: C_7  and  C_8 
REMARK       I    between atoms: C_8  and  N_9 
REMARK    5  A    between atoms: N_9  and  C_10 
REMARK    6  A    between atoms: C_10  and  C_11 
REMARK    7  A    between atoms: C_11  and  C_12 
REMARK    8  A    between atoms: C_15  and  S_16 
REMARK    9  A    between atoms: S_16  and  N_17 
REMARK   10  A    between atoms: C_26  and  N_27 
ROOT
HETATM    1  N   UNL     1      -5.241   4.177 -31.579  1.00  0.00    -0.275 N 
HETATM    2  C   UNL     1      -5.151   2.896 -31.121  1.00  0.00     0.177 A 
HETATM    3  N   UNL     1      -6.193   2.158 -30.676  1.00  0.00    -0.204 NA
HETATM    4  C   UNL     1      -7.356   2.782 -30.853  1.00  0.00     0.162 A 
HETATM    5  C   UNL     1      -7.548   4.050 -31.362  1.00  0.00     0.081 A 
HETATM    6  C   UNL     1      -6.432   4.825 -31.719  1.00  0.00     0.124 A 
HETATM    7  N   UNL     1      -8.593   2.277 -30.571  1.00  0.00    -0.260 N 
HETATM    8  H   UNL     1      -8.822   1.368 -30.183  1.00  0.00     0.191 HD
HETATM    9  N   UNL     1      -9.588   3.124 -30.868  1.00  0.00    -0.177 NA
HETATM   10  C   UNL     1      -8.968   4.204 -31.360  1.00  0.00     0.068 A 
HETATM   11  C   UNL     1      -9.783   5.359 -31.820  1.00  0.00     0.073 C 
ENDROOT
BRANCH   2  12
HETATM   12  S   UNL     1      -3.563   2.045 -31.038  1.00  0.00    -0.082 SA
BRANCH  12  13
HETATM   13  C   UNL     1      -4.127   0.316 -30.928  1.00  0.00     0.185 C 
BRANCH  13  14
HETATM   14  C   UNL     1      -3.496  -0.586 -31.985  1.00  0.00     0.227 C 
HETATM   15  N   UNL     1      -4.229  -0.818 -33.124  1.00  0.00    -0.360 N 
HETATM   16  H   UNL     1      -3.743  -1.371 -33.825  1.00  0.00     0.162 HD
HETATM   17  O   UNL     1      -2.379  -1.091 -31.864  1.00  0.00    -0.273 OA
BRANCH  15  18
HETATM   18  C   UNL     1      -5.424  -0.085 -33.511  1.00  0.00     0.127 C 
BRANCH  18  19
HETATM   19  C   UNL     1      -6.729  -0.829 -33.222  1.00  0.00     0.058 C 
BRANCH  19  20
HETATM   20  C   UNL     1      -7.901   0.101 -33.441  1.00  0.00    -0.057 A 
HETATM   21  C   UNL     1      -9.188  -0.272 -33.024  1.00  0.00     0.009 A 
HETATM   22  C   UNL     1     -10.289   0.531 -33.329  1.00  0.00     0.025 A 
HETATM   23  C   UNL     1     -10.103   1.715 -34.047  1.00  0.00     0.074 A 
HETATM   24  C   UNL     1      -8.827   2.104 -34.459  1.00  0.00     0.025 A 
HETATM   25  C   UNL     1      -7.728   1.299 -34.151  1.00  0.00     0.009 A 
BRANCH  23  26
HETATM   26  S   UNL     1     -11.512   2.670 -34.536  1.00  0.00     0.239 S 
HETATM   27  O   UNL     1     -12.454   2.708 -33.442  1.00  0.00    -0.206 OA
HETATM   28  O   UNL     1     -11.053   3.865 -35.203  1.00  0.00    -0.206 OA
BRANCH  26  29
HETATM   29  N   UNL     1     -12.203   1.703 -35.719  1.00  0.00    -0.225 NA
HETATM   30  H   UNL     1     -11.488   1.398 -36.381  1.00  0.00     0.136 HD
HETATM   31  H   UNL     1     -12.711   0.931 -35.286  1.00  0.00     0.136 HD
ENDBRANCH  26  29
ENDBRANCH  23  26
ENDBRANCH  19  20
ENDBRANCH  18  19
ENDBRANCH  15  18
ENDBRANCH  13  14
ENDBRANCH  12  13
ENDBRANCH   2  12
BRANCH   1  32
HETATM   32  C   UNL     1      -4.041   4.880 -31.950  1.00  0.00     0.051 A 
HETATM   33  C   UNL     1      -3.500   5.851 -31.087  1.00  0.00    -0.035 A 
HETATM   34  C   UNL     1      -4.051   6.156 -29.723  1.00  0.00     0.050 C 
HETATM   35  C   UNL     1      -2.348   6.525 -31.516  1.00  0.00     0.011 A 
HETATM   36  C   UNL     1      -1.797   6.267 -32.775  1.00  0.00     0.024 A 
HETATM   37  C   UNL     1      -2.379   5.320 -33.618  1.00  0.00     0.036 A 
HETATM   38  C   UNL     1      -3.507   4.614 -33.214  1.00  0.00     0.054 A 
HETATM   39 CL   UNL     1      -1.709   5.032 -35.172  1.00  0.00    -0.084 Cl
ENDBRANCH   1  32
BRANCH   6  40
HETATM   40  N   UNL     1      -6.537   6.136 -32.167  1.00  0.00    -0.384 N 
HETATM   41  H   UNL     1      -5.702   6.612 -32.491  1.00  0.00     0.157 HD
HETATM   42  H   UNL     1      -7.404   6.522 -32.516  1.00  0.00     0.157 HD
ENDBRANCH   6  40
TORSDOF 10
ENDMDL
MODEL 9
REMARK VINA RESULT:      -7.8      3.211      5.287
REMARK  10 active torsions:
REMARK  status: ('A' for Active; 'I' for Inactive)
REMARK    1  A    between atoms: C_3  and  N_4 
REMARK    2  A    between atoms: C_5  and  S_6 
REMARK    3  A    between atoms: S_6  and  C_7 
REMARK    4  A    between atoms: C_7  and  C_8 
REMARK       I    between atoms: C_8  and  N_9 
REMARK    5  A    between atoms: N_9  and  C_10 
REMARK    6  A    between atoms: C_10  and  C_11 
REMARK    7  A    between atoms: C_11  and  C_12 
REMARK    8  A    between atoms: C_15  and  S_16 
REMARK    9  A    between atoms: S_16  and  N_17 
REMARK   10  A    between atoms: C_26  and  N_27 
ROOT
HETATM    1  N   UNL     1      -5.191   5.172 -32.388  1.00  0.00    -0.275 N 
HETATM    2  C   UNL     1      -5.285   4.701 -33.665  1.00  0.00     0.177 A 
HETATM    3  N   UNL     1      -4.426   4.997 -34.666  1.00  0.00    -0.204 NA
HETATM    4  C   UNL     1      -3.388   5.712 -34.234  1.00  0.00     0.162 A 
HETATM    5  C   UNL     1      -3.179   6.181 -32.954  1.00  0.00     0.081 A 
HETATM    6  C   UNL     1      -4.146   5.937 -31.965  1.00  0.00     0.124 A 
HETATM    7  N   UNL     1      -2.318   6.112 -34.983  1.00  0.00    -0.260 N 
HETATM    8  H   UNL     1      -2.147   5.939 -35.968  1.00  0.00     0.191 HD
HETATM    9  N   UNL     1      -1.413   6.806 -34.280  1.00  0.00    -0.177 NA
HETATM   10  C   UNL     1      -1.919   6.848 -33.041  1.00  0.00     0.068 A 
HETATM   11  C   UNL     1      -1.152   7.538 -31.970  1.00  0.00     0.073 C 
ENDROOT
BRANCH   2  12
HETATM   12  S   UNL     1      -6.637   3.614 -34.159  1.00  0.00    -0.082 SA
BRANCH  12  13
HETATM   13  C   UNL     1      -5.854   1.988 -33.911  1.00  0.00     0.185 C 
BRANCH  13  14
HETATM   14  C   UNL     1      -6.737   0.826 -34.355  1.00  0.00     0.227 C 
HETATM   15  N   UNL     1      -7.203  -0.014 -33.372  1.00  0.00    -0.360 N 
HETATM   16  H   UNL     1      -7.837  -0.734 -33.706  1.00  0.00     0.162 HD
HETATM   17  O   UNL     1      -7.052   0.625 -35.529  1.00  0.00    -0.273 OA
BRANCH  15  18
HETATM   18  C   UNL     1      -7.133   0.254 -31.944  1.00  0.00     0.127 C 
BRANCH  18  19
HETATM   19  C   UNL     1      -8.499   0.406 -31.274  1.00  0.00     0.058 C 
BRANCH  19  20
HETATM   20  C   UNL     1      -9.503   0.916 -32.281  1.00  0.00    -0.057 A 
HETATM   21  C   UNL     1      -9.593   2.288 -32.560  1.00  0.00     0.009 A 
HETATM   22  C   UNL     1     -10.596   2.775 -33.400  1.00  0.00     0.025 A 
HETATM   23  C   UNL     1     -11.510   1.886 -33.972  1.00  0.00     0.074 A 
HETATM   24  C   UNL     1     -11.426   0.516 -33.712  1.00  0.00     0.025 A 
HETATM   25  C   UNL     1     -10.422   0.034 -32.872  1.00  0.00     0.009 A 
BRANCH  23  26
HETATM   26  S   UNL     1     -12.852   2.516 -34.940  1.00  0.00     0.239 S 
HETATM   27  O   UNL     1     -13.929   1.555 -34.929  1.00  0.00    -0.206 OA
HETATM   28  O   UNL     1     -13.052   3.907 -34.605  1.00  0.00    -0.206 OA
BRANCH  26  29
HETATM   29  N   UNL     1     -12.214   2.491 -36.490  1.00  0.00    -0.225 NA
HETATM   30  H   UNL     1     -12.709   1.803 -37.060  1.00  0.00     0.136 HD
HETATM   31  H   UNL     1     -12.225   3.431 -36.888  1.00  0.00     0.136 HD
ENDBRANCH  26  29
ENDBRANCH  23  26
ENDBRANCH  19  20
ENDBRANCH  18  19
ENDBRANCH  15  18
ENDBRANCH  13  14
ENDBRANCH  12  13
ENDBRANCH   2  12
BRANCH   1  32
HETATM   32  C   UNL     1      -6.217   4.841 -31.436  1.00  0.00     0.051 A 
HETATM   33  C   UNL     1      -6.066   3.720 -30.599  1.00  0.00    -0.035 A 
HETATM   34  C   UNL     1      -4.831   2.864 -30.565  1.00  0.00     0.050 C 
HETATM   35  C   UNL     1      -7.113   3.430 -29.714  1.00  0.00     0.011 A 
HETATM   36  C   UNL     1      -8.277   4.205 -29.707  1.00  0.00     0.024 A 
HETATM   37  C   UNL     1      -8.406   5.291 -30.572  1.00  0.00     0.036 A 
HETATM   38  C   UNL     1      -7.376   5.623 -31.446  1.00  0.00     0.054 A 
HETATM   39 CL   UNL     1      -9.851   6.218 -30.572  1.00  0.00    -0.084 Cl
ENDBRANCH   1  32
BRANCH   6  40
HETATM   40  N   UNL     1      -4.046   6.440 -30.674  1.00  0.00    -0.384 N 
HETATM   41  H   UNL     1      -3.125   6.607 -30.282  1.00  0.00     0.157 HD
HETATM   42  H   UNL     1      -4.791   6.969 -30.238  1.00  0.00     0.157 HD
ENDBRANCH   6  40
TORSDOF 10
ENDMDL
MODEL 10
REMARK VINA RESULT:      -7.8      3.612      8.220
REMARK  10 active torsions:
REMARK  status: ('A' for Active; 'I' for Inactive)
REMARK    1  A    between atoms: C_3  and  N_4 
REMARK    2  A    between atoms: C_5  and  S_6 
REMARK    3  A    between atoms: S_6  and  C_7 
REMARK    4  A    between atoms: C_7  and  C_8 
REMARK       I    between atoms: C_8  and  N_9 
REMARK    5  A    between atoms: N_9  and  C_10 
REMARK    6  A    between atoms: C_10  and  C_11 
REMARK    7  A    between atoms: C_11  and  C_12 
REMARK    8  A    between atoms: C_15  and  S_16 
REMARK    9  A    between atoms: S_16  and  N_17 
REMARK   10  A    between atoms: C_26  and  N_27 
ROOT
HETATM    1  N   UNL     1      -8.974   1.801 -33.195  1.00  0.00    -0.275 N 
HETATM    2  C   UNL     1      -8.707   2.080 -31.888  1.00  0.00     0.177 A 
HETATM    3  N   UNL     1      -7.837   1.396 -31.111  1.00  0.00    -0.204 NA
HETATM    4  C   UNL     1      -7.164   0.480 -31.807  1.00  0.00     0.162 A 
HETATM    5  C   UNL     1      -7.324   0.170 -33.141  1.00  0.00     0.081 A 
HETATM    6  C   UNL     1      -8.309   0.835 -33.889  1.00  0.00     0.124 A 
HETATM    7  N   UNL     1      -6.171  -0.325 -31.328  1.00  0.00    -0.260 N 
HETATM    8  H   UNL     1      -5.797  -0.362 -30.385  1.00  0.00     0.191 HD
HETATM    9  N   UNL     1      -5.659  -1.140 -32.260  1.00  0.00    -0.177 NA
HETATM   10  C   UNL     1      -6.345  -0.843 -33.372  1.00  0.00     0.068 A 
HETATM   11  C   UNL     1      -6.019  -1.558 -34.634  1.00  0.00     0.073 C 
ENDROOT
BRANCH   2  12
HETATM   12  S   UNL     1      -9.546   3.429 -31.033  1.00  0.00    -0.082 SA
BRANCH  12  13
HETATM   13  C   UNL     1      -8.172   4.616 -30.874  1.00  0.00     0.185 C 
BRANCH  13  14
HETATM   14  C   UNL     1      -8.202   5.709 -31.938  1.00  0.00     0.227 C 
HETATM   15  N   UNL     1      -7.130   5.772 -32.796  1.00  0.00    -0.360 N 
HETATM   16  H   UNL     1      -7.223   6.473 -33.527  1.00  0.00     0.162 HD
HETATM   17  O   UNL     1      -9.132   6.508 -32.063  1.00  0.00    -0.273 OA
BRANCH  15  18
HETATM   18  C   UNL     1      -6.110   4.745 -32.934  1.00  0.00     0.127 C 
BRANCH  18  19
HETATM   19  C   UNL     1      -5.040   5.068 -33.978  1.00  0.00     0.058 C 
BRANCH  19  20
HETATM   20  C   UNL     1      -3.686   5.141 -33.310  1.00  0.00    -0.057 A 
HETATM   21  C   UNL     1      -3.305   4.169 -32.372  1.00  0.00     0.009 A 
HETATM   22  C   UNL     1      -2.106   4.298 -31.668  1.00  0.00     0.025 A 
HETATM   23  C   UNL     1      -1.280   5.399 -31.907  1.00  0.00     0.074 A 
HETATM   24  C   UNL     1      -1.641   6.368 -32.845  1.00  0.00     0.025 A 
HETATM   25  C   UNL     1      -2.840   6.235 -33.547  1.00  0.00     0.009 A 
BRANCH  23  26
HETATM   26  S   UNL     1       0.180   5.623 -30.930  1.00  0.00     0.239 S 
HETATM   27  O   UNL     1       0.969   4.415 -30.983  1.00  0.00    -0.206 OA
HETATM   28  O   UNL     1       0.737   6.924 -31.220  1.00  0.00    -0.206 OA
BRANCH  26  29
HETATM   29  N   UNL     1      -0.442   5.711 -29.376  1.00  0.00    -0.225 NA
HETATM   30  H   UNL     1      -1.418   5.409 -29.374  1.00  0.00     0.136 HD
HETATM   31  H   UNL     1       0.148   5.181 -28.733  1.00  0.00     0.136 HD
ENDBRANCH  26  29
ENDBRANCH  23  26
ENDBRANCH  19  20
ENDBRANCH  18  19
ENDBRANCH  15  18
ENDBRANCH  13  14
ENDBRANCH  12  13
ENDBRANCH   2  12
BRANCH   1  32
HETATM   32  C   UNL     1      -9.982   2.560 -33.888  1.00  0.00     0.051 A 
HETATM   33  C   UNL     1     -11.260   2.008 -34.092  1.00  0.00    -0.035 A 
HETATM   34  C   UNL     1     -11.692   0.676 -33.546  1.00  0.00     0.050 C 
HETATM   35  C   UNL     1     -12.190   2.780 -34.800  1.00  0.00     0.011 A 
HETATM   36  C   UNL     1     -11.834   4.029 -35.320  1.00  0.00     0.024 A 
HETATM   37  C   UNL     1     -10.548   4.531 -35.125  1.00  0.00     0.036 A 
HETATM   38  C   UNL     1      -9.607   3.803 -34.404  1.00  0.00     0.054 A 
HETATM   39 CL   UNL     1     -10.114   6.053 -35.791  1.00  0.00    -0.084 Cl
ENDBRANCH   1  32
BRANCH   6  40
HETATM   40  N   UNL     1      -8.583   0.527 -35.216  1.00  0.00    -0.384 N 
HETATM   41  H   UNL     1      -8.901  -0.409 -35.447  1.00  0.00     0.157 HD
HETATM   42  H   UNL     1      -8.825   1.233 -35.899  1.00  0.00     0.157 HD
ENDBRANCH   6  40
TORSDOF 10
ENDMDL
