MODEL 1
REMARK VINA RESULT:      -7.6      0.000      0.000
REMARK  10 active torsions:
REMARK  status: ('A' for Active; 'I' for Inactive)
REMARK    1  A    between atoms: C_2  and  C_3 
REMARK    2  A    between atoms: C_3  and  C_4 
REMARK       I    between atoms: C_4  and  N_5 
REMARK    3  A    between atoms: N_5  and  C_6 
REMARK    4  A    between atoms: C_6  and  N_7 
REMARK    5  A    between atoms: C_6  and  C_21 
REMARK    6  A    between atoms: N_7  and  C_8 
REMARK    7  A    between atoms: C_8  and  N_9 
REMARK    8  A    between atoms: N_9  and  N_10 
REMARK       I    between atoms: N_10  and  C_11 
REMARK    9  A    between atoms: C_11  and  C_12 
REMARK   10  A    between atoms: C_13  and  O_14 
ROOT
HETATM    1  C   UNL     1      -3.630   3.004 -31.377  1.00  0.00     0.188 C 
HETATM    2  S   UNL     1      -5.228   3.368 -31.075  1.00  0.00    -0.039 SA
ENDROOT
BRANCH   1   3
HETATM    3  N   UNL     1      -2.567   3.845 -31.221  1.00  0.00    -0.341 N 
HETATM    4  H   UNL     1      -1.651   3.416 -31.280  1.00  0.00     0.164 HD
BRANCH   3   5
HETATM    5  C   UNL     1      -2.556   5.302 -31.159  1.00  0.00     0.241 C 
BRANCH   5   6
HETATM    6  N   UNL     1      -1.603   5.719 -30.135  1.00  0.00    -0.336 N 
HETATM    7  C   UNL     1      -0.275   5.372 -30.121  1.00  0.00     0.219 C 
HETATM    8  O   UNL     1       0.210   4.566 -30.903  1.00  0.00    -0.274 OA
HETATM    9  H   UNL     1      -1.938   6.377 -29.443  1.00  0.00     0.164 HD
BRANCH   7  10
HETATM   10  C   UNL     1       0.498   6.075 -29.017  1.00  0.00     0.102 C 
BRANCH  10  11
HETATM   11  C   UNL     1       0.454   7.599 -29.096  1.00  0.00     0.005 C 
HETATM   12  C   UNL     1       1.272   8.273 -28.005  1.00  0.00     0.005 C 
ENDBRANCH  10  11
ENDBRANCH   7  10
ENDBRANCH   5   6
BRANCH   5  13
HETATM   13  C   UNL     1      -2.440   6.005 -32.582  1.00  0.00     0.226 C 
HETATM   14 CL   UNL     1      -1.700   7.642 -32.432  1.00  0.00    -0.080 Cl
HETATM   15 CL   UNL     1      -1.491   5.052 -33.776  1.00  0.00    -0.080 Cl
HETATM   16 CL   UNL     1      -4.087   6.229 -33.291  1.00  0.00    -0.080 Cl
ENDBRANCH   5  13
ENDBRANCH   3   5
ENDBRANCH   1   3
BRANCH   1  17
HETATM   17  N   UNL     1      -3.301   1.739 -31.803  1.00  0.00    -0.274 N 
HETATM   18  H   UNL     1      -2.661   1.227 -31.193  1.00  0.00     0.189 HD
BRANCH  17  19
HETATM   19  N   UNL     1      -4.255   0.944 -32.473  1.00  0.00    -0.264 N 
HETATM   20  C   UNL     1      -4.157  -0.426 -32.283  1.00  0.00     0.272 C 
HETATM   21  O   UNL     1      -3.368  -0.934 -31.487  1.00  0.00    -0.266 OA
HETATM   22  H   UNL     1      -4.605   1.317 -33.352  1.00  0.00     0.190 HD
BRANCH  20  23
HETATM   23  C   UNL     1      -4.995  -1.302 -33.145  1.00  0.00     0.066 A 
HETATM   24  C   UNL     1      -6.363  -1.017 -33.293  1.00  0.00     0.081 A 
HETATM   25  C   UNL     1      -7.181  -1.835 -34.069  1.00  0.00     0.037 A 
HETATM   26  C   UNL     1      -6.639  -2.939 -34.724  1.00  0.00     0.003 A 
HETATM   27  C   UNL     1      -5.277  -3.216 -34.611  1.00  0.00     0.001 A 
HETATM   28  C   UNL     1      -4.453  -2.401 -33.828  1.00  0.00     0.020 A 
BRANCH  24  29
HETATM   29  O   UNL     1      -6.977   0.054 -32.697  1.00  0.00    -0.360 OA
HETATM   30  H   UNL     1      -6.491   0.868 -32.958  1.00  0.00     0.217 HD
ENDBRANCH  24  29
ENDBRANCH  20  23
ENDBRANCH  17  19
ENDBRANCH   1  17
TORSDOF 10
ENDMDL
MODEL 2
REMARK VINA RESULT:      -7.4      5.969      8.314
REMARK  10 active torsions:
REMARK  status: ('A' for Active; 'I' for Inactive)
REMARK    1  A    between atoms: C_2  and  C_3 
REMARK    2  A    between atoms: C_3  and  C_4 
REMARK       I    between atoms: C_4  and  N_5 
REMARK    3  A    between atoms: N_5  and  C_6 
REMARK    4  A    between atoms: C_6  and  N_7 
REMARK    5  A    between atoms: C_6  and  C_21 
REMARK    6  A    between atoms: N_7  and  C_8 
REMARK    7  A    between atoms: C_8  and  N_9 
REMARK    8  A    between atoms: N_9  and  N_10 
REMARK       I    between atoms: N_10  and  C_11 
REMARK    9  A    between atoms: C_11  and  C_12 
REMARK   10  A    between atoms: C_13  and  O_14 
ROOT
HETATM    1  C   UNL     1     -10.173   2.972 -31.538  1.00  0.00     0.188 C 
HETATM    2  S   UNL     1     -10.241   4.635 -31.451  1.00  0.00    -0.039 SA
ENDROOT
BRANCH   1   3
HETATM    3  N   UNL     1     -10.733   2.190 -32.506  1.00  0.00    -0.341 N 
HETATM    4  H   UNL     1     -11.328   1.438 -32.178  1.00  0.00     0.164 HD
BRANCH   3   5
HETATM    5  C   UNL     1     -10.739   2.388 -33.951  1.00  0.00     0.241 C 
BRANCH   5   6
HETATM    6  N   UNL     1      -9.868   1.390 -34.564  1.00  0.00    -0.336 N 
HETATM    7  C   UNL     1      -8.498   1.393 -34.473  1.00  0.00     0.219 C 
HETATM    8  O   UNL     1      -7.867   2.315 -33.974  1.00  0.00    -0.274 OA
HETATM    9  H   UNL     1     -10.321   0.603 -35.009  1.00  0.00     0.164 HD
BRANCH   7  10
HETATM   10  C   UNL     1      -7.872   0.150 -35.085  1.00  0.00     0.102 C 
BRANCH  10  11
HETATM   11  C   UNL     1      -6.545  -0.257 -34.450  1.00  0.00     0.005 C 
HETATM   12  C   UNL     1      -6.267  -1.748 -34.563  1.00  0.00     0.005 C 
ENDBRANCH  10  11
ENDBRANCH   7  10
ENDBRANCH   5   6
BRANCH   5  13
HETATM   13  C   UNL     1     -12.196   2.552 -34.570  1.00  0.00     0.226 C 
HETATM   14 CL   UNL     1     -13.239   3.563 -33.502  1.00  0.00    -0.080 Cl
HETATM   15 CL   UNL     1     -12.196   3.269 -36.219  1.00  0.00    -0.080 Cl
HETATM   16 CL   UNL     1     -12.989   0.934 -34.709  1.00  0.00    -0.080 Cl
ENDBRANCH   5  13
ENDBRANCH   3   5
ENDBRANCH   1   3
BRANCH   1  17
HETATM   17  N   UNL     1      -9.477   2.280 -30.575  1.00  0.00    -0.274 N 
HETATM   18  H   UNL     1     -10.051   1.869 -29.836  1.00  0.00     0.189 HD
BRANCH  17  19
HETATM   19  N   UNL     1      -8.326   1.543 -30.921  1.00  0.00    -0.264 N 
HETATM   20  C   UNL     1      -7.107   2.105 -30.572  1.00  0.00     0.272 C 
HETATM   21  O   UNL     1      -7.014   3.128 -29.894  1.00  0.00    -0.266 OA
HETATM   22  H   UNL     1      -8.404   0.961 -31.752  1.00  0.00     0.190 HD
BRANCH  20  23
HETATM   23  C   UNL     1      -5.877   1.472 -31.118  1.00  0.00     0.066 A 
HETATM   24  C   UNL     1      -5.055   2.203 -31.992  1.00  0.00     0.081 A 
HETATM   25  C   UNL     1      -3.913   1.628 -32.544  1.00  0.00     0.037 A 
HETATM   26  C   UNL     1      -3.565   0.319 -32.214  1.00  0.00     0.003 A 
HETATM   27  C   UNL     1      -4.356  -0.408 -31.325  1.00  0.00     0.001 A 
HETATM   28  C   UNL     1      -5.506   0.163 -30.773  1.00  0.00     0.020 A 
BRANCH  24  29
HETATM   29  O   UNL     1      -5.311   3.498 -32.360  1.00  0.00    -0.360 OA
HETATM   30  H   UNL     1      -5.458   3.517 -33.332  1.00  0.00     0.217 HD
ENDBRANCH  24  29
ENDBRANCH  20  23
ENDBRANCH  17  19
ENDBRANCH   1  17
TORSDOF 10
ENDMDL
MODEL 3
REMARK VINA RESULT:      -7.4      0.740      1.758
REMARK  10 active torsions:
REMARK  status: ('A' for Active; 'I' for Inactive)
REMARK    1  A    between atoms: C_2  and  C_3 
REMARK    2  A    between atoms: C_3  and  C_4 
REMARK       I    between atoms: C_4  and  N_5 
REMARK    3  A    between atoms: N_5  and  C_6 
REMARK    4  A    between atoms: C_6  and  N_7 
REMARK    5  A    between atoms: C_6  and  C_21 
REMARK    6  A    between atoms: N_7  and  C_8 
REMARK    7  A    between atoms: C_8  and  N_9 
REMARK    8  A    between atoms: N_9  and  N_10 
REMARK       I    between atoms: N_10  and  C_11 
REMARK    9  A    between atoms: C_11  and  C_12 
REMARK   10  A    between atoms: C_13  and  O_14 
ROOT
HETATM    1  C   UNL     1      -3.656   3.255 -31.261  1.00  0.00     0.188 C 
HETATM    2  S   UNL     1      -5.221   3.799 -31.438  1.00  0.00    -0.039 SA
ENDROOT
BRANCH   1   3
HETATM    3  N   UNL     1      -2.539   4.030 -31.148  1.00  0.00    -0.341 N 
HETATM    4  H   UNL     1      -1.653   3.540 -31.190  1.00  0.00     0.164 HD
BRANCH   3   5
HETATM    5  C   UNL     1      -2.432   5.485 -31.154  1.00  0.00     0.241 C 
BRANCH   5   6
HETATM    6  N   UNL     1      -1.482   5.888 -30.122  1.00  0.00    -0.336 N 
HETATM    7  C   UNL     1      -0.219   5.370 -29.982  1.00  0.00     0.219 C 
HETATM    8  O   UNL     1       0.185   4.419 -30.637  1.00  0.00    -0.274 OA
HETATM    9  H   UNL     1      -1.755   6.663 -29.530  1.00  0.00     0.164 HD
BRANCH   7  10
HETATM   10  C   UNL     1       0.590   6.088 -28.914  1.00  0.00     0.102 C 
BRANCH  10  11
HETATM   11  C   UNL     1       0.496   7.610 -28.978  1.00  0.00     0.005 C 
HETATM   12  C   UNL     1       1.355   8.301 -27.930  1.00  0.00     0.005 C 
ENDBRANCH  10  11
ENDBRANCH   7  10
ENDBRANCH   5   6
BRANCH   5  13
HETATM   13  C   UNL     1      -2.230   6.109 -32.605  1.00  0.00     0.226 C 
HETATM   14 CL   UNL     1      -1.104   5.100 -33.587  1.00  0.00    -0.080 Cl
HETATM   15 CL   UNL     1      -3.766   6.311 -33.517  1.00  0.00    -0.080 Cl
HETATM   16 CL   UNL     1      -1.490   7.752 -32.467  1.00  0.00    -0.080 Cl
ENDBRANCH   5  13
ENDBRANCH   3   5
ENDBRANCH   1   3
BRANCH   1  17
HETATM   17  N   UNL     1      -3.422   1.902 -31.196  1.00  0.00    -0.274 N 
HETATM   18  H   UNL     1      -3.505   1.491 -30.264  1.00  0.00     0.189 HD
BRANCH  17  19
HETATM   19  N   UNL     1      -3.812   1.060 -32.258  1.00  0.00    -0.264 N 
HETATM   20  C   UNL     1      -4.855   0.183 -31.997  1.00  0.00     0.272 C 
HETATM   21  O   UNL     1      -5.496   0.203 -30.947  1.00  0.00    -0.266 OA
HETATM   22  H   UNL     1      -3.079   0.805 -32.915  1.00  0.00     0.190 HD
BRANCH  20  23
HETATM   23  C   UNL     1      -5.139  -0.867 -33.012  1.00  0.00     0.066 A 
HETATM   24  C   UNL     1      -4.264  -1.959 -33.137  1.00  0.00     0.081 A 
HETATM   25  C   UNL     1      -4.486  -2.943 -34.098  1.00  0.00     0.037 A 
HETATM   26  C   UNL     1      -5.598  -2.859 -34.935  1.00  0.00     0.003 A 
HETATM   27  C   UNL     1      -6.491  -1.796 -34.801  1.00  0.00     0.001 A 
HETATM   28  C   UNL     1      -6.269  -0.803 -33.842  1.00  0.00     0.020 A 
BRANCH  24  29
HETATM   29  O   UNL     1      -3.156  -2.130 -32.349  1.00  0.00    -0.360 OA
HETATM   30  H   UNL     1      -2.647  -1.289 -32.351  1.00  0.00     0.217 HD
ENDBRANCH  24  29
ENDBRANCH  20  23
ENDBRANCH  17  19
ENDBRANCH   1  17
TORSDOF 10
ENDMDL
MODEL 4
REMARK VINA RESULT:      -7.3      3.401      8.696
REMARK  10 active torsions:
REMARK  status: ('A' for Active; 'I' for Inactive)
REMARK    1  A    between atoms: C_2  and  C_3 
REMARK    2  A    between atoms: C_3  and  C_4 
REMARK       I    between atoms: C_4  and  N_5 
REMARK    3  A    between atoms: N_5  and  C_6 
REMARK    4  A    between atoms: C_6  and  N_7 
REMARK    5  A    between atoms: C_6  and  C_21 
REMARK    6  A    between atoms: N_7  and  C_8 
REMARK    7  A    between atoms: C_8  and  N_9 
REMARK    8  A    between atoms: N_9  and  N_10 
REMARK       I    between atoms: N_10  and  C_11 
REMARK    9  A    between atoms: C_11  and  C_12 
REMARK   10  A    between atoms: C_13  and  O_14 
ROOT
HETATM    1  C   UNL     1      -6.759   3.684 -33.858  1.00  0.00     0.188 C 
HETATM    2  S   UNL     1      -8.166   4.547 -33.629  1.00  0.00    -0.039 SA
ENDROOT
BRANCH   1   3
HETATM    3  N   UNL     1      -6.588   2.347 -33.645  1.00  0.00    -0.341 N 
HETATM    4  H   UNL     1      -5.850   1.905 -34.179  1.00  0.00     0.164 HD
BRANCH   3   5
HETATM    5  C   UNL     1      -7.199   1.498 -32.629  1.00  0.00     0.241 C 
BRANCH   5   6
HETATM    6  N   UNL     1      -7.478   0.192 -33.217  1.00  0.00    -0.336 N 
HETATM    7  C   UNL     1      -6.549  -0.585 -33.863  1.00  0.00     0.219 C 
HETATM    8  O   UNL     1      -5.420  -0.192 -34.123  1.00  0.00    -0.274 OA
HETATM    9  H   UNL     1      -8.400  -0.192 -33.054  1.00  0.00     0.164 HD
BRANCH   7  10
HETATM   10  C   UNL     1      -7.094  -1.954 -34.237  1.00  0.00     0.102 C 
BRANCH  10  11
HETATM   11  C   UNL     1      -6.025  -2.955 -34.666  1.00  0.00     0.005 C 
HETATM   12  C   UNL     1      -6.605  -4.297 -35.086  1.00  0.00     0.005 C 
ENDBRANCH  10  11
ENDBRANCH   7  10
ENDBRANCH   5   6
BRANCH   5  13
HETATM   13  C   UNL     1      -6.432   1.513 -31.234  1.00  0.00     0.226 C 
HETATM   14 CL   UNL     1      -4.685   1.892 -31.464  1.00  0.00    -0.080 Cl
HETATM   15 CL   UNL     1      -7.122   2.678 -30.050  1.00  0.00    -0.080 Cl
HETATM   16 CL   UNL     1      -6.525  -0.120 -30.466  1.00  0.00    -0.080 Cl
ENDBRANCH   5  13
ENDBRANCH   3   5
ENDBRANCH   1   3
BRANCH   1  17
HETATM   17  N   UNL     1      -5.643   4.336 -34.326  1.00  0.00    -0.274 N 
HETATM   18  H   UNL     1      -5.801   4.944 -35.132  1.00  0.00     0.189 HD
BRANCH  17  19
HETATM   19  N   UNL     1      -4.648   4.778 -33.429  1.00  0.00    -0.264 N 
HETATM   20  C   UNL     1      -3.532   5.376 -33.994  1.00  0.00     0.272 C 
HETATM   21  O   UNL     1      -3.445   5.626 -35.195  1.00  0.00    -0.266 OA
HETATM   22  H   UNL     1      -4.566   4.250 -32.563  1.00  0.00     0.190 HD
BRANCH  20  23
HETATM   23  C   UNL     1      -2.371   5.645 -33.102  1.00  0.00     0.066 A 
HETATM   24  C   UNL     1      -1.571   6.775 -33.337  1.00  0.00     0.081 A 
HETATM   25  C   UNL     1      -0.459   7.038 -32.539  1.00  0.00     0.037 A 
HETATM   26  C   UNL     1      -0.144   6.185 -31.483  1.00  0.00     0.003 A 
HETATM   27  C   UNL     1      -0.948   5.076 -31.221  1.00  0.00     0.001 A 
HETATM   28  C   UNL     1      -2.061   4.805 -32.023  1.00  0.00     0.020 A 
BRANCH  24  29
HETATM   29  O   UNL     1      -1.814   7.675 -34.342  1.00  0.00    -0.360 OA
HETATM   30  H   UNL     1      -1.133   7.544 -35.040  1.00  0.00     0.217 HD
ENDBRANCH  24  29
ENDBRANCH  20  23
ENDBRANCH  17  19
ENDBRANCH   1  17
TORSDOF 10
ENDMDL
MODEL 5
REMARK VINA RESULT:      -7.2      3.345      8.019
REMARK  10 active torsions:
REMARK  status: ('A' for Active; 'I' for Inactive)
REMARK    1  A    between atoms: C_2  and  C_3 
REMARK    2  A    between atoms: C_3  and  C_4 
REMARK       I    between atoms: C_4  and  N_5 
REMARK    3  A    between atoms: N_5  and  C_6 
REMARK    4  A    between atoms: C_6  and  N_7 
REMARK    5  A    between atoms: C_6  and  C_21 
REMARK    6  A    between atoms: N_7  and  C_8 
REMARK    7  A    between atoms: C_8  and  N_9 
REMARK    8  A    between atoms: N_9  and  N_10 
REMARK       I    between atoms: N_10  and  C_11 
REMARK    9  A    between atoms: C_11  and  C_12 
REMARK   10  A    between atoms: C_13  and  O_14 
ROOT
HETATM    1  C   UNL     1      -6.232   2.753 -30.426  1.00  0.00     0.188 C 
HETATM    2  S   UNL     1      -7.269   3.821 -29.676  1.00  0.00    -0.039 SA
ENDROOT
BRANCH   1   3
HETATM    3  N   UNL     1      -6.589   1.707 -31.226  1.00  0.00    -0.341 N 
HETATM    4  H   UNL     1      -6.968   0.896 -30.751  1.00  0.00     0.164 HD
BRANCH   3   5
HETATM    5  C   UNL     1      -6.669   1.656 -32.681  1.00  0.00     0.241 C 
BRANCH   5   6
HETATM    6  N   UNL     1      -5.576   0.827 -33.181  1.00  0.00    -0.336 N 
HETATM    7  C   UNL     1      -5.280  -0.431 -32.719  1.00  0.00     0.219 C 
HETATM    8  O   UNL     1      -5.830  -0.928 -31.745  1.00  0.00    -0.274 OA
HETATM    9  H   UNL     1      -5.065   1.182 -33.979  1.00  0.00     0.164 HD
BRANCH   7  10
HETATM   10  C   UNL     1      -4.185  -1.105 -33.530  1.00  0.00     0.102 C 
BRANCH  10  11
HETATM   11  C   UNL     1      -4.531  -2.519 -33.990  1.00  0.00     0.005 C 
HETATM   12  C   UNL     1      -5.764  -2.567 -34.879  1.00  0.00     0.005 C 
ENDBRANCH  10  11
ENDBRANCH   7  10
ENDBRANCH   5   6
BRANCH   5  13
HETATM   13  C   UNL     1      -8.128   1.336 -33.233  1.00  0.00     0.226 C 
HETATM   14 CL   UNL     1      -8.042   0.466 -34.810  1.00  0.00    -0.080 Cl
HETATM   15 CL   UNL     1      -9.127   0.367 -32.095  1.00  0.00    -0.080 Cl
HETATM   16 CL   UNL     1      -9.024   2.878 -33.525  1.00  0.00    -0.080 Cl
ENDBRANCH   5  13
ENDBRANCH   3   5
ENDBRANCH   1   3
BRANCH   1  17
HETATM   17  N   UNL     1      -4.876   2.918 -30.271  1.00  0.00    -0.274 N 
HETATM   18  H   UNL     1      -4.337   2.051 -30.217  1.00  0.00     0.189 HD
BRANCH  17  19
HETATM   19  N   UNL     1      -4.215   3.998 -30.891  1.00  0.00    -0.264 N 
HETATM   20  C   UNL     1      -3.375   3.680 -31.949  1.00  0.00     0.272 C 
HETATM   21  O   UNL     1      -3.290   2.544 -32.414  1.00  0.00    -0.266 OA
HETATM   22  H   UNL     1      -4.008   4.795 -30.293  1.00  0.00     0.190 HD
BRANCH  20  23
HETATM   23  C   UNL     1      -2.495   4.758 -32.475  1.00  0.00     0.066 A 
HETATM   24  C   UNL     1      -1.360   5.140 -31.741  1.00  0.00     0.081 A 
HETATM   25  C   UNL     1      -0.533   6.166 -32.191  1.00  0.00     0.037 A 
HETATM   26  C   UNL     1      -0.818   6.812 -33.393  1.00  0.00     0.003 A 
HETATM   27  C   UNL     1      -1.925   6.423 -34.147  1.00  0.00     0.001 A 
HETATM   28  C   UNL     1      -2.761   5.397 -33.695  1.00  0.00     0.020 A 
BRANCH  24  29
HETATM   29  O   UNL     1      -0.995   4.551 -30.558  1.00  0.00    -0.360 OA
HETATM   30  H   UNL     1      -1.040   5.233 -29.851  1.00  0.00     0.217 HD
ENDBRANCH  24  29
ENDBRANCH  20  23
ENDBRANCH  17  19
ENDBRANCH   1  17
TORSDOF 10
ENDMDL
MODEL 6
REMARK VINA RESULT:      -7.2      6.409      9.048
REMARK  10 active torsions:
REMARK  status: ('A' for Active; 'I' for Inactive)
REMARK    1  A    between atoms: C_2  and  C_3 
REMARK    2  A    between atoms: C_3  and  C_4 
REMARK       I    between atoms: C_4  and  N_5 
REMARK    3  A    between atoms: N_5  and  C_6 
REMARK    4  A    between atoms: C_6  and  N_7 
REMARK    5  A    between atoms: C_6  and  C_21 
REMARK    6  A    between atoms: N_7  and  C_8 
REMARK    7  A    between atoms: C_8  and  N_9 
REMARK    8  A    between atoms: N_9  and  N_10 
REMARK       I    between atoms: N_10  and  C_11 
REMARK    9  A    between atoms: C_11  and  C_12 
REMARK   10  A    between atoms: C_13  and  O_14 
ROOT
HETATM    1  C   UNL     1      -9.973   3.215 -31.038  1.00  0.00     0.188 C 
HETATM    2  S   UNL     1      -9.127   4.606 -30.682  1.00  0.00    -0.039 SA
ENDROOT
BRANCH   1   3
HETATM    3  N   UNL     1     -11.087   3.124 -31.819  1.00  0.00    -0.341 N 
HETATM    4  H   UNL     1     -11.974   3.211 -31.337  1.00  0.00     0.164 HD
BRANCH   3   5
HETATM    5  C   UNL     1     -11.184   3.098 -33.274  1.00  0.00     0.241 C 
BRANCH   5   6
HETATM    6  N   UNL     1     -12.230   2.154 -33.657  1.00  0.00    -0.336 N 
HETATM    7  C   UNL     1     -12.133   0.791 -33.525  1.00  0.00     0.219 C 
HETATM    8  O   UNL     1     -11.099   0.227 -33.193  1.00  0.00    -0.274 OA
HETATM    9  H   UNL     1     -13.111   2.549 -33.957  1.00  0.00     0.164 HD
BRANCH   7  10
HETATM   10  C   UNL     1     -13.433   0.080 -33.867  1.00  0.00     0.102 C 
BRANCH  10  11
HETATM   11  C   UNL     1     -14.539   1.007 -34.364  1.00  0.00     0.005 C 
HETATM   12  C   UNL     1     -15.496   1.431 -33.260  1.00  0.00     0.005 C 
ENDBRANCH  10  11
ENDBRANCH   7  10
ENDBRANCH   5   6
BRANCH   5  13
HETATM   13  C   UNL     1     -11.236   4.542 -33.941  1.00  0.00     0.226 C 
HETATM   14 CL   UNL     1     -11.966   5.745 -32.814  1.00  0.00    -0.080 Cl
HETATM   15 CL   UNL     1      -9.626   5.147 -34.465  1.00  0.00    -0.080 Cl
HETATM   16 CL   UNL     1     -12.278   4.498 -35.417  1.00  0.00    -0.080 Cl
ENDBRANCH   5  13
ENDBRANCH   3   5
ENDBRANCH   1   3
BRANCH   1  17
HETATM   17  N   UNL     1      -9.527   2.015 -30.536  1.00  0.00    -0.274 N 
HETATM   18  H   UNL     1     -10.040   1.666 -29.724  1.00  0.00     0.189 HD
BRANCH  17  19
HETATM   19  N   UNL     1      -9.033   1.020 -31.406  1.00  0.00    -0.264 N 
HETATM   20  C   UNL     1      -7.663   1.016 -31.621  1.00  0.00     0.272 C 
HETATM   21  O   UNL     1      -6.889   1.751 -31.008  1.00  0.00    -0.266 OA
HETATM   22  H   UNL     1      -9.669   0.715 -32.139  1.00  0.00     0.190 HD
BRANCH  20  23
HETATM   23  C   UNL     1      -7.139   0.134 -32.699  1.00  0.00     0.066 A 
HETATM   24  C   UNL     1      -7.666   0.244 -33.996  1.00  0.00     0.081 A 
HETATM   25  C   UNL     1      -7.218  -0.588 -35.019  1.00  0.00     0.037 A 
HETATM   26  C   UNL     1      -6.223  -1.530 -34.764  1.00  0.00     0.003 A 
HETATM   27  C   UNL     1      -5.670  -1.630 -33.488  1.00  0.00     0.001 A 
HETATM   28  C   UNL     1      -6.121  -0.800 -32.456  1.00  0.00     0.020 A 
BRANCH  24  29
HETATM   29  O   UNL     1      -8.635   1.150 -34.341  1.00  0.00    -0.360 OA
HETATM   30  H   UNL     1      -9.454   0.924 -33.846  1.00  0.00     0.217 HD
ENDBRANCH  24  29
ENDBRANCH  20  23
ENDBRANCH  17  19
ENDBRANCH   1  17
TORSDOF 10
ENDMDL
MODEL 7
REMARK VINA RESULT:      -7.2      5.122      7.999
REMARK  10 active torsions:
REMARK  status: ('A' for Active; 'I' for Inactive)
REMARK    1  A    between atoms: C_2  and  C_3 
REMARK    2  A    between atoms: C_3  and  C_4 
REMARK       I    between atoms: C_4  and  N_5 
REMARK    3  A    between atoms: N_5  and  C_6 
REMARK    4  A    between atoms: C_6  and  N_7 
REMARK    5  A    between atoms: C_6  and  C_21 
REMARK    6  A    between atoms: N_7  and  C_8 
REMARK    7  A    between atoms: C_8  and  N_9 
REMARK    8  A    between atoms: N_9  and  N_10 
REMARK       I    between atoms: N_10  and  C_11 
REMARK    9  A    between atoms: C_11  and  C_12 
REMARK   10  A    between atoms: C_13  and  O_14 
ROOT
HETATM    1  C   UNL     1      -7.394   1.644 -31.190  1.00  0.00     0.188 C 
HETATM    2  S   UNL     1      -7.027   2.985 -30.271  1.00  0.00    -0.039 SA
ENDROOT
BRANCH   1   3
HETATM    3  N   UNL     1      -6.640   1.127 -32.202  1.00  0.00    -0.341 N 
HETATM    4  H   UNL     1      -6.620   1.666 -33.060  1.00  0.00     0.164 HD
BRANCH   3   5
HETATM    5  C   UNL     1      -5.715  -0.000 -32.168  1.00  0.00     0.241 C 
BRANCH   5   6
HETATM    6  N   UNL     1      -6.174  -1.011 -33.115  1.00  0.00    -0.336 N 
HETATM    7  C   UNL     1      -6.488  -0.762 -34.428  1.00  0.00     0.219 C 
HETATM    8  O   UNL     1      -6.536   0.367 -34.897  1.00  0.00    -0.274 OA
HETATM    9  H   UNL     1      -6.175  -1.970 -32.792  1.00  0.00     0.164 HD
BRANCH   7  10
HETATM   10  C   UNL     1      -6.792  -2.033 -35.205  1.00  0.00     0.102 C 
BRANCH  10  11
HETATM   11  C   UNL     1      -6.181  -3.294 -34.602  1.00  0.00     0.005 C 
HETATM   12  C   UNL     1      -6.527  -4.552 -35.384  1.00  0.00     0.005 C 
ENDBRANCH  10  11
ENDBRANCH   7  10
ENDBRANCH   5   6
BRANCH   5  13
HETATM   13  C   UNL     1      -4.182   0.424 -32.252  1.00  0.00     0.226 C 
HETATM   14 CL   UNL     1      -3.349   0.134 -30.679  1.00  0.00    -0.080 Cl
HETATM   15 CL   UNL     1      -3.275  -0.427 -33.550  1.00  0.00    -0.080 Cl
HETATM   16 CL   UNL     1      -4.054   2.191 -32.604  1.00  0.00    -0.080 Cl
ENDBRANCH   5  13
ENDBRANCH   3   5
ENDBRANCH   1   3
BRANCH   1  17
HETATM   17  N   UNL     1      -8.548   0.947 -30.923  1.00  0.00    -0.274 N 
HETATM   18  H   UNL     1      -8.668   0.660 -29.949  1.00  0.00     0.189 HD
BRANCH  17  19
HETATM   19  N   UNL     1      -9.742   1.259 -31.607  1.00  0.00    -0.264 N 
HETATM   20  C   UNL     1     -10.044   0.472 -32.708  1.00  0.00     0.272 C 
HETATM   21  O   UNL     1      -9.388  -0.522 -33.017  1.00  0.00    -0.266 OA
HETATM   22  H   UNL     1     -10.027   2.235 -31.579  1.00  0.00     0.190 HD
BRANCH  20  23
HETATM   23  C   UNL     1     -11.167   0.912 -33.580  1.00  0.00     0.066 A 
HETATM   24  C   UNL     1     -10.968   1.977 -34.473  1.00  0.00     0.081 A 
HETATM   25  C   UNL     1     -12.007   2.433 -35.281  1.00  0.00     0.037 A 
HETATM   26  C   UNL     1     -13.255   1.816 -35.221  1.00  0.00     0.003 A 
HETATM   27  C   UNL     1     -13.459   0.738 -34.360  1.00  0.00     0.001 A 
HETATM   28  C   UNL     1     -12.420   0.281 -33.543  1.00  0.00     0.020 A 
BRANCH  24  29
HETATM   29  O   UNL     1      -9.772   2.633 -34.609  1.00  0.00    -0.360 OA
HETATM   30  H   UNL     1      -9.962   3.580 -34.792  1.00  0.00     0.217 HD
ENDBRANCH  24  29
ENDBRANCH  20  23
ENDBRANCH  17  19
ENDBRANCH   1  17
TORSDOF 10
ENDMDL
MODEL 8
REMARK VINA RESULT:      -7.1      2.900      8.611
REMARK  10 active torsions:
REMARK  status: ('A' for Active; 'I' for Inactive)
REMARK    1  A    between atoms: C_2  and  C_3 
REMARK    2  A    between atoms: C_3  and  C_4 
REMARK       I    between atoms: C_4  and  N_5 
REMARK    3  A    between atoms: N_5  and  C_6 
REMARK    4  A    between atoms: C_6  and  N_7 
REMARK    5  A    between atoms: C_6  and  C_21 
REMARK    6  A    between atoms: N_7  and  C_8 
REMARK    7  A    between atoms: C_8  and  N_9 
REMARK    8  A    between atoms: N_9  and  N_10 
REMARK       I    between atoms: N_10  and  C_11 
REMARK    9  A    between atoms: C_11  and  C_12 
REMARK   10  A    between atoms: C_13  and  O_14 
ROOT
HETATM    1  C   UNL     1      -5.000   1.846 -31.244  1.00  0.00     0.188 C 
HETATM    2  S   UNL     1      -5.690   2.900 -30.154  1.00  0.00    -0.039 SA
ENDROOT
BRANCH   1   3
HETATM    3  N   UNL     1      -5.614   0.786 -31.843  1.00  0.00    -0.341 N 
HETATM    4  H   UNL     1      -5.801  -0.013 -31.247  1.00  0.00     0.164 HD
BRANCH   3   5
HETATM    5  C   UNL     1      -6.202   0.704 -33.175  1.00  0.00     0.241 C 
BRANCH   5   6
HETATM    6  N   UNL     1      -5.922  -0.617 -33.729  1.00  0.00    -0.336 N 
HETATM    7  C   UNL     1      -4.686  -1.213 -33.733  1.00  0.00     0.219 C 
HETATM    8  O   UNL     1      -3.667  -0.632 -33.385  1.00  0.00    -0.274 OA
HETATM    9  H   UNL     1      -6.717  -1.154 -34.051  1.00  0.00     0.164 HD
BRANCH   7  10
HETATM   10  C   UNL     1      -4.731  -2.645 -34.242  1.00  0.00     0.102 C 
BRANCH  10  11
HETATM   11  C   UNL     1      -6.044  -3.024 -34.920  1.00  0.00     0.005 C 
HETATM   12  C   UNL     1      -6.314  -4.521 -34.894  1.00  0.00     0.005 C 
ENDBRANCH  10  11
ENDBRANCH   7  10
ENDBRANCH   5   6
BRANCH   5  13
HETATM   13  C   UNL     1      -7.709   1.211 -33.245  1.00  0.00     0.226 C 
HETATM   14 CL   UNL     1      -8.572   0.473 -34.645  1.00  0.00    -0.080 Cl
HETATM   15 CL   UNL     1      -8.648   0.874 -31.748  1.00  0.00    -0.080 Cl
HETATM   16 CL   UNL     1      -7.742   3.002 -33.484  1.00  0.00    -0.080 Cl
ENDBRANCH   5  13
ENDBRANCH   3   5
ENDBRANCH   1   3
BRANCH   1  17
HETATM   17  N   UNL     1      -3.692   2.038 -31.623  1.00  0.00    -0.274 N 
HETATM   18  H   UNL     1      -3.466   1.736 -32.573  1.00  0.00     0.189 HD
BRANCH  17  19
HETATM   19  N   UNL     1      -2.977   3.165 -31.167  1.00  0.00    -0.264 N 
HETATM   20  C   UNL     1      -2.441   3.991 -32.144  1.00  0.00     0.272 C 
HETATM   21  O   UNL     1      -2.665   3.836 -33.344  1.00  0.00    -0.266 OA
HETATM   22  H   UNL     1      -2.510   3.061 -30.269  1.00  0.00     0.190 HD
BRANCH  20  23
HETATM   23  C   UNL     1      -1.497   5.053 -31.704  1.00  0.00     0.066 A 
HETATM   24  C   UNL     1      -1.611   6.344 -32.247  1.00  0.00     0.081 A 
HETATM   25  C   UNL     1      -0.723   7.352 -31.878  1.00  0.00     0.037 A 
HETATM   26  C   UNL     1       0.279   7.089 -30.946  1.00  0.00     0.003 A 
HETATM   27  C   UNL     1       0.385   5.821 -30.377  1.00  0.00     0.001 A 
HETATM   28  C   UNL     1      -0.500   4.804 -30.748  1.00  0.00     0.020 A 
BRANCH  24  29
HETATM   29  O   UNL     1      -2.573   6.695 -33.157  1.00  0.00    -0.360 OA
HETATM   30  H   UNL     1      -2.260   7.493 -33.640  1.00  0.00     0.217 HD
ENDBRANCH  24  29
ENDBRANCH  20  23
ENDBRANCH  17  19
ENDBRANCH   1  17
TORSDOF 10
ENDMDL
MODEL 9
REMARK VINA RESULT:      -7.0      5.395      7.989
REMARK  10 active torsions:
REMARK  status: ('A' for Active; 'I' for Inactive)
REMARK    1  A    between atoms: C_2  and  C_3 
REMARK    2  A    between atoms: C_3  and  C_4 
REMARK       I    between atoms: C_4  and  N_5 
REMARK    3  A    between atoms: N_5  and  C_6 
REMARK    4  A    between atoms: C_6  and  N_7 
REMARK    5  A    between atoms: C_6  and  C_21 
REMARK    6  A    between atoms: N_7  and  C_8 
REMARK    7  A    between atoms: C_8  and  N_9 
REMARK    8  A    between atoms: N_9  and  N_10 
REMARK       I    between atoms: N_10  and  C_11 
REMARK    9  A    between atoms: C_11  and  C_12 
REMARK   10  A    between atoms: C_13  and  O_14 
ROOT
HETATM    1  C   UNL     1      -7.207   1.867 -32.286  1.00  0.00     0.188 C 
HETATM    2  S   UNL     1      -6.920   1.983 -30.649  1.00  0.00    -0.039 SA
ENDROOT
BRANCH   1   3
HETATM    3  N   UNL     1      -8.404   2.053 -32.912  1.00  0.00    -0.341 N 
HETATM    4  H   UNL     1      -9.216   1.675 -32.437  1.00  0.00     0.164 HD
BRANCH   3   5
HETATM    5  C   UNL     1      -8.708   2.871 -34.080  1.00  0.00     0.241 C 
BRANCH   5   6
HETATM    6  N   UNL     1      -9.878   2.314 -34.751  1.00  0.00    -0.336 N 
HETATM    7  C   UNL     1     -11.068   2.027 -34.129  1.00  0.00     0.219 C 
HETATM    8  O   UNL     1     -11.216   2.089 -32.916  1.00  0.00    -0.274 OA
HETATM    9  H   UNL     1      -9.824   2.218 -35.757  1.00  0.00     0.164 HD
BRANCH   7  10
HETATM   10  C   UNL     1     -12.148   1.598 -35.109  1.00  0.00     0.102 C 
BRANCH  10  11
HETATM   11  C   UNL     1     -13.571   1.773 -34.584  1.00  0.00     0.005 C 
HETATM   12  C   UNL     1     -14.207   0.461 -34.150  1.00  0.00     0.005 C 
ENDBRANCH  10  11
ENDBRANCH   7  10
ENDBRANCH   5   6
BRANCH   5  13
HETATM   13  C   UNL     1      -8.723   4.435 -33.783  1.00  0.00     0.226 C 
HETATM   14 CL   UNL     1      -7.055   5.118 -33.851  1.00  0.00    -0.080 Cl
HETATM   15 CL   UNL     1      -9.773   5.367 -34.907  1.00  0.00    -0.080 Cl
HETATM   16 CL   UNL     1      -9.353   4.735 -32.116  1.00  0.00    -0.080 Cl
ENDBRANCH   5  13
ENDBRANCH   3   5
ENDBRANCH   1   3
BRANCH   1  17
HETATM   17  N   UNL     1      -6.159   1.580 -33.129  1.00  0.00    -0.274 N 
HETATM   18  H   UNL     1      -5.424   2.289 -33.166  1.00  0.00     0.189 HD
BRANCH  17  19
HETATM   19  N   UNL     1      -5.717   0.250 -33.288  1.00  0.00    -0.264 N 
HETATM   20  C   UNL     1      -6.226  -0.442 -34.377  1.00  0.00     0.272 C 
HETATM   21  O   UNL     1      -6.929   0.090 -35.236  1.00  0.00    -0.266 OA
HETATM   22  H   UNL     1      -5.480  -0.244 -32.431  1.00  0.00     0.190 HD
BRANCH  20  23
HETATM   23  C   UNL     1      -5.962  -1.904 -34.447  1.00  0.00     0.066 A 
HETATM   24  C   UNL     1      -4.675  -2.386 -34.152  1.00  0.00     0.081 A 
HETATM   25  C   UNL     1      -4.388  -3.746 -34.238  1.00  0.00     0.037 A 
HETATM   26  C   UNL     1      -5.388  -4.646 -34.601  1.00  0.00     0.003 A 
HETATM   27  C   UNL     1      -6.677  -4.185 -34.868  1.00  0.00     0.001 A 
HETATM   28  C   UNL     1      -6.968  -2.820 -34.789  1.00  0.00     0.020 A 
BRANCH  24  29
HETATM   29  O   UNL     1      -3.636  -1.576 -33.773  1.00  0.00    -0.360 OA
HETATM   30  H   UNL     1      -3.376  -1.031 -34.548  1.00  0.00     0.217 HD
ENDBRANCH  24  29
ENDBRANCH  20  23
ENDBRANCH  17  19
ENDBRANCH   1  17
TORSDOF 10
ENDMDL
MODEL 10
REMARK VINA RESULT:      -6.9      2.751      8.979
REMARK  10 active torsions:
REMARK  status: ('A' for Active; 'I' for Inactive)
REMARK    1  A    between atoms: C_2  and  C_3 
REMARK    2  A    between atoms: C_3  and  C_4 
REMARK       I    between atoms: C_4  and  N_5 
REMARK    3  A    between atoms: N_5  and  C_6 
REMARK    4  A    between atoms: C_6  and  N_7 
REMARK    5  A    between atoms: C_6  and  C_21 
REMARK    6  A    between atoms: N_7  and  C_8 
REMARK    7  A    between atoms: C_8  and  N_9 
REMARK    8  A    between atoms: N_9  and  N_10 
REMARK       I    between atoms: N_10  and  C_11 
REMARK    9  A    between atoms: C_11  and  C_12 
REMARK   10  A    between atoms: C_13  and  O_14 
ROOT
HETATM    1  C   UNL     1      -4.482   3.316 -32.401  1.00  0.00     0.188 C 
HETATM    2  S   UNL     1      -5.185   4.769 -32.811  1.00  0.00    -0.039 SA
ENDROOT
BRANCH   1   3
HETATM    3  N   UNL     1      -5.071   2.087 -32.463  1.00  0.00    -0.341 N 
HETATM    4  H   UNL     1      -4.786   1.422 -31.754  1.00  0.00     0.164 HD
BRANCH   3   5
HETATM    5  C   UNL     1      -6.184   1.648 -33.298  1.00  0.00     0.241 C 
BRANCH   5   6
HETATM    6  N   UNL     1      -5.852   0.349 -33.875  1.00  0.00    -0.336 N 
HETATM    7  C   UNL     1      -5.415  -0.733 -33.154  1.00  0.00     0.219 C 
HETATM    8  O   UNL     1      -5.134  -0.670 -31.965  1.00  0.00    -0.274 OA
HETATM    9  H   UNL     1      -6.045   0.227 -34.861  1.00  0.00     0.164 HD
BRANCH   7  10
HETATM   10  C   UNL     1      -5.293  -1.988 -34.004  1.00  0.00     0.102 C 
BRANCH  10  11
HETATM   11  C   UNL     1      -6.600  -2.427 -34.659  1.00  0.00     0.005 C 
HETATM   12  C   UNL     1      -6.635  -3.915 -34.971  1.00  0.00     0.005 C 
ENDBRANCH  10  11
ENDBRANCH   7  10
ENDBRANCH   5   6
BRANCH   5  13
HETATM   13  C   UNL     1      -7.606   1.785 -32.596  1.00  0.00     0.226 C 
HETATM   14 CL   UNL     1      -8.619   0.325 -32.906  1.00  0.00    -0.080 Cl
HETATM   15 CL   UNL     1      -7.505   2.048 -30.820  1.00  0.00    -0.080 Cl
HETATM   16 CL   UNL     1      -8.493   3.202 -33.280  1.00  0.00    -0.080 Cl
ENDBRANCH   5  13
ENDBRANCH   3   5
ENDBRANCH   1   3
BRANCH   1  17
HETATM   17  N   UNL     1      -3.175   3.302 -31.974  1.00  0.00    -0.274 N 
HETATM   18  H   UNL     1      -2.495   2.978 -32.665  1.00  0.00     0.189 HD
BRANCH  17  19
HETATM   19  N   UNL     1      -2.705   4.298 -31.092  1.00  0.00    -0.264 N 
HETATM   20  C   UNL     1      -1.496   4.892 -31.423  1.00  0.00     0.272 C 
HETATM   21  O   UNL     1      -0.910   4.667 -32.481  1.00  0.00    -0.266 OA
HETATM   22  H   UNL     1      -2.974   4.190 -30.117  1.00  0.00     0.190 HD
BRANCH  20  23
HETATM   23  C   UNL     1      -0.863   5.776 -30.407  1.00  0.00     0.066 A 
HETATM   24  C   UNL     1       0.185   5.275 -29.616  1.00  0.00     0.081 A 
HETATM   25  C   UNL     1       0.777   6.067 -28.635  1.00  0.00     0.037 A 
HETATM   26  C   UNL     1       0.342   7.378 -28.444  1.00  0.00     0.003 A 
HETATM   27  C   UNL     1      -0.677   7.897 -29.242  1.00  0.00     0.001 A 
HETATM   28  C   UNL     1      -1.278   7.103 -30.223  1.00  0.00     0.020 A 
BRANCH  24  29
HETATM   29  O   UNL     1       0.685   4.006 -29.745  1.00  0.00    -0.360 OA
HETATM   30  H   UNL     1       0.094   3.505 -30.350  1.00  0.00     0.217 HD
ENDBRANCH  24  29
ENDBRANCH  20  23
ENDBRANCH  17  19
ENDBRANCH   1  17
TORSDOF 10
ENDMDL
