MODEL 1
REMARK VINA RESULT:      -8.5      0.000      0.000
REMARK  4 active torsions:
REMARK  status: ('A' for Active; 'I' for Inactive)
REMARK    1  A    between atoms: C_2  and  C_3 
REMARK    2  A    between atoms: C_6  and  C_7 
REMARK       I    between atoms: C_7  and  N_8 
REMARK    3  A    between atoms: N_8  and  C_9 
REMARK    4  A    between atoms: C_11  and  C_12 
ROOT
HETATM    1  C   UNL     1      -7.646  -0.019 -34.358  1.00  0.00     0.257 C 
HETATM    2  N   UNL     1      -8.515   0.154 -33.294  1.00  0.00    -0.323 N 
HETATM    3  O   UNL     1      -7.687   0.559 -35.438  1.00  0.00    -0.267 OA
HETATM    4  H   UNL     1      -8.451  -0.509 -32.533  1.00  0.00     0.169 HD
ENDROOT
BRANCH   2   5
HETATM    5  C   UNL     1      -9.562   1.096 -33.187  1.00  0.00     0.035 A 
HETATM    6  C   UNL     1     -10.903   0.810 -33.462  1.00  0.00     0.042 A 
HETATM    7  C   UNL     1     -11.901   1.795 -33.339  1.00  0.00    -0.021 A 
HETATM    8  C   UNL     1     -11.523   3.084 -32.941  1.00  0.00     0.012 A 
HETATM    9  C   UNL     1     -10.187   3.383 -32.673  1.00  0.00     0.003 A 
HETATM   10  C   UNL     1      -9.213   2.393 -32.796  1.00  0.00     0.029 A 
BRANCH   7  11
HETATM   11  C   UNL     1     -13.298   1.497 -33.623  1.00  0.00     0.010 A 
HETATM   12  C   UNL     1     -13.887   0.618 -34.566  1.00  0.00     0.152 A 
HETATM   13  N   UNL     1     -15.223   0.629 -34.530  1.00  0.00    -0.187 NA
HETATM   14  N   UNL     1     -15.499   1.516 -33.561  1.00  0.00    -0.289 N 
HETATM   15  H   UNL     1     -16.471   1.701 -33.339  1.00  0.00     0.188 HD
HETATM   16  C   UNL     1     -14.386   2.065 -32.992  1.00  0.00     0.123 A 
ENDBRANCH   7  11
ENDBRANCH   2   5
BRANCH   1  17
HETATM   17  C   UNL     1      -6.592  -1.042 -34.154  1.00  0.00     0.049 A 
HETATM   18  C   UNL     1      -5.582  -0.789 -33.237  1.00  0.00     0.134 A 
HETATM   19  N   UNL     1      -4.569  -1.653 -32.969  1.00  0.00    -0.264 NA
HETATM   20  C   UNL     1      -4.558  -2.835 -33.632  1.00  0.00     0.037 A 
HETATM   21  C   UNL     1      -5.552  -3.179 -34.547  1.00  0.00     0.028 A 
HETATM   22  C   UNL     1      -6.581  -2.274 -34.810  1.00  0.00     0.020 A 
BRANCH  20  23
HETATM   23  C   UNL     1      -3.453  -3.823 -33.301  1.00  0.00     0.029 C 
HETATM   24  C   UNL     1      -3.936  -5.253 -33.542  1.00  0.00     0.016 C 
HETATM   25  C   UNL     1      -2.951  -3.655 -31.865  1.00  0.00     0.016 C 
ENDBRANCH  20  23
ENDBRANCH   1  17
TORSDOF 4
ENDMDL
MODEL 2
REMARK VINA RESULT:      -8.2      4.954      8.033
REMARK  4 active torsions:
REMARK  status: ('A' for Active; 'I' for Inactive)
REMARK    1  A    between atoms: C_2  and  C_3 
REMARK    2  A    between atoms: C_6  and  C_7 
REMARK       I    between atoms: C_7  and  N_8 
REMARK    3  A    between atoms: N_8  and  C_9 
REMARK    4  A    between atoms: C_11  and  C_12 
ROOT
HETATM    1  C   UNL     1      -5.205   2.518 -31.945  1.00  0.00     0.257 C 
HETATM    2  N   UNL     1      -5.196   2.054 -33.250  1.00  0.00    -0.323 N 
HETATM    3  O   UNL     1      -5.958   2.161 -31.047  1.00  0.00    -0.267 OA
HETATM    4  H   UNL     1      -4.626   2.559 -33.915  1.00  0.00     0.169 HD
ENDROOT
BRANCH   2   5
HETATM    5  C   UNL     1      -5.975   1.009 -33.793  1.00  0.00     0.035 A 
HETATM    6  C   UNL     1      -5.549  -0.321 -33.879  1.00  0.00     0.042 A 
HETATM    7  C   UNL     1      -6.373  -1.317 -34.434  1.00  0.00    -0.021 A 
HETATM    8  C   UNL     1      -7.638  -0.951 -34.914  1.00  0.00     0.012 A 
HETATM    9  C   UNL     1      -8.069   0.374 -34.842  1.00  0.00     0.003 A 
HETATM   10  C   UNL     1      -7.241   1.348 -34.285  1.00  0.00     0.029 A 
BRANCH   7  11
HETATM   11  C   UNL     1      -5.932  -2.703 -34.521  1.00  0.00     0.010 A 
HETATM   12  C   UNL     1      -6.630  -3.879 -34.894  1.00  0.00     0.152 A 
HETATM   13  N   UNL     1      -5.872  -4.978 -34.839  1.00  0.00    -0.187 NA
HETATM   14  N   UNL     1      -4.681  -4.513 -34.431  1.00  0.00    -0.289 N 
HETATM   15  H   UNL     1      -3.920  -5.173 -34.312  1.00  0.00     0.188 HD
HETATM   16  C   UNL     1      -4.665  -3.164 -34.223  1.00  0.00     0.123 A 
ENDBRANCH   7  11
ENDBRANCH   2   5
BRANCH   1  17
HETATM   17  C   UNL     1      -4.216   3.582 -31.646  1.00  0.00     0.049 A 
HETATM   18  C   UNL     1      -2.865   3.300 -31.785  1.00  0.00     0.134 A 
HETATM   19  N   UNL     1      -1.876   4.196 -31.540  1.00  0.00    -0.264 NA
HETATM   20  C   UNL     1      -2.237   5.442 -31.148  1.00  0.00     0.037 A 
HETATM   21  C   UNL     1      -3.574   5.816 -31.012  1.00  0.00     0.028 A 
HETATM   22  C   UNL     1      -4.574   4.877 -31.265  1.00  0.00     0.020 A 
BRANCH  20  23
HETATM   23  C   UNL     1      -1.135   6.461 -30.918  1.00  0.00     0.029 C 
HETATM   24  C   UNL     1      -1.164   7.524 -32.016  1.00  0.00     0.016 C 
HETATM   25  C   UNL     1       0.243   5.800 -30.839  1.00  0.00     0.016 C 
ENDBRANCH  20  23
ENDBRANCH   1  17
TORSDOF 4
ENDMDL
MODEL 3
REMARK VINA RESULT:      -8.1      5.088      7.521
REMARK  4 active torsions:
REMARK  status: ('A' for Active; 'I' for Inactive)
REMARK    1  A    between atoms: C_2  and  C_3 
REMARK    2  A    between atoms: C_6  and  C_7 
REMARK       I    between atoms: C_7  and  N_8 
REMARK    3  A    between atoms: N_8  and  C_9 
REMARK    4  A    between atoms: C_11  and  C_12 
ROOT
HETATM    1  C   UNL     1      -5.927   1.372 -33.162  1.00  0.00     0.257 C 
HETATM    2  N   UNL     1      -4.877   1.808 -32.370  1.00  0.00    -0.323 N 
HETATM    3  O   UNL     1      -6.938   2.001 -33.448  1.00  0.00    -0.267 OA
HETATM    4  H   UNL     1      -4.191   1.120 -32.093  1.00  0.00     0.169 HD
ENDROOT
BRANCH   2   5
HETATM    5  C   UNL     1      -4.702   3.094 -31.814  1.00  0.00     0.035 A 
HETATM    6  C   UNL     1      -3.912   4.095 -32.391  1.00  0.00     0.042 A 
HETATM    7  C   UNL     1      -3.775   5.357 -31.785  1.00  0.00    -0.021 A 
HETATM    8  C   UNL     1      -4.441   5.596 -30.576  1.00  0.00     0.012 A 
HETATM    9  C   UNL     1      -5.223   4.603 -29.987  1.00  0.00     0.003 A 
HETATM   10  C   UNL     1      -5.351   3.359 -30.604  1.00  0.00     0.029 A 
BRANCH   7  11
HETATM   11  C   UNL     1      -2.955   6.401 -32.387  1.00  0.00     0.010 A 
HETATM   12  C   UNL     1      -2.545   7.662 -31.889  1.00  0.00     0.152 A 
HETATM   13  N   UNL     1      -1.795   8.349 -32.755  1.00  0.00    -0.187 NA
HETATM   14  N   UNL     1      -1.718   7.530 -33.816  1.00  0.00    -0.289 N 
HETATM   15  H   UNL     1      -1.187   7.836 -34.624  1.00  0.00     0.188 HD
HETATM   16  C   UNL     1      -2.396   6.358 -33.649  1.00  0.00     0.123 A 
ENDBRANCH   7  11
ENDBRANCH   2   5
BRANCH   1  17
HETATM   17  C   UNL     1      -5.802  -0.017 -33.668  1.00  0.00     0.049 A 
HETATM   18  C   UNL     1      -4.593  -0.680 -33.515  1.00  0.00     0.134 A 
HETATM   19  N   UNL     1      -4.367  -1.950 -33.937  1.00  0.00    -0.264 NA
HETATM   20  C   UNL     1      -5.392  -2.608 -34.533  1.00  0.00     0.037 A 
HETATM   21  C   UNL     1      -6.647  -2.024 -34.699  1.00  0.00     0.028 A 
HETATM   22  C   UNL     1      -6.855  -0.716 -34.260  1.00  0.00     0.020 A 
BRANCH  20  23
HETATM   23  C   UNL     1      -5.157  -4.043 -34.965  1.00  0.00     0.029 C 
HETATM   24  C   UNL     1      -6.491  -4.729 -35.260  1.00  0.00     0.016 C 
HETATM   25  C   UNL     1      -4.363  -4.830 -33.919  1.00  0.00     0.016 C 
ENDBRANCH  20  23
ENDBRANCH   1  17
TORSDOF 4
ENDMDL
MODEL 4
REMARK VINA RESULT:      -7.9     13.749     17.500
REMARK  4 active torsions:
REMARK  status: ('A' for Active; 'I' for Inactive)
REMARK    1  A    between atoms: C_2  and  C_3 
REMARK    2  A    between atoms: C_6  and  C_7 
REMARK       I    between atoms: C_7  and  N_8 
REMARK    3  A    between atoms: N_8  and  C_9 
REMARK    4  A    between atoms: C_11  and  C_12 
ROOT
HETATM    1  C   UNL     1      -4.843 -12.838 -38.241  1.00  0.00     0.257 C 
HETATM    2  N   UNL     1      -4.445 -14.051 -37.705  1.00  0.00    -0.323 N 
HETATM    3  O   UNL     1      -4.166 -11.821 -38.332  1.00  0.00    -0.267 OA
HETATM    4  H   UNL     1      -5.163 -14.746 -37.552  1.00  0.00     0.169 HD
ENDROOT
BRANCH   2   5
HETATM    5  C   UNL     1      -3.156 -14.404 -37.249  1.00  0.00     0.035 A 
HETATM    6  C   UNL     1      -2.028 -14.477 -38.073  1.00  0.00     0.042 A 
HETATM    7  C   UNL     1      -0.769 -14.838 -37.557  1.00  0.00    -0.021 A 
HETATM    8  C   UNL     1      -0.665 -15.137 -36.192  1.00  0.00     0.012 A 
HETATM    9  C   UNL     1      -1.785 -15.077 -35.364  1.00  0.00     0.003 A 
HETATM   10  C   UNL     1      -3.024 -14.714 -35.891  1.00  0.00     0.029 A 
BRANCH   7  11
HETATM   11  C   UNL     1       0.408 -14.910 -38.414  1.00  0.00     0.010 A 
HETATM   12  C   UNL     1       1.781 -15.049 -38.094  1.00  0.00     0.152 A 
HETATM   13  N   UNL     1       2.571 -15.067 -39.172  1.00  0.00    -0.187 NA
HETATM   14  N   UNL     1       1.706 -14.941 -40.191  1.00  0.00    -0.289 N 
HETATM   15  H   UNL     1       2.073 -14.929 -41.137  1.00  0.00     0.188 HD
HETATM   16  C   UNL     1       0.405 -14.839 -39.792  1.00  0.00     0.123 A 
ENDBRANCH   7  11
ENDBRANCH   2   5
BRANCH   1  17
HETATM   17  C   UNL     1      -6.250 -12.784 -38.707  1.00  0.00     0.049 A 
HETATM   18  C   UNL     1      -7.262 -13.135 -37.826  1.00  0.00     0.134 A 
HETATM   19  N   UNL     1      -8.582 -13.120 -38.145  1.00  0.00    -0.264 NA
HETATM   20  C   UNL     1      -8.924 -12.728 -39.396  1.00  0.00     0.037 A 
HETATM   21  C   UNL     1      -7.970 -12.332 -40.333  1.00  0.00     0.028 A 
HETATM   22  C   UNL     1      -6.619 -12.358 -39.984  1.00  0.00     0.020 A 
BRANCH  20  23
HETATM   23  C   UNL     1     -10.401 -12.667 -39.740  1.00  0.00     0.029 C 
HETATM   24  C   UNL     1     -10.806 -13.903 -40.544  1.00  0.00     0.016 C 
HETATM   25  C   UNL     1     -10.756 -11.386 -40.500  1.00  0.00     0.016 C 
ENDBRANCH  20  23
ENDBRANCH   1  17
TORSDOF 4
ENDMDL
MODEL 5
REMARK VINA RESULT:      -7.8      7.005     10.058
REMARK  4 active torsions:
REMARK  status: ('A' for Active; 'I' for Inactive)
REMARK    1  A    between atoms: C_2  and  C_3 
REMARK    2  A    between atoms: C_6  and  C_7 
REMARK       I    between atoms: C_7  and  N_8 
REMARK    3  A    between atoms: N_8  and  C_9 
REMARK    4  A    between atoms: C_11  and  C_12 
ROOT
HETATM    1  C   UNL     1      -3.718   3.137 -31.961  1.00  0.00     0.257 C 
HETATM    2  N   UNL     1      -2.544   3.539 -32.575  1.00  0.00    -0.323 N 
HETATM    3  O   UNL     1      -4.288   3.698 -31.033  1.00  0.00    -0.267 OA
HETATM    4  H   UNL     1      -2.112   2.888 -33.216  1.00  0.00     0.169 HD
ENDROOT
BRANCH   2   5
HETATM    5  C   UNL     1      -1.815   4.724 -32.335  1.00  0.00     0.035 A 
HETATM    6  C   UNL     1      -1.251   5.060 -31.100  1.00  0.00     0.042 A 
HETATM    7  C   UNL     1      -0.537   6.260 -30.924  1.00  0.00    -0.021 A 
HETATM    8  C   UNL     1      -0.406   7.127 -32.016  1.00  0.00     0.012 A 
HETATM    9  C   UNL     1      -0.972   6.807 -33.250  1.00  0.00     0.003 A 
HETATM   10  C   UNL     1      -1.673   5.612 -33.407  1.00  0.00     0.029 A 
BRANCH   7  11
HETATM   11  C   UNL     1       0.053   6.609 -29.638  1.00  0.00     0.010 A 
HETATM   12  C   UNL     1       0.314   7.870 -29.048  1.00  0.00     0.152 A 
HETATM   13  N   UNL     1       0.882   7.777 -27.842  1.00  0.00    -0.187 NA
HETATM   14  N   UNL     1       0.987   6.453 -27.650  1.00  0.00    -0.289 N 
HETATM   15  H   UNL     1       1.396   6.122 -26.784  1.00  0.00     0.188 HD
HETATM   16  C   UNL     1       0.511   5.713 -28.693  1.00  0.00     0.123 A 
ENDBRANCH   7  11
ENDBRANCH   2   5
BRANCH   1  17
HETATM   17  C   UNL     1      -4.300   1.873 -32.475  1.00  0.00     0.049 A 
HETATM   18  C   UNL     1      -3.555   0.707 -32.386  1.00  0.00     0.134 A 
HETATM   19  N   UNL     1      -3.988  -0.503 -32.822  1.00  0.00    -0.264 NA
HETATM   20  C   UNL     1      -5.227  -0.571 -33.366  1.00  0.00     0.037 A 
HETATM   21  C   UNL     1      -6.052   0.549 -33.467  1.00  0.00     0.028 A 
HETATM   22  C   UNL     1      -5.584   1.784 -33.015  1.00  0.00     0.020 A 
BRANCH  20  23
HETATM   23  C   UNL     1      -5.732  -1.931 -33.813  1.00  0.00     0.029 C 
HETATM   24  C   UNL     1      -4.610  -2.709 -34.501  1.00  0.00     0.016 C 
HETATM   25  C   UNL     1      -6.951  -1.812 -34.731  1.00  0.00     0.016 C 
ENDBRANCH  20  23
ENDBRANCH   1  17
TORSDOF 4
ENDMDL
MODEL 6
REMARK VINA RESULT:      -7.8     13.814     15.019
REMARK  4 active torsions:
REMARK  status: ('A' for Active; 'I' for Inactive)
REMARK    1  A    between atoms: C_2  and  C_3 
REMARK    2  A    between atoms: C_6  and  C_7 
REMARK       I    between atoms: C_7  and  N_8 
REMARK    3  A    between atoms: N_8  and  C_9 
REMARK    4  A    between atoms: C_11  and  C_12 
ROOT
HETATM    1  C   UNL     1      -6.959 -13.863 -34.433  1.00  0.00     0.257 C 
HETATM    2  N   UNL     1      -6.539 -14.304 -35.677  1.00  0.00    -0.323 N 
HETATM    3  O   UNL     1      -7.522 -12.804 -34.183  1.00  0.00    -0.267 OA
HETATM    4  H   UNL     1      -5.947 -15.122 -35.701  1.00  0.00     0.169 HD
ENDROOT
BRANCH   2   5
HETATM    5  C   UNL     1      -6.761 -13.682 -36.925  1.00  0.00     0.035 A 
HETATM    6  C   UNL     1      -7.991 -13.681 -37.592  1.00  0.00     0.042 A 
HETATM    7  C   UNL     1      -8.147 -13.045 -38.837  1.00  0.00    -0.021 A 
HETATM    8  C   UNL     1      -7.036 -12.412 -39.410  1.00  0.00     0.012 A 
HETATM    9  C   UNL     1      -5.802 -12.415 -38.759  1.00  0.00     0.003 A 
HETATM   10  C   UNL     1      -5.667 -13.047 -37.523  1.00  0.00     0.029 A 
BRANCH   7  11
HETATM   11  C   UNL     1      -9.428 -13.041 -39.531  1.00  0.00     0.010 A 
HETATM   12  C   UNL     1     -10.330 -14.096 -39.821  1.00  0.00     0.152 A 
HETATM   13  N   UNL     1     -11.411 -13.690 -40.493  1.00  0.00    -0.187 NA
HETATM   14  N   UNL     1     -11.210 -12.371 -40.637  1.00  0.00    -0.289 N 
HETATM   15  H   UNL     1     -11.912 -11.827 -41.127  1.00  0.00     0.188 HD
HETATM   16  C   UNL     1     -10.040 -11.935 -40.085  1.00  0.00     0.123 A 
ENDBRANCH   7  11
ENDBRANCH   2   5
BRANCH   1  17
HETATM   17  C   UNL     1      -6.645 -14.770 -33.302  1.00  0.00     0.049 A 
HETATM   18  C   UNL     1      -5.696 -14.375 -32.370  1.00  0.00     0.134 A 
HETATM   19  N   UNL     1      -5.332 -15.123 -31.297  1.00  0.00    -0.264 NA
HETATM   20  C   UNL     1      -5.945 -16.320 -31.126  1.00  0.00     0.037 A 
HETATM   21  C   UNL     1      -6.929 -16.777 -32.001  1.00  0.00     0.028 A 
HETATM   22  C   UNL     1      -7.285 -15.993 -33.099  1.00  0.00     0.020 A 
BRANCH  20  23
HETATM   23  C   UNL     1      -5.574 -17.137 -29.903  1.00  0.00     0.029 C 
HETATM   24  C   UNL     1      -6.774 -17.253 -28.963  1.00  0.00     0.016 C 
HETATM   25  C   UNL     1      -4.366 -16.549 -29.170  1.00  0.00     0.016 C 
ENDBRANCH  20  23
ENDBRANCH   1  17
TORSDOF 4
ENDMDL
MODEL 7
REMARK VINA RESULT:      -7.6      1.796      9.113
REMARK  4 active torsions:
REMARK  status: ('A' for Active; 'I' for Inactive)
REMARK    1  A    between atoms: C_2  and  C_3 
REMARK    2  A    between atoms: C_6  and  C_7 
REMARK       I    between atoms: C_7  and  N_8 
REMARK    3  A    between atoms: N_8  and  C_9 
REMARK    4  A    between atoms: C_11  and  C_12 
ROOT
HETATM    1  C   UNL     1      -9.216   1.636 -33.646  1.00  0.00     0.257 C 
HETATM    2  N   UNL     1      -8.921   0.370 -33.169  1.00  0.00    -0.323 N 
HETATM    3  O   UNL     1      -8.464   2.379 -34.265  1.00  0.00    -0.267 OA
HETATM    4  H   UNL     1      -9.589  -0.053 -32.539  1.00  0.00     0.169 HD
ENDROOT
BRANCH   2   5
HETATM    5  C   UNL     1      -7.737  -0.370 -33.379  1.00  0.00     0.035 A 
HETATM    6  C   UNL     1      -6.545  -0.154 -32.680  1.00  0.00     0.042 A 
HETATM    7  C   UNL     1      -5.396  -0.925 -32.938  1.00  0.00    -0.021 A 
HETATM    8  C   UNL     1      -5.463  -1.916 -33.926  1.00  0.00     0.012 A 
HETATM    9  C   UNL     1      -6.644  -2.133 -34.636  1.00  0.00     0.003 A 
HETATM   10  C   UNL     1      -7.774  -1.363 -34.364  1.00  0.00     0.029 A 
BRANCH   7  11
HETATM   11  C   UNL     1      -4.155  -0.702 -32.208  1.00  0.00     0.010 A 
HETATM   12  C   UNL     1      -3.697   0.422 -31.477  1.00  0.00     0.152 A 
HETATM   13  N   UNL     1      -2.482   0.243 -30.949  1.00  0.00    -0.187 NA
HETATM   14  N   UNL     1      -2.154  -0.998 -31.339  1.00  0.00    -0.289 N 
HETATM   15  H   UNL     1      -1.255  -1.371 -31.054  1.00  0.00     0.188 HD
HETATM   16  C   UNL     1      -3.116  -1.603 -32.095  1.00  0.00     0.123 A 
ENDBRANCH   7  11
ENDBRANCH   2   5
BRANCH   1  17
HETATM   17  C   UNL     1     -10.578   2.131 -33.326  1.00  0.00     0.049 A 
HETATM   18  C   UNL     1     -11.675   1.424 -33.795  1.00  0.00     0.134 A 
HETATM   19  N   UNL     1     -12.963   1.783 -33.562  1.00  0.00    -0.264 NA
HETATM   20  C   UNL     1     -13.183   2.893 -32.816  1.00  0.00     0.037 A 
HETATM   21  C   UNL     1     -12.136   3.644 -32.283  1.00  0.00     0.028 A 
HETATM   22  C   UNL     1     -10.820   3.258 -32.539  1.00  0.00     0.020 A 
BRANCH  20  23
HETATM   23  C   UNL     1     -14.621   3.271 -32.515  1.00  0.00     0.029 C 
HETATM   24  C   UNL     1     -14.664   4.401 -31.485  1.00  0.00     0.016 C 
HETATM   25  C   UNL     1     -15.438   2.069 -32.035  1.00  0.00     0.016 C 
ENDBRANCH  20  23
ENDBRANCH   1  17
TORSDOF 4
ENDMDL
MODEL 8
REMARK VINA RESULT:      -7.5      7.807     10.439
REMARK  4 active torsions:
REMARK  status: ('A' for Active; 'I' for Inactive)
REMARK    1  A    between atoms: C_2  and  C_3 
REMARK    2  A    between atoms: C_6  and  C_7 
REMARK       I    between atoms: C_7  and  N_8 
REMARK    3  A    between atoms: N_8  and  C_9 
REMARK    4  A    between atoms: C_11  and  C_12 
ROOT
HETATM    1  C   UNL     1      -1.449   4.901 -31.288  1.00  0.00     0.257 C 
HETATM    2  N   UNL     1      -2.636   4.350 -30.836  1.00  0.00    -0.323 N 
HETATM    3  O   UNL     1      -0.898   4.676 -32.359  1.00  0.00    -0.267 OA
HETATM    4  H   UNL     1      -2.880   4.508 -29.868  1.00  0.00     0.169 HD
ENDROOT
BRANCH   2   5
HETATM    5  C   UNL     1      -3.510   3.498 -31.547  1.00  0.00     0.035 A 
HETATM    6  C   UNL     1      -3.322   2.118 -31.678  1.00  0.00     0.042 A 
HETATM    7  C   UNL     1      -4.229   1.322 -32.403  1.00  0.00    -0.021 A 
HETATM    8  C   UNL     1      -5.330   1.943 -33.007  1.00  0.00     0.012 A 
HETATM    9  C   UNL     1      -5.522   3.320 -32.891  1.00  0.00     0.003 A 
HETATM   10  C   UNL     1      -4.615   4.092 -32.165  1.00  0.00     0.029 A 
BRANCH   7  11
HETATM   11  C   UNL     1      -4.036  -0.115 -32.537  1.00  0.00     0.010 A 
HETATM   12  C   UNL     1      -4.534  -1.034 -33.495  1.00  0.00     0.152 A 
HETATM   13  N   UNL     1      -4.136  -2.290 -33.272  1.00  0.00    -0.187 NA
HETATM   14  N   UNL     1      -3.378  -2.184 -32.169  1.00  0.00    -0.289 N 
HETATM   15  H   UNL     1      -2.952  -3.025 -31.795  1.00  0.00     0.188 HD
HETATM   16  C   UNL     1      -3.291  -0.910 -31.689  1.00  0.00     0.123 A 
ENDBRANCH   7  11
ENDBRANCH   2   5
BRANCH   1  17
HETATM   17  C   UNL     1      -0.781   5.826 -30.340  1.00  0.00     0.049 A 
HETATM   18  C   UNL     1      -1.181   7.153 -30.304  1.00  0.00     0.134 A 
HETATM   19  N   UNL     1      -0.642   8.084 -29.476  1.00  0.00    -0.264 NA
HETATM   20  C   UNL     1       0.339   7.683 -28.631  1.00  0.00     0.037 A 
HETATM   21  C   UNL     1       0.779   6.361 -28.584  1.00  0.00     0.028 A 
HETATM   22  C   UNL     1       0.213   5.422 -29.446  1.00  0.00     0.020 A 
BRANCH  20  23
HETATM   23  C   UNL     1       0.913   8.711 -27.672  1.00  0.00     0.029 C 
HETATM   24  C   UNL     1       1.696   8.014 -26.560  1.00  0.00     0.016 C 
HETATM   25  C   UNL     1      -0.176   9.613 -27.086  1.00  0.00     0.016 C 
ENDBRANCH  20  23
ENDBRANCH   1  17
TORSDOF 4
ENDMDL
MODEL 9
REMARK VINA RESULT:      -7.5     13.770     17.636
REMARK  4 active torsions:
REMARK  status: ('A' for Active; 'I' for Inactive)
REMARK    1  A    between atoms: C_2  and  C_3 
REMARK    2  A    between atoms: C_6  and  C_7 
REMARK       I    between atoms: C_7  and  N_8 
REMARK    3  A    between atoms: N_8  and  C_9 
REMARK    4  A    between atoms: C_11  and  C_12 
ROOT
HETATM    1  C   UNL     1      -4.379 -12.712 -38.837  1.00  0.00     0.257 C 
HETATM    2  N   UNL     1      -3.753 -13.917 -39.107  1.00  0.00    -0.323 N 
HETATM    3  O   UNL     1      -3.861 -11.706 -38.367  1.00  0.00    -0.267 OA
HETATM    4  H   UNL     1      -4.344 -14.702 -39.341  1.00  0.00     0.169 HD
ENDROOT
BRANCH   2   5
HETATM    5  C   UNL     1      -2.376 -14.209 -38.996  1.00  0.00     0.035 A 
HETATM    6  C   UNL     1      -1.780 -14.749 -37.851  1.00  0.00     0.042 A 
HETATM    7  C   UNL     1      -0.399 -15.016 -37.802  1.00  0.00    -0.021 A 
HETATM    8  C   UNL     1       0.380 -14.720 -38.928  1.00  0.00     0.012 A 
HETATM    9  C   UNL     1      -0.201 -14.173 -40.071  1.00  0.00     0.003 A 
HETATM   10  C   UNL     1      -1.572 -13.919 -40.104  1.00  0.00     0.029 A 
BRANCH   7  11
HETATM   11  C   UNL     1       0.221 -15.581 -36.611  1.00  0.00     0.010 A 
HETATM   12  C   UNL     1       1.453 -16.259 -36.438  1.00  0.00     0.152 A 
HETATM   13  N   UNL     1       1.670 -16.639 -35.176  1.00  0.00    -0.187 NA
HETATM   14  N   UNL     1       0.576 -16.205 -34.529  1.00  0.00    -0.289 N 
HETATM   15  H   UNL     1       0.505 -16.377 -33.532  1.00  0.00     0.188 HD
HETATM   16  C   UNL     1      -0.320 -15.572 -35.341  1.00  0.00     0.123 A 
ENDBRANCH   7  11
ENDBRANCH   2   5
BRANCH   1  17
HETATM   17  C   UNL     1      -5.835 -12.679 -39.121  1.00  0.00     0.049 A 
HETATM   18  C   UNL     1      -6.725 -12.942 -38.090  1.00  0.00     0.134 A 
HETATM   19  N   UNL     1      -8.074 -12.937 -38.236  1.00  0.00    -0.264 NA
HETATM   20  C   UNL     1      -8.576 -12.647 -39.461  1.00  0.00     0.037 A 
HETATM   21  C   UNL     1      -7.751 -12.343 -40.543  1.00  0.00     0.028 A 
HETATM   22  C   UNL     1      -6.366 -12.357 -40.371  1.00  0.00     0.020 A 
BRANCH  20  23
HETATM   23  C   UNL     1     -10.085 -12.596 -39.616  1.00  0.00     0.029 C 
HETATM   24  C   UNL     1     -10.598 -13.909 -40.206  1.00  0.00     0.016 C 
HETATM   25  C   UNL     1     -10.529 -11.407 -40.471  1.00  0.00     0.016 C 
ENDBRANCH  20  23
ENDBRANCH   1  17
TORSDOF 4
ENDMDL
MODEL 10
REMARK VINA RESULT:      -7.4      5.076      6.637
REMARK  4 active torsions:
REMARK  status: ('A' for Active; 'I' for Inactive)
REMARK    1  A    between atoms: C_2  and  C_3 
REMARK    2  A    between atoms: C_6  and  C_7 
REMARK       I    between atoms: C_7  and  N_8 
REMARK    3  A    between atoms: N_8  and  C_9 
REMARK    4  A    between atoms: C_11  and  C_12 
ROOT
HETATM    1  C   UNL     1      -5.640   1.486 -33.142  1.00  0.00     0.257 C 
HETATM    2  N   UNL     1      -4.551   1.847 -32.367  1.00  0.00    -0.323 N 
HETATM    3  O   UNL     1      -6.611   2.184 -33.411  1.00  0.00    -0.267 OA
HETATM    4  H   UNL     1      -3.909   1.112 -32.103  1.00  0.00     0.169 HD
ENDROOT
BRANCH   2   5
HETATM    5  C   UNL     1      -4.278   3.116 -31.811  1.00  0.00     0.035 A 
HETATM    6  C   UNL     1      -5.066   3.725 -30.829  1.00  0.00     0.042 A 
HETATM    7  C   UNL     1      -4.742   4.995 -30.317  1.00  0.00    -0.021 A 
HETATM    8  C   UNL     1      -3.611   5.651 -30.818  1.00  0.00     0.012 A 
HETATM    9  C   UNL     1      -2.823   5.057 -31.804  1.00  0.00     0.003 A 
HETATM   10  C   UNL     1      -3.157   3.796 -32.298  1.00  0.00     0.029 A 
BRANCH   7  11
HETATM   11  C   UNL     1      -5.561   5.629 -29.292  1.00  0.00     0.010 A 
HETATM   12  C   UNL     1      -5.207   6.488 -28.221  1.00  0.00     0.152 A 
HETATM   13  N   UNL     1      -6.255   6.860 -27.480  1.00  0.00    -0.187 NA
HETATM   14  N   UNL     1      -7.289   6.242 -28.072  1.00  0.00    -0.289 N 
HETATM   15  H   UNL     1      -8.217   6.373 -27.684  1.00  0.00     0.188 HD
HETATM   16  C   UNL     1      -6.927   5.493 -29.155  1.00  0.00     0.123 A 
ENDBRANCH   7  11
ENDBRANCH   2   5
BRANCH   1  17
HETATM   17  C   UNL     1      -5.619   0.094 -33.653  1.00  0.00     0.049 A 
HETATM   18  C   UNL     1      -4.484  -0.677 -33.452  1.00  0.00     0.134 A 
HETATM   19  N   UNL     1      -4.355  -1.960 -33.874  1.00  0.00    -0.264 NA
HETATM   20  C   UNL     1      -5.407  -2.520 -34.520  1.00  0.00     0.037 A 
HETATM   21  C   UNL     1      -6.596  -1.824 -34.738  1.00  0.00     0.028 A 
HETATM   22  C   UNL     1      -6.704  -0.504 -34.298  1.00  0.00     0.020 A 
BRANCH  20  23
HETATM   23  C   UNL     1      -5.284  -3.969 -34.953  1.00  0.00     0.029 C 
HETATM   24  C   UNL     1      -6.670  -4.607 -35.059  1.00  0.00     0.016 C 
HETATM   25  C   UNL     1      -4.389  -4.772 -34.006  1.00  0.00     0.016 C 
ENDBRANCH  20  23
ENDBRANCH   1  17
TORSDOF 4
ENDMDL
