MODEL 1
REMARK VINA RESULT:      -9.5      0.000      0.000
REMARK  8 active torsions:
REMARK  status: ('A' for Active; 'I' for Inactive)
REMARK    1  A    between atoms: C_8  and  C_9 
REMARK    2  A    between atoms: C_9  and  C_10 
REMARK       I    between atoms: C_10  and  N_11 
REMARK    3  A    between atoms: N_11  and  C_12 
REMARK    4  A    between atoms: N_11  and  C_27 
REMARK    5  A    between atoms: C_12  and  C_13 
REMARK    6  A    between atoms: C_12  and  C_22 
REMARK       I    between atoms: C_13  and  N_14 
REMARK    7  A    between atoms: N_14  and  C_15 
REMARK    8  A    between atoms: C_27  and  C_28 
ROOT
HETATM    1  C   UNL     1      -7.523   0.716 -33.260  1.00  0.00     0.225 C 
HETATM    2  N   UNL     1      -7.338   2.023 -32.794  1.00  0.00    -0.330 N 
HETATM    3  O   UNL     1      -8.301  -0.068 -32.707  1.00  0.00    -0.273 OA
ENDROOT
BRANCH   2   4
HETATM    4  C   UNL     1      -8.107   2.429 -31.595  1.00  0.00     0.219 C 
BRANCH   4   5
HETATM    5  C   UNL     1      -7.172   2.851 -30.427  1.00  0.00     0.246 C 
HETATM    6  N   UNL     1      -6.955   4.206 -30.260  1.00  0.00    -0.354 N 
HETATM    7  H   UNL     1      -7.061   4.731 -31.125  1.00  0.00     0.162 HD
HETATM    8  O   UNL     1      -6.587   1.999 -29.754  1.00  0.00    -0.271 OA
BRANCH   6   9
HETATM    9  C   UNL     1      -5.977   4.736 -29.313  1.00  0.00     0.084 C 
HETATM   10  C   UNL     1      -4.852   5.464 -30.069  1.00  0.00     0.025 C 
HETATM   11  C   UNL     1      -5.310   6.795 -30.670  1.00  0.00     0.002 C 
HETATM   12  C   UNL     1      -5.932   7.704 -29.615  1.00  0.00     0.000 C 
HETATM   13  C   UNL     1      -7.061   7.004 -28.866  1.00  0.00     0.002 C 
HETATM   14  C   UNL     1      -6.596   5.679 -28.266  1.00  0.00     0.025 C 
ENDBRANCH   6   9
ENDBRANCH   4   5
BRANCH   4  15
HETATM   15  C   UNL     1      -9.240   3.401 -31.902  1.00  0.00     0.014 A 
HETATM   16  S   UNL     1     -10.616   2.818 -32.771  1.00  0.00    -0.104 SA
HETATM   17  C   UNL     1     -11.377   4.346 -32.746  1.00  0.00     0.050 A 
HETATM   18  C   UNL     1     -10.606   5.296 -32.120  1.00  0.00     0.008 A 
HETATM   19  C   UNL     1      -9.374   4.757 -31.650  1.00  0.00     0.017 A 
ENDBRANCH   4  15
ENDBRANCH   2   4
BRANCH   2  20
HETATM   20  C   UNL     1      -6.966   3.094 -33.724  1.00  0.00     0.165 C 
BRANCH  20  21
HETATM   21  C   UNL     1      -5.534   3.562 -33.612  1.00  0.00    -0.037 A 
HETATM   22  C   UNL     1      -5.109   4.711 -34.298  1.00  0.00     0.048 A 
HETATM   23  C   UNL     1      -3.808   5.130 -34.115  1.00  0.00     0.105 A 
HETATM   24  C   UNL     1      -2.932   4.449 -33.302  1.00  0.00     0.105 A 
HETATM   25  O   UNL     1      -3.243   6.233 -34.677  1.00  0.00    -0.323 OA
HETATM   26  O   UNL     1      -1.707   5.036 -33.251  1.00  0.00    -0.323 OA
HETATM   27  C   UNL     1      -3.306   3.308 -32.626  1.00  0.00     0.040 A 
HETATM   28  C   UNL     1      -1.920   6.180 -34.104  1.00  0.00     0.352 A 
HETATM   29  C   UNL     1      -4.623   2.866 -32.782  1.00  0.00     0.012 A 
ENDBRANCH  20  21
ENDBRANCH   2  20
BRANCH   1  30
HETATM   30  C   UNL     1      -6.640   0.215 -34.393  1.00  0.00     0.144 C 
BRANCH  30  31
HETATM   31  C   UNL     1      -5.664  -0.879 -34.081  1.00  0.00    -0.021 A 
HETATM   32  C   UNL     1      -5.737  -2.292 -34.334  1.00  0.00    -0.001 A 
HETATM   33  C   UNL     1      -6.693  -3.154 -34.915  1.00  0.00     0.014 A 
HETATM   34  C   UNL     1      -4.534  -2.855 -33.898  1.00  0.00     0.042 A 
HETATM   35  C   UNL     1      -6.403  -4.516 -35.065  1.00  0.00     0.001 A 
HETATM   36  C   UNL     1      -5.190  -5.038 -34.631  1.00  0.00     0.002 A 
HETATM   37  C   UNL     1      -4.234  -4.216 -34.030  1.00  0.00     0.030 A 
HETATM   38  N   UNL     1      -3.781  -1.844 -33.356  1.00  0.00    -0.365 N 
HETATM   39  H   UNL     1      -2.864  -1.968 -32.950  1.00  0.00     0.165 HD
HETATM   40  C   UNL     1      -4.444  -0.655 -33.463  1.00  0.00     0.097 A 
ENDBRANCH  30  31
ENDBRANCH   1  30
TORSDOF 8
ENDMDL
MODEL 2
REMARK VINA RESULT:      -9.3      2.517      6.043
REMARK  8 active torsions:
REMARK  status: ('A' for Active; 'I' for Inactive)
REMARK    1  A    between atoms: C_8  and  C_9 
REMARK    2  A    between atoms: C_9  and  C_10 
REMARK       I    between atoms: C_10  and  N_11 
REMARK    3  A    between atoms: N_11  and  C_12 
REMARK    4  A    between atoms: N_11  and  C_27 
REMARK    5  A    between atoms: C_12  and  C_13 
REMARK    6  A    between atoms: C_12  and  C_22 
REMARK       I    between atoms: C_13  and  N_14 
REMARK    7  A    between atoms: N_14  and  C_15 
REMARK    8  A    between atoms: C_27  and  C_28 
ROOT
HETATM    1  C   UNL     1      -7.184   1.830 -31.191  1.00  0.00     0.225 C 
HETATM    2  N   UNL     1      -5.982   2.201 -31.805  1.00  0.00    -0.330 N 
HETATM    3  O   UNL     1      -7.626   2.433 -30.208  1.00  0.00    -0.273 OA
ENDROOT
BRANCH   2   4
HETATM    4  C   UNL     1      -5.247   3.345 -31.218  1.00  0.00     0.219 C 
BRANCH   4   5
HETATM    5  C   UNL     1      -3.736   3.307 -31.584  1.00  0.00     0.246 C 
HETATM    6  N   UNL     1      -3.243   4.374 -32.310  1.00  0.00    -0.354 N 
HETATM    7  H   UNL     1      -3.956   4.828 -32.876  1.00  0.00     0.162 HD
HETATM    8  O   UNL     1      -3.051   2.317 -31.311  1.00  0.00    -0.271 OA
BRANCH   6   9
HETATM    9  C   UNL     1      -1.889   4.393 -32.860  1.00  0.00     0.084 C 
HETATM   10  C   UNL     1      -1.902   5.012 -34.269  1.00  0.00     0.025 C 
HETATM   11  C   UNL     1      -2.146   6.522 -34.248  1.00  0.00     0.002 C 
HETATM   12  C   UNL     1      -1.146   7.241 -33.349  1.00  0.00     0.000 C 
HETATM   13  C   UNL     1      -1.132   6.652 -31.943  1.00  0.00     0.002 C 
HETATM   14  C   UNL     1      -0.884   5.146 -31.970  1.00  0.00     0.025 C 
ENDBRANCH   6   9
ENDBRANCH   4   5
BRANCH   4  15
HETATM   15  C   UNL     1      -5.935   4.686 -31.442  1.00  0.00     0.014 A 
HETATM   16  S   UNL     1      -6.128   5.751 -30.095  1.00  0.00    -0.104 SA
HETATM   17  C   UNL     1      -6.921   6.931 -31.041  1.00  0.00     0.050 A 
HETATM   18  C   UNL     1      -7.068   6.531 -32.347  1.00  0.00     0.008 A 
HETATM   19  C   UNL     1      -6.517   5.236 -32.573  1.00  0.00     0.017 A 
ENDBRANCH   4  15
ENDBRANCH   2   4
BRANCH   2  20
HETATM   20  C   UNL     1      -5.778   1.960 -33.238  1.00  0.00     0.165 C 
BRANCH  20  21
HETATM   21  C   UNL     1      -5.573   0.512 -33.614  1.00  0.00    -0.037 A 
HETATM   22  C   UNL     1      -4.564  -0.244 -32.996  1.00  0.00     0.048 A 
HETATM   23  C   UNL     1      -4.455  -1.577 -33.331  1.00  0.00     0.105 A 
HETATM   24  C   UNL     1      -5.291  -2.165 -34.251  1.00  0.00     0.105 A 
HETATM   25  O   UNL     1      -3.559  -2.456 -32.809  1.00  0.00    -0.323 OA
HETATM   26  O   UNL     1      -5.025  -3.486 -34.426  1.00  0.00    -0.323 OA
HETATM   27  C   UNL     1      -6.283  -1.454 -34.891  1.00  0.00     0.040 A 
HETATM   28  C   UNL     1      -3.942  -3.669 -33.489  1.00  0.00     0.352 A 
HETATM   29  C   UNL     1      -6.424  -0.103 -34.564  1.00  0.00     0.012 A 
ENDBRANCH  20  21
ENDBRANCH   2  20
BRANCH   1  30
HETATM   30  C   UNL     1      -7.889   0.569 -31.670  1.00  0.00     0.144 C 
BRANCH  30  31
HETATM   31  C   UNL     1      -9.179   0.736 -32.416  1.00  0.00    -0.021 A 
HETATM   32  C   UNL     1      -9.662   1.837 -33.203  1.00  0.00    -0.001 A 
HETATM   33  C   UNL     1      -9.166   3.113 -33.547  1.00  0.00     0.014 A 
HETATM   34  C   UNL     1     -10.900   1.457 -33.731  1.00  0.00     0.042 A 
HETATM   35  C   UNL     1      -9.896   3.934 -34.415  1.00  0.00     0.001 A 
HETATM   36  C   UNL     1     -11.118   3.517 -34.931  1.00  0.00     0.002 A 
HETATM   37  C   UNL     1     -11.648   2.271 -34.590  1.00  0.00     0.030 A 
HETATM   38  N   UNL     1     -11.184   0.204 -33.249  1.00  0.00    -0.365 N 
HETATM   39  H   UNL     1     -12.028  -0.313 -33.458  1.00  0.00     0.165 HD
HETATM   40  C   UNL     1     -10.160  -0.240 -32.463  1.00  0.00     0.097 A 
ENDBRANCH  30  31
ENDBRANCH   1  30
TORSDOF 8
ENDMDL
MODEL 3
REMARK VINA RESULT:      -9.2      2.950      6.429
REMARK  8 active torsions:
REMARK  status: ('A' for Active; 'I' for Inactive)
REMARK    1  A    between atoms: C_8  and  C_9 
REMARK    2  A    between atoms: C_9  and  C_10 
REMARK       I    between atoms: C_10  and  N_11 
REMARK    3  A    between atoms: N_11  and  C_12 
REMARK    4  A    between atoms: N_11  and  C_27 
REMARK    5  A    between atoms: C_12  and  C_13 
REMARK    6  A    between atoms: C_12  and  C_22 
REMARK       I    between atoms: C_13  and  N_14 
REMARK    7  A    between atoms: N_14  and  C_15 
REMARK    8  A    between atoms: C_27  and  C_28 
ROOT
HETATM    1  C   UNL     1      -8.017   0.248 -33.412  1.00  0.00     0.225 C 
HETATM    2  N   UNL     1      -7.149   1.057 -32.669  1.00  0.00    -0.330 N 
HETATM    3  O   UNL     1      -7.696  -0.211 -34.513  1.00  0.00    -0.273 OA
ENDROOT
BRANCH   2   4
HETATM    4  C   UNL     1      -5.826   1.355 -33.264  1.00  0.00     0.219 C 
BRANCH   4   5
HETATM    5  C   UNL     1      -5.612   2.883 -33.457  1.00  0.00     0.246 C 
HETATM    6  N   UNL     1      -4.429   3.414 -32.978  1.00  0.00    -0.354 N 
HETATM    7  H   UNL     1      -4.041   2.875 -32.206  1.00  0.00     0.162 HD
HETATM    8  O   UNL     1      -6.509   3.585 -33.932  1.00  0.00    -0.271 OA
BRANCH   6   9
HETATM    9  C   UNL     1      -4.167   4.850 -32.944  1.00  0.00     0.084 C 
HETATM   10  C   UNL     1      -3.377   5.212 -31.674  1.00  0.00     0.025 C 
HETATM   11  C   UNL     1      -1.926   4.731 -31.725  1.00  0.00     0.002 C 
HETATM   12  C   UNL     1      -1.209   5.237 -32.973  1.00  0.00     0.000 C 
HETATM   13  C   UNL     1      -1.969   4.873 -34.243  1.00  0.00     0.002 C 
HETATM   14  C   UNL     1      -3.416   5.359 -34.188  1.00  0.00     0.025 C 
ENDBRANCH   6   9
ENDBRANCH   4   5
BRANCH   4  15
HETATM   15  C   UNL     1      -4.677   0.620 -32.583  1.00  0.00     0.014 A 
HETATM   16  S   UNL     1      -4.274  -0.970 -33.128  1.00  0.00    -0.104 SA
HETATM   17  C   UNL     1      -3.016  -1.128 -31.985  1.00  0.00     0.050 A 
HETATM   18  C   UNL     1      -2.908  -0.019 -31.181  1.00  0.00     0.008 A 
HETATM   19  C   UNL     1      -3.870   0.978 -31.514  1.00  0.00     0.017 A 
ENDBRANCH   4  15
ENDBRANCH   2   4
BRANCH   2  20
HETATM   20  C   UNL     1      -7.224   1.073 -31.204  1.00  0.00     0.165 C 
BRANCH  20  21
HETATM   21  C   UNL     1      -7.505   2.428 -30.598  1.00  0.00    -0.037 A 
HETATM   22  C   UNL     1      -6.486   3.132 -29.938  1.00  0.00     0.048 A 
HETATM   23  C   UNL     1      -6.777   4.391 -29.454  1.00  0.00     0.105 A 
HETATM   24  C   UNL     1      -8.025   4.951 -29.591  1.00  0.00     0.105 A 
HETATM   25  O   UNL     1      -5.904   5.218 -28.818  1.00  0.00    -0.323 OA
HETATM   26  O   UNL     1      -8.096   6.200 -29.058  1.00  0.00    -0.323 OA
HETATM   27  C   UNL     1      -9.055   4.285 -30.219  1.00  0.00     0.040 A 
HETATM   28  C   UNL     1      -6.741   6.372 -28.593  1.00  0.00     0.352 A 
HETATM   29  C   UNL     1      -8.788   3.013 -30.729  1.00  0.00     0.012 A 
ENDBRANCH  20  21
ENDBRANCH   2  20
BRANCH   1  30
HETATM   30  C   UNL     1      -9.437   0.046 -32.905  1.00  0.00     0.144 C 
BRANCH  30  31
HETATM   31  C   UNL     1     -10.510   0.922 -33.479  1.00  0.00    -0.021 A 
HETATM   32  C   UNL     1     -11.910   0.667 -33.682  1.00  0.00    -0.001 A 
HETATM   33  C   UNL     1     -12.767  -0.433 -33.461  1.00  0.00     0.014 A 
HETATM   34  C   UNL     1     -12.475   1.838 -34.194  1.00  0.00     0.042 A 
HETATM   35  C   UNL     1     -14.137  -0.313 -33.723  1.00  0.00     0.001 A 
HETATM   36  C   UNL     1     -14.665   0.873 -34.220  1.00  0.00     0.002 A 
HETATM   37  C   UNL     1     -13.841   1.971 -34.474  1.00  0.00     0.030 A 
HETATM   38  N   UNL     1     -11.461   2.751 -34.345  1.00  0.00    -0.365 N 
HETATM   39  H   UNL     1     -11.582   3.686 -34.711  1.00  0.00     0.165 HD
HETATM   40  C   UNL     1     -10.280   2.216 -33.918  1.00  0.00     0.097 A 
ENDBRANCH  30  31
ENDBRANCH   1  30
TORSDOF 8
ENDMDL
MODEL 4
REMARK VINA RESULT:      -9.2      2.339      5.243
REMARK  8 active torsions:
REMARK  status: ('A' for Active; 'I' for Inactive)
REMARK    1  A    between atoms: C_8  and  C_9 
REMARK    2  A    between atoms: C_9  and  C_10 
REMARK       I    between atoms: C_10  and  N_11 
REMARK    3  A    between atoms: N_11  and  C_12 
REMARK    4  A    between atoms: N_11  and  C_27 
REMARK    5  A    between atoms: C_12  and  C_13 
REMARK    6  A    between atoms: C_12  and  C_22 
REMARK       I    between atoms: C_13  and  N_14 
REMARK    7  A    between atoms: N_14  and  C_15 
REMARK    8  A    between atoms: C_27  and  C_28 
ROOT
HETATM    1  C   UNL     1      -7.969   0.834 -32.768  1.00  0.00     0.225 C 
HETATM    2  N   UNL     1      -8.299   2.194 -32.802  1.00  0.00    -0.330 N 
HETATM    3  O   UNL     1      -7.988   0.186 -31.717  1.00  0.00    -0.273 OA
ENDROOT
BRANCH   2   4
HETATM    4  C   UNL     1      -8.661   2.835 -31.517  1.00  0.00     0.219 C 
BRANCH   4   5
HETATM    5  C   UNL     1      -7.404   3.172 -30.667  1.00  0.00     0.246 C 
HETATM    6  N   UNL     1      -6.233   3.424 -31.357  1.00  0.00    -0.354 N 
HETATM    7  H   UNL     1      -6.203   2.961 -32.263  1.00  0.00     0.162 HD
HETATM    8  O   UNL     1      -7.448   3.119 -29.435  1.00  0.00    -0.271 OA
BRANCH   6   9
HETATM    9  C   UNL     1      -4.945   3.592 -30.688  1.00  0.00     0.084 C 
HETATM   10  C   UNL     1      -3.959   2.511 -31.164  1.00  0.00     0.025 C 
HETATM   11  C   UNL     1      -3.484   2.738 -32.601  1.00  0.00     0.002 C 
HETATM   12  C   UNL     1      -2.893   4.131 -32.786  1.00  0.00     0.000 C 
HETATM   13  C   UNL     1      -3.864   5.217 -32.335  1.00  0.00     0.002 C 
HETATM   14  C   UNL     1      -4.330   4.988 -30.899  1.00  0.00     0.025 C 
ENDBRANCH   6   9
ENDBRANCH   4   5
BRANCH   4  15
HETATM   15  C   UNL     1      -9.665   3.972 -31.669  1.00  0.00     0.014 A 
HETATM   16  S   UNL     1      -9.093   5.517 -32.191  1.00  0.00    -0.104 SA
HETATM   17  C   UNL     1     -10.653   6.207 -32.116  1.00  0.00     0.050 A 
HETATM   18  C   UNL     1     -11.595   5.307 -31.680  1.00  0.00     0.008 A 
HETATM   19  C   UNL     1     -11.026   4.029 -31.409  1.00  0.00     0.017 A 
ENDBRANCH   4  15
ENDBRANCH   2   4
BRANCH   2  20
HETATM   20  C   UNL     1      -8.880   2.784 -34.012  1.00  0.00     0.165 C 
BRANCH  20  21
HETATM   21  C   UNL     1     -10.313   2.390 -34.286  1.00  0.00    -0.037 A 
HETATM   22  C   UNL     1     -10.843   1.217 -33.725  1.00  0.00     0.048 A 
HETATM   23  C   UNL     1     -12.172   0.933 -33.956  1.00  0.00     0.105 A 
HETATM   24  C   UNL     1     -12.969   1.753 -34.720  1.00  0.00     0.105 A 
HETATM   25  O   UNL     1     -12.851  -0.140 -33.468  1.00  0.00    -0.323 OA
HETATM   26  O   UNL     1     -14.246   1.299 -34.812  1.00  0.00    -0.323 OA
HETATM   27  C   UNL     1     -12.481   2.904 -35.301  1.00  0.00     0.040 A 
HETATM   28  C   UNL     1     -14.171   0.113 -33.994  1.00  0.00     0.352 A 
HETATM   29  C   UNL     1     -11.140   3.224 -35.075  1.00  0.00     0.012 A 
ENDBRANCH  20  21
ENDBRANCH   2  20
BRANCH   1  30
HETATM   30  C   UNL     1      -7.445   0.179 -34.038  1.00  0.00     0.144 C 
BRANCH  30  31
HETATM   31  C   UNL     1      -6.256  -0.725 -33.912  1.00  0.00    -0.021 A 
HETATM   32  C   UNL     1      -6.118  -2.126 -34.198  1.00  0.00    -0.001 A 
HETATM   33  C   UNL     1      -6.985  -3.142 -34.656  1.00  0.00     0.014 A 
HETATM   34  C   UNL     1      -4.782  -2.468 -33.968  1.00  0.00     0.042 A 
HETATM   35  C   UNL     1      -6.487  -4.430 -34.893  1.00  0.00     0.001 A 
HETATM   36  C   UNL     1      -5.149  -4.728 -34.665  1.00  0.00     0.002 A 
HETATM   37  C   UNL     1      -4.272  -3.753 -34.188  1.00  0.00     0.030 A 
HETATM   38  N   UNL     1      -4.144  -1.341 -33.514  1.00  0.00    -0.365 N 
HETATM   39  H   UNL     1      -3.167  -1.301 -33.255  1.00  0.00     0.165 HD
HETATM   40  C   UNL     1      -5.014  -0.289 -33.479  1.00  0.00     0.097 A 
ENDBRANCH  30  31
ENDBRANCH   1  30
TORSDOF 8
ENDMDL
MODEL 5
REMARK VINA RESULT:      -9.0      1.508      2.245
REMARK  8 active torsions:
REMARK  status: ('A' for Active; 'I' for Inactive)
REMARK    1  A    between atoms: C_8  and  C_9 
REMARK    2  A    between atoms: C_9  and  C_10 
REMARK       I    between atoms: C_10  and  N_11 
REMARK    3  A    between atoms: N_11  and  C_12 
REMARK    4  A    between atoms: N_11  and  C_27 
REMARK    5  A    between atoms: C_12  and  C_13 
REMARK    6  A    between atoms: C_12  and  C_22 
REMARK       I    between atoms: C_13  and  N_14 
REMARK    7  A    between atoms: N_14  and  C_15 
REMARK    8  A    between atoms: C_27  and  C_28 
ROOT
HETATM    1  C   UNL     1      -6.075   0.769 -30.954  1.00  0.00     0.225 C 
HETATM    2  N   UNL     1      -6.703   1.798 -31.666  1.00  0.00    -0.330 N 
HETATM    3  O   UNL     1      -6.640   0.182 -30.025  1.00  0.00    -0.273 OA
ENDROOT
BRANCH   2   4
HETATM    4  C   UNL     1      -8.075   2.170 -31.251  1.00  0.00     0.219 C 
BRANCH   4   5
HETATM    5  C   UNL     1      -8.115   3.575 -30.588  1.00  0.00     0.246 C 
HETATM    6  N   UNL     1      -6.912   4.244 -30.469  1.00  0.00    -0.354 N 
HETATM    7  H   UNL     1      -6.114   3.613 -30.423  1.00  0.00     0.162 HD
HETATM    8  O   UNL     1      -9.166   4.013 -30.113  1.00  0.00    -0.271 OA
BRANCH   6   9
HETATM    9  C   UNL     1      -6.775   5.493 -29.724  1.00  0.00     0.084 C 
HETATM   10  C   UNL     1      -5.346   5.623 -29.169  1.00  0.00     0.025 C 
HETATM   11  C   UNL     1      -4.313   5.910 -30.260  1.00  0.00     0.002 C 
HETATM   12  C   UNL     1      -4.689   7.139 -31.082  1.00  0.00     0.000 C 
HETATM   13  C   UNL     1      -6.097   7.021 -31.655  1.00  0.00     0.002 C 
HETATM   14  C   UNL     1      -7.124   6.738 -30.560  1.00  0.00     0.025 C 
ENDBRANCH   6   9
ENDBRANCH   4   5
BRANCH   4  15
HETATM   15  C   UNL     1      -9.120   1.933 -32.335  1.00  0.00     0.014 A 
HETATM   16  S   UNL     1      -9.729   3.295 -33.208  1.00  0.00    -0.104 SA
HETATM   17  C   UNL     1     -10.770   2.324 -34.151  1.00  0.00     0.050 A 
HETATM   18  C   UNL     1     -10.691   0.996 -33.805  1.00  0.00     0.008 A 
HETATM   19  C   UNL     1      -9.756   0.774 -32.753  1.00  0.00     0.017 A 
ENDBRANCH   4  15
ENDBRANCH   2   4
BRANCH   2  20
HETATM   20  C   UNL     1      -6.356   2.044 -33.070  1.00  0.00     0.165 C 
BRANCH  20  21
HETATM   21  C   UNL     1      -5.328   3.129 -33.288  1.00  0.00    -0.037 A 
HETATM   22  C   UNL     1      -4.082   3.063 -32.643  1.00  0.00     0.048 A 
HETATM   23  C   UNL     1      -3.156   4.047 -32.922  1.00  0.00     0.105 A 
HETATM   24  C   UNL     1      -3.429   5.076 -33.793  1.00  0.00     0.105 A 
HETATM   25  O   UNL     1      -1.898   4.120 -32.411  1.00  0.00    -0.323 OA
HETATM   26  O   UNL     1      -2.379   5.927 -33.937  1.00  0.00    -0.323 OA
HETATM   27  C   UNL     1      -4.645   5.183 -34.432  1.00  0.00     0.040 A 
HETATM   28  C   UNL     1      -1.404   5.300 -33.078  1.00  0.00     0.352 A 
HETATM   29  C   UNL     1      -5.600   4.196 -34.178  1.00  0.00     0.012 A 
ENDBRANCH  20  21
ENDBRANCH   2  20
BRANCH   1  30
HETATM   30  C   UNL     1      -4.615   0.463 -31.250  1.00  0.00     0.144 C 
BRANCH  30  31
HETATM   31  C   UNL     1      -4.305  -0.817 -31.965  1.00  0.00    -0.021 A 
HETATM   32  C   UNL     1      -5.033  -1.508 -32.994  1.00  0.00    -0.001 A 
HETATM   33  C   UNL     1      -6.250  -1.287 -33.676  1.00  0.00     0.014 A 
HETATM   34  C   UNL     1      -4.277  -2.625 -33.359  1.00  0.00     0.042 A 
HETATM   35  C   UNL     1      -6.642  -2.157 -34.701  1.00  0.00     0.001 A 
HETATM   36  C   UNL     1      -5.857  -3.251 -35.045  1.00  0.00     0.002 A 
HETATM   37  C   UNL     1      -4.661  -3.512 -34.373  1.00  0.00     0.030 A 
HETATM   38  N   UNL     1      -3.163  -2.647 -32.557  1.00  0.00    -0.365 N 
HETATM   39  H   UNL     1      -2.444  -3.356 -32.594  1.00  0.00     0.165 HD
HETATM   40  C   UNL     1      -3.166  -1.568 -31.721  1.00  0.00     0.097 A 
ENDBRANCH  30  31
ENDBRANCH   1  30
TORSDOF 8
ENDMDL
MODEL 6
REMARK VINA RESULT:      -9.0      1.629      2.411
REMARK  8 active torsions:
REMARK  status: ('A' for Active; 'I' for Inactive)
REMARK    1  A    between atoms: C_8  and  C_9 
REMARK    2  A    between atoms: C_9  and  C_10 
REMARK       I    between atoms: C_10  and  N_11 
REMARK    3  A    between atoms: N_11  and  C_12 
REMARK    4  A    between atoms: N_11  and  C_27 
REMARK    5  A    between atoms: C_12  and  C_13 
REMARK    6  A    between atoms: C_12  and  C_22 
REMARK       I    between atoms: C_13  and  N_14 
REMARK    7  A    between atoms: N_14  and  C_15 
REMARK    8  A    between atoms: C_27  and  C_28 
ROOT
HETATM    1  C   UNL     1      -5.523   0.993 -31.134  1.00  0.00     0.225 C 
HETATM    2  N   UNL     1      -5.735   2.241 -31.733  1.00  0.00    -0.330 N 
HETATM    3  O   UNL     1      -6.390   0.447 -30.444  1.00  0.00    -0.273 OA
ENDROOT
BRANCH   2   4
HETATM    4  C   UNL     1      -7.043   2.893 -31.494  1.00  0.00     0.219 C 
BRANCH   4   5
HETATM    5  C   UNL     1      -6.909   4.440 -31.417  1.00  0.00     0.246 C 
HETATM    6  N   UNL     1      -6.369   4.963 -30.258  1.00  0.00    -0.354 N 
HETATM    7  H   UNL     1      -6.515   4.361 -29.450  1.00  0.00     0.162 HD
HETATM    8  O   UNL     1      -7.358   5.152 -32.320  1.00  0.00    -0.271 OA
BRANCH   6   9
HETATM    9  C   UNL     1      -6.335   6.397 -29.982  1.00  0.00     0.084 C 
HETATM   10  C   UNL     1      -6.638   6.655 -28.496  1.00  0.00     0.025 C 
HETATM   11  C   UNL     1      -5.490   6.233 -27.577  1.00  0.00     0.002 C 
HETATM   12  C   UNL     1      -4.174   6.889 -27.985  1.00  0.00     0.000 C 
HETATM   13  C   UNL     1      -3.848   6.629 -29.451  1.00  0.00     0.002 C 
HETATM   14  C   UNL     1      -4.997   7.056 -30.362  1.00  0.00     0.025 C 
ENDBRANCH   6   9
ENDBRANCH   4   5
BRANCH   4  15
HETATM   15  C   UNL     1      -8.150   2.381 -32.409  1.00  0.00     0.014 A 
HETATM   16  S   UNL     1      -9.793   2.618 -31.930  1.00  0.00    -0.104 SA
HETATM   17  C   UNL     1     -10.394   1.839 -33.325  1.00  0.00     0.050 A 
HETATM   18  C   UNL     1      -9.384   1.379 -34.135  1.00  0.00     0.008 A 
HETATM   19  C   UNL     1      -8.096   1.677 -33.601  1.00  0.00     0.017 A 
ENDBRANCH   4  15
ENDBRANCH   2   4
BRANCH   2  20
HETATM   20  C   UNL     1      -5.052   2.586 -32.984  1.00  0.00     0.165 C 
BRANCH  20  21
HETATM   21  C   UNL     1      -3.961   3.622 -32.846  1.00  0.00    -0.037 A 
HETATM   22  C   UNL     1      -3.902   4.709 -33.734  1.00  0.00     0.048 A 
HETATM   23  C   UNL     1      -2.924   5.659 -33.529  1.00  0.00     0.105 A 
HETATM   24  C   UNL     1      -2.016   5.558 -32.502  1.00  0.00     0.105 A 
HETATM   25  O   UNL     1      -2.742   6.784 -34.272  1.00  0.00    -0.323 OA
HETATM   26  O   UNL     1      -1.147   6.603 -32.470  1.00  0.00    -0.323 OA
HETATM   27  C   UNL     1      -2.031   4.498 -31.621  1.00  0.00     0.040 A 
HETATM   28  C   UNL     1      -1.631   7.389 -33.579  1.00  0.00     0.352 A 
HETATM   29  C   UNL     1      -3.018   3.525 -31.795  1.00  0.00     0.012 A 
ENDBRANCH  20  21
ENDBRANCH   2  20
BRANCH   1  30
HETATM   30  C   UNL     1      -4.141   0.364 -31.229  1.00  0.00     0.144 C 
BRANCH  30  31
HETATM   31  C   UNL     1      -4.021  -0.939 -31.961  1.00  0.00    -0.021 A 
HETATM   32  C   UNL     1      -4.799  -1.473 -33.044  1.00  0.00    -0.001 A 
HETATM   33  C   UNL     1      -5.917  -1.029 -33.785  1.00  0.00     0.014 A 
HETATM   34  C   UNL     1      -4.232  -2.701 -33.398  1.00  0.00     0.042 A 
HETATM   35  C   UNL     1      -6.397  -1.799 -34.852  1.00  0.00     0.001 A 
HETATM   36  C   UNL     1      -5.798  -3.009 -35.182  1.00  0.00     0.002 A 
HETATM   37  C   UNL     1      -4.708  -3.488 -34.454  1.00  0.00     0.030 A 
HETATM   38  N   UNL     1      -3.188  -2.932 -32.538  1.00  0.00    -0.365 N 
HETATM   39  H   UNL     1      -2.604  -3.758 -32.555  1.00  0.00     0.165 HD
HETATM   40  C   UNL     1      -3.048  -1.884 -31.675  1.00  0.00     0.097 A 
ENDBRANCH  30  31
ENDBRANCH   1  30
TORSDOF 8
ENDMDL
MODEL 7
REMARK VINA RESULT:      -8.9      2.633      4.967
REMARK  8 active torsions:
REMARK  status: ('A' for Active; 'I' for Inactive)
REMARK    1  A    between atoms: C_8  and  C_9 
REMARK    2  A    between atoms: C_9  and  C_10 
REMARK       I    between atoms: C_10  and  N_11 
REMARK    3  A    between atoms: N_11  and  C_12 
REMARK    4  A    between atoms: N_11  and  C_27 
REMARK    5  A    between atoms: C_12  and  C_13 
REMARK    6  A    between atoms: C_12  and  C_22 
REMARK       I    between atoms: C_13  and  N_14 
REMARK    7  A    between atoms: N_14  and  C_15 
REMARK    8  A    between atoms: C_27  and  C_28 
ROOT
HETATM    1  C   UNL     1      -5.759   1.824 -30.851  1.00  0.00     0.225 C 
HETATM    2  N   UNL     1      -5.178   2.753 -31.723  1.00  0.00    -0.330 N 
HETATM    3  O   UNL     1      -5.683   1.948 -29.624  1.00  0.00    -0.273 OA
ENDROOT
BRANCH   2   4
HETATM    4  C   UNL     1      -4.453   3.891 -31.114  1.00  0.00     0.219 C 
BRANCH   4   5
HETATM    5  C   UNL     1      -2.963   3.928 -31.558  1.00  0.00     0.246 C 
HETATM    6  N   UNL     1      -2.141   4.831 -30.911  1.00  0.00    -0.354 N 
HETATM    7  H   UNL     1      -2.649   5.635 -30.548  1.00  0.00     0.162 HD
HETATM    8  O   UNL     1      -2.576   3.243 -32.509  1.00  0.00    -0.271 OA
BRANCH   6   9
HETATM    9  C   UNL     1      -0.767   5.088 -31.334  1.00  0.00     0.084 C 
HETATM   10  C   UNL     1      -0.633   6.535 -31.840  1.00  0.00     0.025 C 
HETATM   11  C   UNL     1      -0.705   7.564 -30.710  1.00  0.00     0.002 C 
HETATM   12  C   UNL     1       0.320   7.274 -29.619  1.00  0.00     0.000 C 
HETATM   13  C   UNL     1       0.192   5.849 -29.093  1.00  0.00     0.002 C 
HETATM   14  C   UNL     1       0.268   4.827 -30.225  1.00  0.00     0.025 C 
ENDBRANCH   6   9
ENDBRANCH   4   5
BRANCH   4  15
HETATM   15  C   UNL     1      -5.197   5.216 -31.231  1.00  0.00     0.014 A 
HETATM   16  S   UNL     1      -6.241   5.694 -29.939  1.00  0.00    -0.104 SA
HETATM   17  C   UNL     1      -6.686   7.141 -30.729  1.00  0.00     0.050 A 
HETATM   18  C   UNL     1      -6.086   7.261 -31.960  1.00  0.00     0.008 A 
HETATM   19  C   UNL     1      -5.244   6.149 -32.254  1.00  0.00     0.017 A 
ENDBRANCH   4  15
ENDBRANCH   2   4
BRANCH   2  20
HETATM   20  C   UNL     1      -5.757   2.982 -33.050  1.00  0.00     0.165 C 
BRANCH  20  21
HETATM   21  C   UNL     1      -7.255   2.803 -33.129  1.00  0.00    -0.037 A 
HETATM   22  C   UNL     1      -8.105   3.602 -32.349  1.00  0.00     0.048 A 
HETATM   23  C   UNL     1      -9.466   3.440 -32.501  1.00  0.00     0.105 A 
HETATM   24  C   UNL     1      -9.995   2.520 -33.375  1.00  0.00     0.105 A 
HETATM   25  O   UNL     1     -10.428   4.149 -31.850  1.00  0.00    -0.323 OA
HETATM   26  O   UNL     1     -11.354   2.531 -33.382  1.00  0.00    -0.323 OA
HETATM   27  C   UNL     1      -9.194   1.706 -34.146  1.00  0.00     0.040 A 
HETATM   28  C   UNL     1     -11.621   3.584 -32.432  1.00  0.00     0.352 A 
HETATM   29  C   UNL     1      -7.810   1.855 -34.022  1.00  0.00     0.012 A 
ENDBRANCH  20  21
ENDBRANCH   2  20
BRANCH   1  30
HETATM   30  C   UNL     1      -6.379   0.564 -31.435  1.00  0.00     0.144 C 
BRANCH  30  31
HETATM   31  C   UNL     1      -5.457  -0.434 -32.069  1.00  0.00    -0.021 A 
HETATM   32  C   UNL     1      -5.692  -1.375 -33.129  1.00  0.00    -0.001 A 
HETATM   33  C   UNL     1      -6.804  -1.727 -33.925  1.00  0.00     0.014 A 
HETATM   34  C   UNL     1      -4.481  -2.027 -33.382  1.00  0.00     0.042 A 
HETATM   35  C   UNL     1      -6.660  -2.676 -34.945  1.00  0.00     0.001 A 
HETATM   36  C   UNL     1      -5.436  -3.293 -35.174  1.00  0.00     0.002 A 
HETATM   37  C   UNL     1      -4.323  -2.986 -34.389  1.00  0.00     0.030 A 
HETATM   38  N   UNL     1      -3.561  -1.544 -32.484  1.00  0.00    -0.365 N 
HETATM   39  H   UNL     1      -2.599  -1.851 -32.429  1.00  0.00     0.165 HD
HETATM   40  C   UNL     1      -4.132  -0.588 -31.695  1.00  0.00     0.097 A 
ENDBRANCH  30  31
ENDBRANCH   1  30
TORSDOF 8
ENDMDL
MODEL 8
REMARK VINA RESULT:      -8.9      2.189      4.279
REMARK  8 active torsions:
REMARK  status: ('A' for Active; 'I' for Inactive)
REMARK    1  A    between atoms: C_8  and  C_9 
REMARK    2  A    between atoms: C_9  and  C_10 
REMARK       I    between atoms: C_10  and  N_11 
REMARK    3  A    between atoms: N_11  and  C_12 
REMARK    4  A    between atoms: N_11  and  C_27 
REMARK    5  A    between atoms: C_12  and  C_13 
REMARK    6  A    between atoms: C_12  and  C_22 
REMARK       I    between atoms: C_13  and  N_14 
REMARK    7  A    between atoms: N_14  and  C_15 
REMARK    8  A    between atoms: C_27  and  C_28 
ROOT
HETATM    1  C   UNL     1      -5.860   1.804 -31.056  1.00  0.00     0.225 C 
HETATM    2  N   UNL     1      -5.174   2.884 -31.625  1.00  0.00    -0.330 N 
HETATM    3  O   UNL     1      -7.081   1.832 -30.874  1.00  0.00    -0.273 OA
ENDROOT
BRANCH   2   4
HETATM    4  C   UNL     1      -5.972   4.076 -31.990  1.00  0.00     0.219 C 
BRANCH   4   5
HETATM    5  C   UNL     1      -6.789   3.846 -33.293  1.00  0.00     0.246 C 
HETATM    6  N   UNL     1      -7.986   3.166 -33.167  1.00  0.00    -0.354 N 
HETATM    7  H   UNL     1      -8.000   2.539 -32.365  1.00  0.00     0.162 HD
HETATM    8  O   UNL     1      -6.328   4.177 -34.388  1.00  0.00    -0.271 OA
BRANCH   6   9
HETATM    9  C   UNL     1      -8.773   2.737 -34.321  1.00  0.00     0.084 C 
HETATM   10  C   UNL     1      -9.102   1.239 -34.206  1.00  0.00     0.025 C 
HETATM   11  C   UNL     1     -10.138   0.943 -33.119  1.00  0.00     0.002 C 
HETATM   12  C   UNL     1     -11.408   1.764 -33.314  1.00  0.00     0.000 C 
HETATM   13  C   UNL     1     -11.103   3.255 -33.412  1.00  0.00     0.002 C 
HETATM   14  C   UNL     1     -10.072   3.543 -34.502  1.00  0.00     0.025 C 
ENDBRANCH   6   9
ENDBRANCH   4   5
BRANCH   4  15
HETATM   15  C   UNL     1      -6.762   4.657 -30.824  1.00  0.00     0.014 A 
HETATM   16  S   UNL     1      -5.945   4.930 -29.326  1.00  0.00    -0.104 SA
HETATM   17  C   UNL     1      -7.357   5.524 -28.573  1.00  0.00     0.050 A 
HETATM   18  C   UNL     1      -8.441   5.497 -29.416  1.00  0.00     0.008 A 
HETATM   19  C   UNL     1      -8.104   4.986 -30.703  1.00  0.00     0.017 A 
ENDBRANCH   4  15
ENDBRANCH   2   4
BRANCH   2  20
HETATM   20  C   UNL     1      -3.948   2.657 -32.398  1.00  0.00     0.165 C 
BRANCH  20  21
HETATM   21  C   UNL     1      -2.982   3.818 -32.410  1.00  0.00    -0.037 A 
HETATM   22  C   UNL     1      -2.373   4.244 -31.219  1.00  0.00     0.048 A 
HETATM   23  C   UNL     1      -1.453   5.269 -31.293  1.00  0.00     0.105 A 
HETATM   24  C   UNL     1      -1.138   5.878 -32.485  1.00  0.00     0.105 A 
HETATM   25  O   UNL     1      -0.752   5.783 -30.247  1.00  0.00    -0.323 OA
HETATM   26  O   UNL     1      -0.202   6.853 -32.340  1.00  0.00    -0.323 OA
HETATM   27  C   UNL     1      -1.726   5.499 -33.672  1.00  0.00     0.040 A 
HETATM   28  C   UNL     1       0.057   6.769 -30.923  1.00  0.00     0.352 A 
HETATM   29  C   UNL     1      -2.654   4.456 -33.631  1.00  0.00     0.012 A 
ENDBRANCH  20  21
ENDBRANCH   2  20
BRANCH   1  30
HETATM   30  C   UNL     1      -5.055   0.625 -30.529  1.00  0.00     0.144 C 
BRANCH  30  31
HETATM   31  C   UNL     1      -4.578  -0.390 -31.525  1.00  0.00    -0.021 A 
HETATM   32  C   UNL     1      -5.278  -1.039 -32.599  1.00  0.00    -0.001 A 
HETATM   33  C   UNL     1      -6.598  -1.002 -33.097  1.00  0.00     0.014 A 
HETATM   34  C   UNL     1      -4.356  -1.853 -33.263  1.00  0.00     0.042 A 
HETATM   35  C   UNL     1      -6.934  -1.741 -34.239  1.00  0.00     0.001 A 
HETATM   36  C   UNL     1      -5.985  -2.530 -34.880  1.00  0.00     0.002 A 
HETATM   37  C   UNL     1      -4.678  -2.608 -34.397  1.00  0.00     0.030 A 
HETATM   38  N   UNL     1      -3.161  -1.747 -32.595  1.00  0.00    -0.365 N 
HETATM   39  H   UNL     1      -2.316  -2.241 -32.851  1.00  0.00     0.165 HD
HETATM   40  C   UNL     1      -3.280  -0.871 -31.555  1.00  0.00     0.097 A 
ENDBRANCH  30  31
ENDBRANCH   1  30
TORSDOF 8
ENDMDL
MODEL 9
REMARK VINA RESULT:      -8.8      2.787      7.024
REMARK  8 active torsions:
REMARK  status: ('A' for Active; 'I' for Inactive)
REMARK    1  A    between atoms: C_8  and  C_9 
REMARK    2  A    between atoms: C_9  and  C_10 
REMARK       I    between atoms: C_10  and  N_11 
REMARK    3  A    between atoms: N_11  and  C_12 
REMARK    4  A    between atoms: N_11  and  C_27 
REMARK    5  A    between atoms: C_12  and  C_13 
REMARK    6  A    between atoms: C_12  and  C_22 
REMARK       I    between atoms: C_13  and  N_14 
REMARK    7  A    between atoms: N_14  and  C_15 
REMARK    8  A    between atoms: C_27  and  C_28 
ROOT
HETATM    1  C   UNL     1      -5.010   5.073 -33.559  1.00  0.00     0.225 C 
HETATM    2  N   UNL     1      -5.730   4.392 -32.570  1.00  0.00    -0.330 N 
HETATM    3  O   UNL     1      -5.542   5.916 -34.288  1.00  0.00    -0.273 OA
ENDROOT
BRANCH   2   4
HETATM    4  C   UNL     1      -7.170   4.713 -32.439  1.00  0.00     0.219 C 
BRANCH   4   5
HETATM    5  C   UNL     1      -8.068   3.529 -32.896  1.00  0.00     0.246 C 
HETATM    6  N   UNL     1      -7.461   2.538 -33.643  1.00  0.00    -0.354 N 
HETATM    7  H   UNL     1      -6.652   2.875 -34.162  1.00  0.00     0.162 HD
HETATM    8  O   UNL     1      -9.281   3.541 -32.672  1.00  0.00    -0.271 OA
BRANCH   6   9
HETATM    9  C   UNL     1      -8.212   1.455 -34.274  1.00  0.00     0.084 C 
HETATM   10  C   UNL     1      -7.309   0.690 -35.257  1.00  0.00     0.025 C 
HETATM   11  C   UNL     1      -6.257  -0.165 -34.548  1.00  0.00     0.002 C 
HETATM   12  C   UNL     1      -6.892  -1.118 -33.540  1.00  0.00     0.000 C 
HETATM   13  C   UNL     1      -7.778  -0.375 -32.547  1.00  0.00     0.002 C 
HETATM   14  C   UNL     1      -8.828   0.474 -33.261  1.00  0.00     0.025 C 
ENDBRANCH   6   9
ENDBRANCH   4   5
BRANCH   4  15
HETATM   15  C   UNL     1      -7.534   5.322 -31.090  1.00  0.00     0.014 A 
HETATM   16  S   UNL     1      -7.215   6.999 -30.826  1.00  0.00    -0.104 SA
HETATM   17  C   UNL     1      -7.826   6.945 -29.233  1.00  0.00     0.050 A 
HETATM   18  C   UNL     1      -8.242   5.684 -28.883  1.00  0.00     0.008 A 
HETATM   19  C   UNL     1      -8.061   4.749 -29.943  1.00  0.00     0.017 A 
ENDBRANCH   4  15
ENDBRANCH   2   4
BRANCH   2  20
HETATM   20  C   UNL     1      -5.055   3.917 -31.358  1.00  0.00     0.165 C 
BRANCH  20  21
HETATM   21  C   UNL     1      -4.811   2.427 -31.311  1.00  0.00    -0.037 A 
HETATM   22  C   UNL     1      -3.936   1.824 -32.229  1.00  0.00     0.048 A 
HETATM   23  C   UNL     1      -3.701   0.470 -32.106  1.00  0.00     0.105 A 
HETATM   24  C   UNL     1      -4.306  -0.287 -31.130  1.00  0.00     0.105 A 
HETATM   25  O   UNL     1      -2.865  -0.265 -32.888  1.00  0.00    -0.323 OA
HETATM   26  O   UNL     1      -3.929  -1.592 -31.176  1.00  0.00    -0.323 OA
HETATM   27  C   UNL     1      -5.183   0.265 -30.222  1.00  0.00     0.040 A 
HETATM   28  C   UNL     1      -2.996  -1.565 -32.276  1.00  0.00     0.352 A 
HETATM   29  C   UNL     1      -5.432   1.637 -30.314  1.00  0.00     0.012 A 
ENDBRANCH  20  21
ENDBRANCH   2  20
BRANCH   1  30
HETATM   30  C   UNL     1      -3.569   4.662 -33.825  1.00  0.00     0.144 C 
BRANCH  30  31
HETATM   31  C   UNL     1      -2.488   5.613 -33.408  1.00  0.00    -0.021 A 
HETATM   32  C   UNL     1      -1.582   5.561 -32.294  1.00  0.00    -0.001 A 
HETATM   33  C   UNL     1      -1.376   4.675 -31.215  1.00  0.00     0.014 A 
HETATM   34  C   UNL     1      -0.731   6.666 -32.399  1.00  0.00     0.042 A 
HETATM   35  C   UNL     1      -0.326   4.903 -30.316  1.00  0.00     0.001 A 
HETATM   36  C   UNL     1       0.507   6.006 -30.460  1.00  0.00     0.002 A 
HETATM   37  C   UNL     1       0.314   6.915 -31.502  1.00  0.00     0.030 A 
HETATM   38  N   UNL     1      -1.130   7.387 -33.496  1.00  0.00    -0.365 N 
HETATM   39  H   UNL     1      -0.697   8.248 -33.804  1.00  0.00     0.165 HD
HETATM   40  C   UNL     1      -2.178   6.766 -34.112  1.00  0.00     0.097 A 
ENDBRANCH  30  31
ENDBRANCH   1  30
TORSDOF 8
ENDMDL
MODEL 10
REMARK VINA RESULT:      -8.7      2.359      5.196
REMARK  8 active torsions:
REMARK  status: ('A' for Active; 'I' for Inactive)
REMARK    1  A    between atoms: C_8  and  C_9 
REMARK    2  A    between atoms: C_9  and  C_10 
REMARK       I    between atoms: C_10  and  N_11 
REMARK    3  A    between atoms: N_11  and  C_12 
REMARK    4  A    between atoms: N_11  and  C_27 
REMARK    5  A    between atoms: C_12  and  C_13 
REMARK    6  A    between atoms: C_12  and  C_22 
REMARK       I    between atoms: C_13  and  N_14 
REMARK    7  A    between atoms: N_14  and  C_15 
REMARK    8  A    between atoms: C_27  and  C_28 
ROOT
HETATM    1  C   UNL     1      -5.779   1.915 -32.957  1.00  0.00     0.225 C 
HETATM    2  N   UNL     1      -6.719   2.807 -32.428  1.00  0.00    -0.330 N 
HETATM    3  O   UNL     1      -4.568   2.158 -32.937  1.00  0.00    -0.273 OA
ENDROOT
BRANCH   2   4
HETATM    4  C   UNL     1      -6.205   4.071 -31.852  1.00  0.00     0.219 C 
BRANCH   4   5
HETATM    5  C   UNL     1      -5.424   4.907 -32.904  1.00  0.00     0.246 C 
HETATM    6  N   UNL     1      -4.190   5.398 -32.520  1.00  0.00    -0.354 N 
HETATM    7  H   UNL     1      -4.115   5.532 -31.514  1.00  0.00     0.162 HD
HETATM    8  O   UNL     1      -5.940   5.188 -33.989  1.00  0.00    -0.271 OA
BRANCH   6   9
HETATM    9  C   UNL     1      -3.423   6.330 -33.342  1.00  0.00     0.084 C 
HETATM   10  C   UNL     1      -2.872   7.472 -32.470  1.00  0.00     0.025 C 
HETATM   11  C   UNL     1      -1.738   7.016 -31.549  1.00  0.00     0.002 C 
HETATM   12  C   UNL     1      -0.616   6.340 -32.330  1.00  0.00     0.000 C 
HETATM   13  C   UNL     1      -1.141   5.194 -33.188  1.00  0.00     0.002 C 
HETATM   14  C   UNL     1      -2.269   5.657 -34.108  1.00  0.00     0.025 C 
ENDBRANCH   6   9
ENDBRANCH   4   5
BRANCH   4  15
HETATM   15  C   UNL     1      -7.250   4.842 -31.055  1.00  0.00     0.014 A 
HETATM   16  S   UNL     1      -7.271   4.670 -29.335  1.00  0.00    -0.104 SA
HETATM   17  C   UNL     1      -8.600   5.729 -29.168  1.00  0.00     0.050 A 
HETATM   18  C   UNL     1      -9.048   6.191 -30.382  1.00  0.00     0.008 A 
HETATM   19  C   UNL     1      -8.283   5.670 -31.466  1.00  0.00     0.017 A 
ENDBRANCH   4  15
ENDBRANCH   2   4
BRANCH   2  20
HETATM   20  C   UNL     1      -7.986   2.309 -31.882  1.00  0.00     0.165 C 
BRANCH  20  21
HETATM   21  C   UNL     1      -9.137   2.294 -32.861  1.00  0.00    -0.037 A 
HETATM   22  C   UNL     1     -10.143   1.321 -32.755  1.00  0.00     0.048 A 
HETATM   23  C   UNL     1     -11.202   1.387 -33.635  1.00  0.00     0.105 A 
HETATM   24  C   UNL     1     -11.284   2.359 -34.603  1.00  0.00     0.105 A 
HETATM   25  O   UNL     1     -12.272   0.546 -33.654  1.00  0.00    -0.323 OA
HETATM   26  O   UNL     1     -12.411   2.253 -35.355  1.00  0.00    -0.323 OA
HETATM   27  C   UNL     1     -10.308   3.322 -34.750  1.00  0.00     0.040 A 
HETATM   28  C   UNL     1     -13.045   1.117 -34.731  1.00  0.00     0.352 A 
HETATM   29  C   UNL     1      -9.227   3.288 -33.865  1.00  0.00     0.012 A 
ENDBRANCH  20  21
ENDBRANCH   2  20
BRANCH   1  30
HETATM   30  C   UNL     1      -6.279   0.680 -33.693  1.00  0.00     0.144 C 
BRANCH  30  31
HETATM   31  C   UNL     1      -5.433  -0.556 -33.628  1.00  0.00    -0.021 A 
HETATM   32  C   UNL     1      -5.712  -1.897 -34.059  1.00  0.00    -0.001 A 
HETATM   33  C   UNL     1      -6.816  -2.547 -34.652  1.00  0.00     0.014 A 
HETATM   34  C   UNL     1      -4.561  -2.657 -33.824  1.00  0.00     0.042 A 
HETATM   35  C   UNL     1      -6.721  -3.897 -35.011  1.00  0.00     0.001 A 
HETATM   36  C   UNL     1      -5.556  -4.616 -34.773  1.00  0.00     0.002 A 
HETATM   37  C   UNL     1      -4.455  -4.010 -34.166  1.00  0.00     0.030 A 
HETATM   38  N   UNL     1      -3.640  -1.831 -33.230  1.00  0.00    -0.365 N 
HETATM   39  H   UNL     1      -2.717  -2.121 -32.937  1.00  0.00     0.165 HD
HETATM   40  C   UNL     1      -4.147  -0.570 -33.110  1.00  0.00     0.097 A 
ENDBRANCH  30  31
ENDBRANCH   1  30
TORSDOF 8
ENDMDL
