MODEL 1
REMARK VINA RESULT:      -7.9      0.000      0.000
REMARK  3 active torsions:
REMARK  status: ('A' for Active; 'I' for Inactive)
REMARK    1  A    between atoms: C_2  and  N_3 
REMARK       I    between atoms: N_3  and  C_4 
REMARK    2  A    between atoms: C_4  and  C_5 
REMARK    3  A    between atoms: C_5  and  C_6 
ROOT
HETATM    1  C   UNL     1      -9.169   1.162 -32.198  1.00  0.00     0.286 C 
HETATM    2  N   UNL     1      -9.514   1.096 -33.683  1.00  0.00    -0.056 N 
HETATM    3  H   UNL     1      -8.903   1.811 -34.134  1.00  0.00     0.278 HD
HETATM    4  H   UNL     1      -9.245   0.193 -34.091  1.00  0.00     0.278 HD
HETATM    5  C   UNL     1     -10.938   1.445 -34.014  1.00  0.00     0.209 C 
HETATM    6  C   UNL     1     -11.281   2.825 -33.402  1.00  0.00     0.115 C 
HETATM    7  N   UNL     1     -10.905   2.933 -31.993  1.00  0.00    -0.353 N 
HETATM    8  C   UNL     1      -9.734   2.411 -31.492  1.00  0.00     0.249 C 
HETATM    9  O   UNL     1      -9.241   2.873 -30.468  1.00  0.00    -0.271 OA
HETATM   10  C   UNL     1     -11.875   0.327 -33.551  1.00  0.00     0.035 C 
HETATM   11  C   UNL     1     -13.334   0.701 -33.797  1.00  0.00     0.002 C 
HETATM   12  C   UNL     1     -13.688   2.032 -33.138  1.00  0.00     0.002 C 
HETATM   13  C   UNL     1     -12.764   3.157 -33.604  1.00  0.00     0.027 C 
HETATM   14  H   UNL     1     -11.190   3.774 -31.494  1.00  0.00     0.163 HD
ENDROOT
BRANCH   1  15
HETATM   15  C   UNL     1      -7.654   1.024 -31.982  1.00  0.00     0.146 C 
BRANCH  15  16
HETATM   16  C   UNL     1      -6.894   1.575 -33.161  1.00  0.00     0.224 C 
HETATM   17  N   UNL     1      -6.146   0.793 -33.980  1.00  0.00    -0.327 N 
HETATM   18  H   UNL     1      -5.615   1.350 -34.644  1.00  0.00     0.169 HD
HETATM   19  O   UNL     1      -6.995   2.785 -33.411  1.00  0.00    -0.273 OA
BRANCH  17  20
HETATM   20  C   UNL     1      -5.972  -0.600 -34.111  1.00  0.00     0.034 A 
HETATM   21  C   UNL     1      -6.913  -1.492 -34.628  1.00  0.00     0.031 A 
HETATM   22  C   UNL     1      -6.613  -2.858 -34.744  1.00  0.00     0.026 A 
HETATM   23  C   UNL     1      -5.369  -3.339 -34.350  1.00  0.00     0.034 A 
HETATM   24  C   UNL     1      -4.418  -2.465 -33.840  1.00  0.00     0.026 A 
HETATM   25 CL   UNL     1      -5.009  -5.011 -34.508  1.00  0.00    -0.084 Cl
HETATM   26  C   UNL     1      -4.719  -1.104 -33.727  1.00  0.00     0.031 A 
ENDBRANCH  17  20
ENDBRANCH  15  16
ENDBRANCH   1  15
TORSDOF 3
ENDMDL
MODEL 2
REMARK VINA RESULT:      -7.6      3.953      6.495
REMARK  3 active torsions:
REMARK  status: ('A' for Active; 'I' for Inactive)
REMARK    1  A    between atoms: C_2  and  N_3 
REMARK       I    between atoms: N_3  and  C_4 
REMARK    2  A    between atoms: C_4  and  C_5 
REMARK    3  A    between atoms: C_5  and  C_6 
ROOT
HETATM    1  C   UNL     1      -5.174   3.791 -33.671  1.00  0.00     0.286 C 
HETATM    2  N   UNL     1      -3.923   3.497 -32.849  1.00  0.00    -0.056 N 
HETATM    3  H   UNL     1      -4.266   3.359 -31.874  1.00  0.00     0.278 HD
HETATM    4  H   UNL     1      -3.492   2.607 -33.127  1.00  0.00     0.278 HD
HETATM    5  C   UNL     1      -2.912   4.608 -32.820  1.00  0.00     0.209 C 
HETATM    6  C   UNL     1      -3.605   5.917 -32.367  1.00  0.00     0.115 C 
HETATM    7  N   UNL     1      -4.840   6.190 -33.100  1.00  0.00    -0.353 N 
HETATM    8  C   UNL     1      -5.742   5.206 -33.437  1.00  0.00     0.249 C 
HETATM    9  O   UNL     1      -6.918   5.488 -33.638  1.00  0.00    -0.271 OA
HETATM   10  C   UNL     1      -2.223   4.729 -34.181  1.00  0.00     0.035 C 
HETATM   11  C   UNL     1      -1.256   5.910 -34.201  1.00  0.00     0.002 C 
HETATM   12  C   UNL     1      -1.957   7.211 -33.815  1.00  0.00     0.002 C 
HETATM   13  C   UNL     1      -2.639   7.104 -32.452  1.00  0.00     0.027 C 
HETATM   14  H   UNL     1      -5.300   7.083 -32.929  1.00  0.00     0.163 HD
ENDROOT
BRANCH   1  15
HETATM   15  C   UNL     1      -6.241   2.708 -33.451  1.00  0.00     0.146 C 
BRANCH  15  16
HETATM   16  C   UNL     1      -6.100   2.089 -32.084  1.00  0.00     0.224 C 
HETATM   17  N   UNL     1      -6.018   0.748 -31.891  1.00  0.00    -0.327 N 
HETATM   18  H   UNL     1      -6.047   0.512 -30.903  1.00  0.00     0.169 HD
HETATM   19  O   UNL     1      -6.014   2.844 -31.104  1.00  0.00    -0.273 OA
BRANCH  17  20
HETATM   20  C   UNL     1      -5.886  -0.357 -32.757  1.00  0.00     0.034 A 
HETATM   21  C   UNL     1      -4.694  -1.025 -33.046  1.00  0.00     0.031 A 
HETATM   22  C   UNL     1      -4.691  -2.140 -33.897  1.00  0.00     0.026 A 
HETATM   23  C   UNL     1      -5.878  -2.599 -34.459  1.00  0.00     0.034 A 
HETATM   24  C   UNL     1      -7.073  -1.951 -34.176  1.00  0.00     0.026 A 
HETATM   25 CL   UNL     1      -5.863  -3.972 -35.490  1.00  0.00    -0.084 Cl
HETATM   26  C   UNL     1      -7.075  -0.840 -33.326  1.00  0.00     0.031 A 
ENDBRANCH  17  20
ENDBRANCH  15  16
ENDBRANCH   1  15
TORSDOF 3
ENDMDL
MODEL 3
REMARK VINA RESULT:      -7.4      1.784      2.670
REMARK  3 active torsions:
REMARK  status: ('A' for Active; 'I' for Inactive)
REMARK    1  A    between atoms: C_2  and  N_3 
REMARK       I    between atoms: N_3  and  C_4 
REMARK    2  A    between atoms: C_4  and  C_5 
REMARK    3  A    between atoms: C_5  and  C_6 
ROOT
HETATM    1  C   UNL     1      -7.232   2.189 -33.713  1.00  0.00     0.286 C 
HETATM    2  N   UNL     1      -7.940   2.093 -32.365  1.00  0.00    -0.056 N 
HETATM    3  H   UNL     1      -7.620   1.189 -31.955  1.00  0.00     0.278 HD
HETATM    4  H   UNL     1      -7.621   2.826 -31.721  1.00  0.00     0.278 HD
HETATM    5  C   UNL     1      -9.441   2.047 -32.444  1.00  0.00     0.209 C 
HETATM    6  C   UNL     1      -9.867   0.908 -33.402  1.00  0.00     0.115 C 
HETATM    7  N   UNL     1      -9.157   0.944 -34.680  1.00  0.00    -0.353 N 
HETATM    8  C   UNL     1      -7.818   1.244 -34.782  1.00  0.00     0.249 C 
HETATM    9  O   UNL     1      -7.168   0.851 -35.745  1.00  0.00    -0.271 OA
HETATM   10  C   UNL     1      -9.988   3.417 -32.850  1.00  0.00     0.035 C 
HETATM   11  C   UNL     1     -11.504   3.369 -33.023  1.00  0.00     0.002 C 
HETATM   12  C   UNL     1     -11.918   2.287 -34.018  1.00  0.00     0.002 C 
HETATM   13  C   UNL     1     -11.385   0.913 -33.614  1.00  0.00     0.027 C 
HETATM   14  H   UNL     1      -9.455   0.289 -35.401  1.00  0.00     0.163 HD
ENDROOT
BRANCH   1  15
HETATM   15  C   UNL     1      -5.717   1.992 -33.550  1.00  0.00     0.146 C 
BRANCH  15  16
HETATM   16  C   UNL     1      -5.403   1.327 -32.235  1.00  0.00     0.224 C 
HETATM   17  N   UNL     1      -5.483  -0.017 -32.056  1.00  0.00    -0.327 N 
HETATM   18  H   UNL     1      -5.352  -0.270 -31.080  1.00  0.00     0.169 HD
HETATM   19  O   UNL     1      -5.016   2.037 -31.296  1.00  0.00    -0.273 OA
BRANCH  17  20
HETATM   20  C   UNL     1      -5.688  -1.107 -32.925  1.00  0.00     0.034 A 
HETATM   21  C   UNL     1      -6.927  -1.564 -33.378  1.00  0.00     0.031 A 
HETATM   22  C   UNL     1      -7.005  -2.641 -34.275  1.00  0.00     0.026 A 
HETATM   23  C   UNL     1      -5.847  -3.262 -34.729  1.00  0.00     0.034 A 
HETATM   24  C   UNL     1      -4.606  -2.816 -34.294  1.00  0.00     0.026 A 
HETATM   25 CL   UNL     1      -5.954  -4.571 -35.835  1.00  0.00    -0.084 Cl
HETATM   26  C   UNL     1      -4.530  -1.742 -33.401  1.00  0.00     0.031 A 
ENDBRANCH  17  20
ENDBRANCH  15  16
ENDBRANCH   1  15
TORSDOF 3
ENDMDL
MODEL 4
REMARK VINA RESULT:      -7.4      5.906      7.933
REMARK  3 active torsions:
REMARK  status: ('A' for Active; 'I' for Inactive)
REMARK    1  A    between atoms: C_2  and  N_3 
REMARK       I    between atoms: N_3  and  C_4 
REMARK    2  A    between atoms: C_4  and  C_5 
REMARK    3  A    between atoms: C_5  and  C_6 
ROOT
HETATM    1  C   UNL     1      -4.922   3.444 -33.323  1.00  0.00     0.286 C 
HETATM    2  N   UNL     1      -6.420   3.192 -33.185  1.00  0.00    -0.056 N 
HETATM    3  H   UNL     1      -6.676   3.589 -32.255  1.00  0.00     0.278 HD
HETATM    4  H   UNL     1      -6.956   3.726 -33.879  1.00  0.00     0.278 HD
HETATM    5  C   UNL     1      -6.817   1.743 -33.182  1.00  0.00     0.209 C 
HETATM    6  C   UNL     1      -6.003   0.993 -32.099  1.00  0.00     0.115 C 
HETATM    7  N   UNL     1      -4.569   1.265 -32.174  1.00  0.00    -0.353 N 
HETATM    8  C   UNL     1      -4.060   2.516 -32.443  1.00  0.00     0.249 C 
HETATM    9  O   UNL     1      -2.928   2.814 -32.077  1.00  0.00    -0.271 OA
HETATM   10  C   UNL     1      -6.652   1.149 -34.583  1.00  0.00     0.035 C 
HETATM   11  C   UNL     1      -6.965  -0.345 -34.583  1.00  0.00     0.002 C 
HETATM   12  C   UNL     1      -6.115  -1.093 -33.558  1.00  0.00     0.002 C 
HETATM   13  C   UNL     1      -6.282  -0.514 -32.154  1.00  0.00     0.027 C 
HETATM   14  H   UNL     1      -3.956   0.731 -31.560  1.00  0.00     0.163 HD
ENDROOT
BRANCH   1  15
HETATM   15  C   UNL     1      -4.591   4.925 -33.079  1.00  0.00     0.146 C 
BRANCH  15  16
HETATM   16  C   UNL     1      -3.738   5.472 -34.195  1.00  0.00     0.224 C 
HETATM   17  N   UNL     1      -2.575   6.136 -33.970  1.00  0.00    -0.327 N 
HETATM   18  H   UNL     1      -2.201   6.531 -34.828  1.00  0.00     0.169 HD
HETATM   19  O   UNL     1      -4.097   5.267 -35.363  1.00  0.00    -0.273 OA
BRANCH  17  20
HETATM   20  C   UNL     1      -1.789   6.368 -32.823  1.00  0.00     0.034 A 
HETATM   21  C   UNL     1      -0.759   5.545 -32.364  1.00  0.00     0.031 A 
HETATM   22  C   UNL     1      -0.017   5.899 -31.227  1.00  0.00     0.026 A 
HETATM   23  C   UNL     1      -0.295   7.079 -30.546  1.00  0.00     0.034 A 
HETATM   24  C   UNL     1      -1.311   7.913 -30.994  1.00  0.00     0.026 A 
HETATM   25 CL   UNL     1       0.628   7.508 -29.162  1.00  0.00    -0.084 Cl
HETATM   26  C   UNL     1      -2.048   7.560 -32.128  1.00  0.00     0.031 A 
ENDBRANCH  17  20
ENDBRANCH  15  16
ENDBRANCH   1  15
TORSDOF 3
ENDMDL
MODEL 5
REMARK VINA RESULT:      -7.4      4.305      6.982
REMARK  3 active torsions:
REMARK  status: ('A' for Active; 'I' for Inactive)
REMARK    1  A    between atoms: C_2  and  N_3 
REMARK       I    between atoms: N_3  and  C_4 
REMARK    2  A    between atoms: C_4  and  C_5 
REMARK    3  A    between atoms: C_5  and  C_6 
ROOT
HETATM    1  C   UNL     1      -4.210   4.261 -31.147  1.00  0.00     0.286 C 
HETATM    2  N   UNL     1      -4.854   5.219 -32.144  1.00  0.00    -0.056 N 
HETATM    3  H   UNL     1      -5.542   4.638 -32.670  1.00  0.00     0.278 HD
HETATM    4  H   UNL     1      -5.402   5.944 -31.667  1.00  0.00     0.278 HD
HETATM    5  C   UNL     1      -3.907   5.817 -33.145  1.00  0.00     0.209 C 
HETATM    6  C   UNL     1      -3.131   4.681 -33.856  1.00  0.00     0.115 C 
HETATM    7  N   UNL     1      -2.553   3.716 -32.921  1.00  0.00    -0.353 N 
HETATM    8  C   UNL     1      -3.214   3.278 -31.796  1.00  0.00     0.249 C 
HETATM    9  O   UNL     1      -2.930   2.196 -31.295  1.00  0.00    -0.271 OA
HETATM   10  C   UNL     1      -2.995   6.838 -32.462  1.00  0.00     0.035 C 
HETATM   11  C   UNL     1      -1.965   7.392 -33.443  1.00  0.00     0.002 C 
HETATM   12  C   UNL     1      -1.156   6.273 -34.095  1.00  0.00     0.002 C 
HETATM   13  C   UNL     1      -2.059   5.254 -34.790  1.00  0.00     0.027 C 
HETATM   14  H   UNL     1      -1.943   2.996 -33.307  1.00  0.00     0.163 HD
ENDROOT
BRANCH   1  15
HETATM   15  C   UNL     1      -5.279   3.525 -30.324  1.00  0.00     0.146 C 
BRANCH  15  16
HETATM   16  C   UNL     1      -6.626   3.618 -30.995  1.00  0.00     0.224 C 
HETATM   17  N   UNL     1      -7.059   2.702 -31.899  1.00  0.00    -0.327 N 
HETATM   18  H   UNL     1      -7.933   2.990 -32.330  1.00  0.00     0.169 HD
HETATM   19  O   UNL     1      -7.379   4.547 -30.671  1.00  0.00    -0.273 OA
BRANCH  17  20
HETATM   20  C   UNL     1      -6.568   1.456 -32.338  1.00  0.00     0.034 A 
HETATM   21  C   UNL     1      -6.162   0.405 -31.513  1.00  0.00     0.031 A 
HETATM   22  C   UNL     1      -5.726  -0.808 -32.066  1.00  0.00     0.026 A 
HETATM   23  C   UNL     1      -5.698  -0.981 -33.446  1.00  0.00     0.034 A 
HETATM   24  C   UNL     1      -6.105   0.051 -34.281  1.00  0.00     0.026 A 
HETATM   25 CL   UNL     1      -5.172  -2.475 -34.112  1.00  0.00    -0.084 Cl
HETATM   26  C   UNL     1      -6.542   1.259 -33.728  1.00  0.00     0.031 A 
ENDBRANCH  17  20
ENDBRANCH  15  16
ENDBRANCH   1  15
TORSDOF 3
ENDMDL
MODEL 6
REMARK VINA RESULT:      -7.3      4.372      7.142
REMARK  3 active torsions:
REMARK  status: ('A' for Active; 'I' for Inactive)
REMARK    1  A    between atoms: C_2  and  N_3 
REMARK       I    between atoms: N_3  and  C_4 
REMARK    2  A    between atoms: C_4  and  C_5 
REMARK    3  A    between atoms: C_5  and  C_6 
ROOT
HETATM    1  C   UNL     1      -6.090   1.664 -32.817  1.00  0.00     0.286 C 
HETATM    2  N   UNL     1      -6.891   0.449 -32.361  1.00  0.00    -0.056 N 
HETATM    3  H   UNL     1      -6.885   0.497 -31.319  1.00  0.00     0.278 HD
HETATM    4  H   UNL     1      -7.876   0.522 -32.643  1.00  0.00     0.278 HD
HETATM    5  C   UNL     1      -6.305  -0.877 -32.756  1.00  0.00     0.209 C 
HETATM    6  C   UNL     1      -4.832  -0.946 -32.281  1.00  0.00     0.115 C 
HETATM    7  N   UNL     1      -4.058   0.237 -32.656  1.00  0.00    -0.353 N 
HETATM    8  C   UNL     1      -4.570   1.513 -32.600  1.00  0.00     0.249 C 
HETATM    9  O   UNL     1      -3.819   2.475 -32.486  1.00  0.00    -0.271 OA
HETATM   10  C   UNL     1      -6.466  -1.096 -34.262  1.00  0.00     0.035 C 
HETATM   11  C   UNL     1      -5.797  -2.397 -34.699  1.00  0.00     0.002 C 
HETATM   12  C   UNL     1      -4.328  -2.435 -34.286  1.00  0.00     0.002 C 
HETATM   13  C   UNL     1      -4.157  -2.228 -32.781  1.00  0.00     0.027 C 
HETATM   14  H   UNL     1      -3.057   0.221 -32.468  1.00  0.00     0.163 HD
ENDROOT
BRANCH   1  15
HETATM   15  C   UNL     1      -6.630   2.950 -32.172  1.00  0.00     0.146 C 
BRANCH  15  16
HETATM   16  C   UNL     1      -7.286   3.830 -33.205  1.00  0.00     0.224 C 
HETATM   17  N   UNL     1      -6.657   4.894 -33.766  1.00  0.00    -0.327 N 
HETATM   18  H   UNL     1      -7.290   5.436 -34.348  1.00  0.00     0.169 HD
HETATM   19  O   UNL     1      -8.430   3.540 -33.582  1.00  0.00    -0.273 OA
BRANCH  17  20
HETATM   20  C   UNL     1      -5.334   5.380 -33.726  1.00  0.00     0.034 A 
HETATM   21  C   UNL     1      -4.786   6.162 -32.707  1.00  0.00     0.031 A 
HETATM   22  C   UNL     1      -3.441   6.557 -32.756  1.00  0.00     0.026 A 
HETATM   23  C   UNL     1      -2.634   6.168 -33.820  1.00  0.00     0.034 A 
HETATM   24  C   UNL     1      -3.160   5.385 -34.839  1.00  0.00     0.026 A 
HETATM   25 CL   UNL     1      -0.985   6.648 -33.865  1.00  0.00    -0.084 Cl
HETATM   26  C   UNL     1      -4.501   4.991 -34.787  1.00  0.00     0.031 A 
ENDBRANCH  17  20
ENDBRANCH  15  16
ENDBRANCH   1  15
TORSDOF 3
ENDMDL
MODEL 7
REMARK VINA RESULT:      -7.2      5.731      7.698
REMARK  3 active torsions:
REMARK  status: ('A' for Active; 'I' for Inactive)
REMARK    1  A    between atoms: C_2  and  N_3 
REMARK       I    between atoms: N_3  and  C_4 
REMARK    2  A    between atoms: C_4  and  C_5 
REMARK    3  A    between atoms: C_5  and  C_6 
ROOT
HETATM    1  C   UNL     1      -5.501   4.370 -32.939  1.00  0.00     0.286 C 
HETATM    2  N   UNL     1      -4.428   3.286 -32.894  1.00  0.00    -0.056 N 
HETATM    3  H   UNL     1      -4.045   3.245 -33.862  1.00  0.00     0.278 HD
HETATM    4  H   UNL     1      -3.645   3.560 -32.289  1.00  0.00     0.278 HD
HETATM    5  C   UNL     1      -4.934   1.914 -32.548  1.00  0.00     0.209 C 
HETATM    6  C   UNL     1      -6.091   1.540 -33.508  1.00  0.00     0.115 C 
HETATM    7  N   UNL     1      -7.104   2.590 -33.613  1.00  0.00    -0.353 N 
HETATM    8  C   UNL     1      -6.788   3.928 -33.666  1.00  0.00     0.249 C 
HETATM    9  O   UNL     1      -7.564   4.726 -34.181  1.00  0.00    -0.271 OA
HETATM   10  C   UNL     1      -5.329   1.854 -31.071  1.00  0.00     0.035 C 
HETATM   11  C   UNL     1      -5.928   0.495 -30.721  1.00  0.00     0.002 C 
HETATM   12  C   UNL     1      -7.110   0.157 -31.627  1.00  0.00     0.002 C 
HETATM   13  C   UNL     1      -6.723   0.203 -33.104  1.00  0.00     0.027 C 
HETATM   14  H   UNL     1      -7.946   2.377 -34.146  1.00  0.00     0.163 HD
ENDROOT
BRANCH   1  15
HETATM   15  C   UNL     1      -4.938   5.674 -33.525  1.00  0.00     0.146 C 
BRANCH  15  16
HETATM   16  C   UNL     1      -3.873   5.383 -34.550  1.00  0.00     0.224 C 
HETATM   17  N   UNL     1      -2.551   5.575 -34.308  1.00  0.00    -0.327 N 
HETATM   18  H   UNL     1      -1.996   5.439 -35.149  1.00  0.00     0.169 HD
HETATM   19  O   UNL     1      -4.222   4.909 -35.641  1.00  0.00    -0.273 OA
BRANCH  17  20
HETATM   20  C   UNL     1      -1.805   5.898 -33.157  1.00  0.00     0.034 A 
HETATM   21  C   UNL     1      -1.130   4.986 -32.343  1.00  0.00     0.031 A 
HETATM   22  C   UNL     1      -0.386   5.430 -31.239  1.00  0.00     0.026 A 
HETATM   23  C   UNL     1      -0.307   6.787 -30.946  1.00  0.00     0.034 A 
HETATM   24  C   UNL     1      -0.966   7.709 -31.748  1.00  0.00     0.026 A 
HETATM   25 CL   UNL     1       0.616   7.320 -29.599  1.00  0.00    -0.084 Cl
HETATM   26  C   UNL     1      -1.706   7.264 -32.849  1.00  0.00     0.031 A 
ENDBRANCH  17  20
ENDBRANCH  15  16
ENDBRANCH   1  15
TORSDOF 3
ENDMDL
MODEL 8
REMARK VINA RESULT:      -7.2      3.250      5.726
REMARK  3 active torsions:
REMARK  status: ('A' for Active; 'I' for Inactive)
REMARK    1  A    between atoms: C_2  and  N_3 
REMARK       I    between atoms: N_3  and  C_4 
REMARK    2  A    between atoms: C_4  and  C_5 
REMARK    3  A    between atoms: C_5  and  C_6 
ROOT
HETATM    1  C   UNL     1      -6.166   2.538 -31.915  1.00  0.00     0.286 C 
HETATM    2  N   UNL     1      -5.547   3.089 -33.196  1.00  0.00    -0.056 N 
HETATM    3  H   UNL     1      -5.170   2.254 -33.694  1.00  0.00     0.278 HD
HETATM    4  H   UNL     1      -6.262   3.491 -33.815  1.00  0.00     0.278 HD
HETATM    5  C   UNL     1      -4.406   4.043 -32.984  1.00  0.00     0.209 C 
HETATM    6  C   UNL     1      -3.347   3.377 -32.072  1.00  0.00     0.115 C 
HETATM    7  N   UNL     1      -3.925   2.789 -30.864  1.00  0.00    -0.353 N 
HETATM    8  C   UNL     1      -5.121   2.109 -30.865  1.00  0.00     0.249 C 
HETATM    9  O   UNL     1      -5.360   1.279 -29.994  1.00  0.00    -0.271 OA
HETATM   10  C   UNL     1      -4.926   5.374 -32.436  1.00  0.00     0.035 C 
HETATM   11  C   UNL     1      -3.774   6.326 -32.129  1.00  0.00     0.002 C 
HETATM   12  C   UNL     1      -2.763   5.691 -31.178  1.00  0.00     0.002 C 
HETATM   13  C   UNL     1      -2.229   4.366 -31.722  1.00  0.00     0.027 C 
HETATM   14  H   UNL     1      -3.280   2.421 -30.166  1.00  0.00     0.163 HD
ENDROOT
BRANCH   1  15
HETATM   15  C   UNL     1      -7.155   1.404 -32.228  1.00  0.00     0.146 C 
BRANCH  15  16
HETATM   16  C   UNL     1      -7.433   1.332 -33.707  1.00  0.00     0.224 C 
HETATM   17  N   UNL     1      -6.823   0.437 -34.525  1.00  0.00    -0.327 N 
HETATM   18  H   UNL     1      -7.044   0.614 -35.501  1.00  0.00     0.169 HD
HETATM   19  O   UNL     1      -8.286   2.096 -34.182  1.00  0.00    -0.273 OA
BRANCH  17  20
HETATM   20  C   UNL     1      -5.981  -0.672 -34.304  1.00  0.00     0.034 A 
HETATM   21  C   UNL     1      -4.790  -0.656 -33.575  1.00  0.00     0.031 A 
HETATM   22  C   UNL     1      -4.052  -1.835 -33.389  1.00  0.00     0.026 A 
HETATM   23  C   UNL     1      -4.502  -3.036 -33.925  1.00  0.00     0.034 A 
HETATM   24  C   UNL     1      -5.687  -3.072 -34.647  1.00  0.00     0.026 A 
HETATM   25 CL   UNL     1      -3.595  -4.475 -33.682  1.00  0.00    -0.084 Cl
HETATM   26  C   UNL     1      -6.423  -1.896 -34.830  1.00  0.00     0.031 A 
ENDBRANCH  17  20
ENDBRANCH  15  16
ENDBRANCH   1  15
TORSDOF 3
ENDMDL
MODEL 9
REMARK VINA RESULT:      -7.2      2.504      3.370
REMARK  3 active torsions:
REMARK  status: ('A' for Active; 'I' for Inactive)
REMARK    1  A    between atoms: C_2  and  N_3 
REMARK       I    between atoms: N_3  and  C_4 
REMARK    2  A    between atoms: C_4  and  C_5 
REMARK    3  A    between atoms: C_5  and  C_6 
ROOT
HETATM    1  C   UNL     1      -7.271   1.735 -31.440  1.00  0.00     0.286 C 
HETATM    2  N   UNL     1      -7.199   2.792 -30.343  1.00  0.00    -0.056 N 
HETATM    3  H   UNL     1      -7.303   2.263 -29.451  1.00  0.00     0.278 HD
HETATM    4  H   UNL     1      -6.271   3.232 -30.306  1.00  0.00     0.278 HD
HETATM    5  C   UNL     1      -8.292   3.823 -30.387  1.00  0.00     0.209 C 
HETATM    6  C   UNL     1      -9.665   3.108 -30.410  1.00  0.00     0.115 C 
HETATM    7  N   UNL     1      -9.740   2.049 -31.416  1.00  0.00    -0.353 N 
HETATM    8  C   UNL     1      -8.695   1.191 -31.674  1.00  0.00     0.249 C 
HETATM    9  O   UNL     1      -8.910   0.087 -32.164  1.00  0.00    -0.271 OA
HETATM   10  C   UNL     1      -8.079   4.765 -31.574  1.00  0.00     0.035 C 
HETATM   11  C   UNL     1      -9.227   5.764 -31.690  1.00  0.00     0.002 C 
HETATM   12  C   UNL     1     -10.577   5.055 -31.778  1.00  0.00     0.002 C 
HETATM   13  C   UNL     1     -10.803   4.120 -30.590  1.00  0.00     0.027 C 
HETATM   14  H   UNL     1     -10.643   1.602 -31.561  1.00  0.00     0.163 HD
ENDROOT
BRANCH   1  15
HETATM   15  C   UNL     1      -6.266   0.603 -31.177  1.00  0.00     0.146 C 
BRANCH  15  16
HETATM   16  C   UNL     1      -4.942   0.902 -31.831  1.00  0.00     0.224 C 
HETATM   17  N   UNL     1      -4.375   0.077 -32.749  1.00  0.00    -0.327 N 
HETATM   18  H   UNL     1      -3.435   0.380 -32.989  1.00  0.00     0.169 HD
HETATM   19  O   UNL     1      -4.374   1.966 -31.546  1.00  0.00    -0.273 OA
BRANCH  17  20
HETATM   20  C   UNL     1      -4.817  -1.073 -33.434  1.00  0.00     0.034 A 
HETATM   21  C   UNL     1      -4.134  -2.288 -33.507  1.00  0.00     0.031 A 
HETATM   22  C   UNL     1      -4.692  -3.380 -34.189  1.00  0.00     0.026 A 
HETATM   23  C   UNL     1      -5.938  -3.266 -34.796  1.00  0.00     0.034 A 
HETATM   24  C   UNL     1      -6.635  -2.067 -34.727  1.00  0.00     0.026 A 
HETATM   25 CL   UNL     1      -6.617  -4.612 -35.618  1.00  0.00    -0.084 Cl
HETATM   26  C   UNL     1      -6.078  -0.980 -34.045  1.00  0.00     0.031 A 
ENDBRANCH  17  20
ENDBRANCH  15  16
ENDBRANCH   1  15
TORSDOF 3
ENDMDL
MODEL 10
REMARK VINA RESULT:      -7.1      6.790      8.736
REMARK  3 active torsions:
REMARK  status: ('A' for Active; 'I' for Inactive)
REMARK    1  A    between atoms: C_2  and  N_3 
REMARK       I    between atoms: N_3  and  C_4 
REMARK    2  A    between atoms: C_4  and  C_5 
REMARK    3  A    between atoms: C_5  and  C_6 
ROOT
HETATM    1  C   UNL     1      -4.139   4.200 -31.687  1.00  0.00     0.286 C 
HETATM    2  N   UNL     1      -3.372   2.974 -31.200  1.00  0.00    -0.056 N 
HETATM    3  H   UNL     1      -2.604   2.844 -31.893  1.00  0.00     0.278 HD
HETATM    4  H   UNL     1      -2.915   3.151 -30.298  1.00  0.00     0.278 HD
HETATM    5  C   UNL     1      -4.173   1.703 -31.169  1.00  0.00     0.209 C 
HETATM    6  C   UNL     1      -4.814   1.469 -32.559  1.00  0.00     0.115 C 
HETATM    7  N   UNL     1      -5.505   2.651 -33.073  1.00  0.00    -0.353 N 
HETATM    8  C   UNL     1      -5.009   3.926 -32.930  1.00  0.00     0.249 C 
HETATM    9  O   UNL     1      -5.343   4.810 -33.712  1.00  0.00    -0.271 OA
HETATM   10  C   UNL     1      -5.195   1.752 -30.031  1.00  0.00     0.035 C 
HETATM   11  C   UNL     1      -6.079   0.508 -30.037  1.00  0.00     0.002 C 
HETATM   12  C   UNL     1      -6.762   0.315 -31.390  1.00  0.00     0.002 C 
HETATM   13  C   UNL     1      -5.747   0.253 -32.531  1.00  0.00     0.027 C 
HETATM   14  H   UNL     1      -6.038   2.545 -33.935  1.00  0.00     0.163 HD
ENDROOT
BRANCH   1  15
HETATM   15  C   UNL     1      -3.188   5.387 -31.909  1.00  0.00     0.146 C 
BRANCH  15  16
HETATM   16  C   UNL     1      -1.918   4.935 -32.583  1.00  0.00     0.224 C 
HETATM   17  N   UNL     1      -0.686   5.226 -32.093  1.00  0.00    -0.327 N 
HETATM   18  H   UNL     1       0.047   4.944 -32.739  1.00  0.00     0.169 HD
HETATM   19  O   UNL     1      -2.011   4.235 -33.601  1.00  0.00    -0.273 OA
BRANCH  17  20
HETATM   20  C   UNL     1      -0.223   5.808 -30.896  1.00  0.00     0.034 A 
HETATM   21  C   UNL     1      -0.298   7.163 -30.567  1.00  0.00     0.031 A 
HETATM   22  C   UNL     1       0.164   7.622 -29.325  1.00  0.00     0.026 A 
HETATM   23  C   UNL     1       0.697   6.731 -28.401  1.00  0.00     0.034 A 
HETATM   24  C   UNL     1       0.773   5.378 -28.707  1.00  0.00     0.026 A 
HETATM   25 CL   UNL     1       1.249   7.303 -26.878  1.00  0.00    -0.084 Cl
HETATM   26  C   UNL     1       0.311   4.922 -29.946  1.00  0.00     0.031 A 
ENDBRANCH  17  20
ENDBRANCH  15  16
ENDBRANCH   1  15
TORSDOF 3
ENDMDL
