MODEL 1
REMARK VINA RESULT:      -8.7      0.000      0.000
REMARK  5 active torsions:
REMARK  status: ('A' for Active; 'I' for Inactive)
REMARK    1  A    between atoms: C_9  and  C_10 
REMARK       I    between atoms: C_10  and  N_11 
REMARK    2  A    between atoms: N_11  and  C_12 
REMARK    3  A    between atoms: C_15  and  N_16 
REMARK       I    between atoms: N_16  and  C_17 
REMARK       I    between atoms: C_17  and  N_18 
REMARK    4  A    between atoms: N_18  and  C_19 
REMARK    5  A    between atoms: C_19  and  C_20 
ROOT
HETATM    1  C   UNL     1      -7.506   1.008 -32.736  1.00  0.00     0.035 A 
HETATM    2  C   UNL     1      -8.010   1.707 -31.641  1.00  0.00     0.032 A 
HETATM    3  C   UNL     1      -9.094   2.586 -31.789  1.00  0.00     0.032 A 
HETATM    4  C   UNL     1      -9.673   2.802 -33.038  1.00  0.00     0.036 A 
HETATM    5  C   UNL     1      -9.170   2.091 -34.133  1.00  0.00     0.032 A 
HETATM    6  C   UNL     1      -8.099   1.202 -33.984  1.00  0.00     0.032 A 
ENDROOT
BRANCH   1   7
HETATM    7  N   UNL     1      -6.451   0.085 -32.659  1.00  0.00    -0.322 N 
HETATM    8  C   UNL     1      -5.089   0.326 -32.660  1.00  0.00     0.277 C 
HETATM    9  O   UNL     1      -4.545   1.416 -32.795  1.00  0.00    -0.266 OA
HETATM   10  H   UNL     1      -6.680  -0.903 -32.580  1.00  0.00     0.169 HD
BRANCH   8  11
HETATM   11  C   UNL     1      -4.320  -0.922 -32.479  1.00  0.00     0.157 A 
HETATM   12  C   UNL     1      -4.503  -2.163 -33.156  1.00  0.00     0.029 A 
HETATM   13  C   UNL     1      -5.387  -2.670 -34.130  1.00  0.00     0.023 A 
HETATM   14  C   UNL     1      -3.514  -2.998 -32.652  1.00  0.00     0.063 A 
HETATM   15  C   UNL     1      -5.247  -3.997 -34.569  1.00  0.00    -0.061 A 
HETATM   16  C   UNL     1      -6.187  -4.563 -35.595  1.00  0.00     0.048 C 
HETATM   17  C   UNL     1      -4.232  -4.803 -34.039  1.00  0.00     0.009 A 
HETATM   18  C   UNL     1      -3.343  -4.320 -33.071  1.00  0.00     0.032 A 
HETATM   19  N   UNL     1      -2.833  -2.243 -31.739  1.00  0.00    -0.277 N 
HETATM   20  H   UNL     1      -2.040  -2.531 -31.177  1.00  0.00     0.189 HD
HETATM   21  N   UNL     1      -3.297  -0.988 -31.594  1.00  0.00    -0.168 NA
ENDBRANCH   8  11
ENDBRANCH   1   7
BRANCH   4  22
HETATM   22  N   UNL     1     -10.772   3.645 -33.289  1.00  0.00    -0.309 N 
HETATM   23  C   UNL     1     -12.116   3.452 -33.357  1.00  0.00     0.320 C 
HETATM   24  N   UNL     1     -12.623   2.282 -32.891  1.00  0.00    -0.339 N 
HETATM   25  O   UNL     1     -12.821   4.355 -33.805  1.00  0.00    -0.247 OA
HETATM   26  H   UNL     1     -12.133   1.919 -32.087  1.00  0.00     0.164 HD
HETATM   27  H   UNL     1     -10.550   4.602 -33.535  1.00  0.00     0.170 HD
BRANCH  24  28
HETATM   28  C   UNL     1     -14.051   2.074 -32.885  1.00  0.00     0.150 C 
BRANCH  28  29
HETATM   29  C   UNL     1     -14.408   0.822 -33.626  1.00  0.00    -0.018 C 
HETATM   30  C   UNL     1     -13.693  -0.311 -33.688  1.00  0.00     0.008 C 
ENDBRANCH  28  29
ENDBRANCH  24  28
ENDBRANCH   4  22
TORSDOF 5
ENDMDL
MODEL 2
REMARK VINA RESULT:      -8.5      5.333      7.988
REMARK  5 active torsions:
REMARK  status: ('A' for Active; 'I' for Inactive)
REMARK    1  A    between atoms: C_9  and  C_10 
REMARK       I    between atoms: C_10  and  N_11 
REMARK    2  A    between atoms: N_11  and  C_12 
REMARK    3  A    between atoms: C_15  and  N_16 
REMARK       I    between atoms: N_16  and  C_17 
REMARK       I    between atoms: C_17  and  N_18 
REMARK    4  A    between atoms: N_18  and  C_19 
REMARK    5  A    between atoms: C_19  and  C_20 
ROOT
HETATM    1  C   UNL     1      -3.587   2.810 -32.076  1.00  0.00     0.035 A 
HETATM    2  C   UNL     1      -2.631   3.656 -32.633  1.00  0.00     0.032 A 
HETATM    3  C   UNL     1      -2.513   4.988 -32.204  1.00  0.00     0.032 A 
HETATM    4  C   UNL     1      -3.368   5.502 -31.230  1.00  0.00     0.036 A 
HETATM    5  C   UNL     1      -4.320   4.646 -30.667  1.00  0.00     0.032 A 
HETATM    6  C   UNL     1      -4.428   3.314 -31.083  1.00  0.00     0.032 A 
ENDROOT
BRANCH   1   7
HETATM    7  N   UNL     1      -3.739   1.459 -32.425  1.00  0.00    -0.322 N 
HETATM    8  C   UNL     1      -3.225   0.340 -31.797  1.00  0.00     0.277 C 
HETATM    9  O   UNL     1      -2.471   0.332 -30.831  1.00  0.00    -0.266 OA
HETATM   10  H   UNL     1      -4.307   1.234 -33.238  1.00  0.00     0.169 HD
BRANCH   8  11
HETATM   11  C   UNL     1      -3.694  -0.904 -32.440  1.00  0.00     0.157 A 
HETATM   12  C   UNL     1      -4.806  -1.064 -33.318  1.00  0.00     0.029 A 
HETATM   13  C   UNL     1      -5.808  -0.230 -33.853  1.00  0.00     0.023 A 
HETATM   14  C   UNL     1      -4.800  -2.409 -33.667  1.00  0.00     0.063 A 
HETATM   15  C   UNL     1      -6.770  -0.771 -34.722  1.00  0.00    -0.061 A 
HETATM   16  C   UNL     1      -7.856   0.096 -35.292  1.00  0.00     0.048 C 
HETATM   17  C   UNL     1      -6.724  -2.132 -35.052  1.00  0.00     0.009 A 
HETATM   18  C   UNL     1      -5.737  -2.978 -34.533  1.00  0.00     0.032 A 
HETATM   19  N   UNL     1      -3.737  -2.951 -33.000  1.00  0.00    -0.277 N 
HETATM   20  H   UNL     1      -3.429  -3.916 -33.023  1.00  0.00     0.189 HD
HETATM   21  N   UNL     1      -3.053  -2.079 -32.237  1.00  0.00    -0.168 NA
ENDBRANCH   8  11
ENDBRANCH   1   7
BRANCH   4  22
HETATM   22  N   UNL     1      -3.321   6.813 -30.719  1.00  0.00    -0.309 N 
HETATM   23  C   UNL     1      -2.656   7.403 -29.691  1.00  0.00     0.320 C 
HETATM   24  N   UNL     1      -1.637   6.721 -29.107  1.00  0.00    -0.339 N 
HETATM   25  O   UNL     1      -2.979   8.541 -29.353  1.00  0.00    -0.247 OA
HETATM   26  H   UNL     1      -1.105   6.155 -29.751  1.00  0.00     0.164 HD
HETATM   27  H   UNL     1      -3.951   7.479 -31.148  1.00  0.00     0.170 HD
BRANCH  24  28
HETATM   28  C   UNL     1      -0.867   7.348 -28.060  1.00  0.00     0.150 C 
BRANCH  28  29
HETATM   29  C   UNL     1       0.493   7.731 -28.558  1.00  0.00    -0.018 C 
HETATM   30  C   UNL     1       1.418   8.450 -27.906  1.00  0.00     0.008 C 
ENDBRANCH  28  29
ENDBRANCH  24  28
ENDBRANCH   4  22
TORSDOF 5
ENDMDL
MODEL 3
REMARK VINA RESULT:      -8.3      5.085      8.026
REMARK  5 active torsions:
REMARK  status: ('A' for Active; 'I' for Inactive)
REMARK    1  A    between atoms: C_9  and  C_10 
REMARK       I    between atoms: C_10  and  N_11 
REMARK    2  A    between atoms: N_11  and  C_12 
REMARK    3  A    between atoms: C_15  and  N_16 
REMARK       I    between atoms: N_16  and  C_17 
REMARK       I    between atoms: C_17  and  N_18 
REMARK    4  A    between atoms: N_18  and  C_19 
REMARK    5  A    between atoms: C_19  and  C_20 
ROOT
HETATM    1  C   UNL     1      -4.178   3.195 -32.249  1.00  0.00     0.035 A 
HETATM    2  C   UNL     1      -4.725   4.049 -31.295  1.00  0.00     0.032 A 
HETATM    3  C   UNL     1      -4.021   5.183 -30.859  1.00  0.00     0.032 A 
HETATM    4  C   UNL     1      -2.747   5.464 -31.349  1.00  0.00     0.036 A 
HETATM    5  C   UNL     1      -2.204   4.607 -32.313  1.00  0.00     0.032 A 
HETATM    6  C   UNL     1      -2.912   3.486 -32.761  1.00  0.00     0.032 A 
ENDROOT
BRANCH   1   7
HETATM    7  N   UNL     1      -4.836   2.066 -32.762  1.00  0.00    -0.322 N 
HETATM    8  C   UNL     1      -4.823   0.768 -32.286  1.00  0.00     0.277 C 
HETATM    9  O   UNL     1      -4.166   0.347 -31.341  1.00  0.00    -0.266 OA
HETATM   10  H   UNL     1      -5.419   2.182 -33.587  1.00  0.00     0.169 HD
BRANCH   8  11
HETATM   11  C   UNL     1      -5.721  -0.104 -33.071  1.00  0.00     0.157 A 
HETATM   12  C   UNL     1      -5.463  -1.428 -33.533  1.00  0.00     0.029 A 
HETATM   13  C   UNL     1      -4.385  -2.335 -33.470  1.00  0.00     0.023 A 
HETATM   14  C   UNL     1      -6.625  -1.815 -34.188  1.00  0.00     0.063 A 
HETATM   15  C   UNL     1      -4.511  -3.602 -34.065  1.00  0.00    -0.061 A 
HETATM   16  C   UNL     1      -3.371  -4.579 -34.024  1.00  0.00     0.048 C 
HETATM   17  C   UNL     1      -5.704  -3.954 -34.711  1.00  0.00     0.009 A 
HETATM   18  C   UNL     1      -6.785  -3.068 -34.784  1.00  0.00     0.032 A 
HETATM   19  N   UNL     1      -7.468  -0.744 -34.090  1.00  0.00    -0.277 N 
HETATM   20  H   UNL     1      -8.412  -0.674 -34.456  1.00  0.00     0.189 HD
HETATM   21  N   UNL     1      -6.955   0.314 -33.437  1.00  0.00    -0.168 NA
ENDBRANCH   8  11
ENDBRANCH   1   7
BRANCH   4  22
HETATM   22  N   UNL     1      -1.967   6.580 -30.991  1.00  0.00    -0.309 N 
HETATM   23  C   UNL     1      -1.119   6.849 -29.963  1.00  0.00     0.320 C 
HETATM   24  N   UNL     1      -0.704   5.819 -29.183  1.00  0.00    -0.339 N 
HETATM   25  O   UNL     1      -0.735   8.007 -29.802  1.00  0.00    -0.247 OA
HETATM   26  H   UNL     1      -0.576   4.954 -29.687  1.00  0.00     0.164 HD
HETATM   27  H   UNL     1      -2.080   7.404 -31.568  1.00  0.00     0.170 HD
BRANCH  24  28
HETATM   28  C   UNL     1       0.250   6.061 -28.128  1.00  0.00     0.150 C 
BRANCH  28  29
HETATM   29  C   UNL     1      -0.433   6.110 -26.795  1.00  0.00    -0.018 C 
HETATM   30  C   UNL     1      -1.366   6.987 -26.398  1.00  0.00     0.008 C 
ENDBRANCH  28  29
ENDBRANCH  24  28
ENDBRANCH   4  22
TORSDOF 5
ENDMDL
MODEL 4
REMARK VINA RESULT:      -8.3      2.021      9.572
REMARK  5 active torsions:
REMARK  status: ('A' for Active; 'I' for Inactive)
REMARK    1  A    between atoms: C_9  and  C_10 
REMARK       I    between atoms: C_10  and  N_11 
REMARK    2  A    between atoms: N_11  and  C_12 
REMARK    3  A    between atoms: C_15  and  N_16 
REMARK       I    between atoms: N_16  and  C_17 
REMARK       I    between atoms: C_17  and  N_18 
REMARK    4  A    between atoms: N_18  and  C_19 
REMARK    5  A    between atoms: C_19  and  C_20 
ROOT
HETATM    1  C   UNL     1      -9.464   0.575 -33.377  1.00  0.00     0.035 A 
HETATM    2  C   UNL     1      -8.759   0.517 -34.577  1.00  0.00     0.032 A 
HETATM    3  C   UNL     1      -7.374   0.285 -34.585  1.00  0.00     0.032 A 
HETATM    4  C   UNL     1      -6.668   0.137 -33.392  1.00  0.00     0.036 A 
HETATM    5  C   UNL     1      -7.382   0.187 -32.190  1.00  0.00     0.032 A 
HETATM    6  C   UNL     1      -8.766   0.402 -32.181  1.00  0.00     0.032 A 
ENDROOT
BRANCH   1   7
HETATM    7  N   UNL     1     -10.852   0.764 -33.291  1.00  0.00    -0.322 N 
HETATM    8  C   UNL     1     -11.610   1.826 -33.749  1.00  0.00     0.277 C 
HETATM    9  O   UNL     1     -11.185   2.850 -34.270  1.00  0.00    -0.266 OA
HETATM   10  H   UNL     1     -11.411   0.037 -32.849  1.00  0.00     0.169 HD
BRANCH   8  11
HETATM   11  C   UNL     1     -13.053   1.594 -33.531  1.00  0.00     0.157 A 
HETATM   12  C   UNL     1     -13.988   2.462 -32.896  1.00  0.00     0.029 A 
HETATM   13  C   UNL     1     -13.941   3.725 -32.270  1.00  0.00     0.023 A 
HETATM   14  C   UNL     1     -15.206   1.800 -32.974  1.00  0.00     0.063 A 
HETATM   15  C   UNL     1     -15.119   4.282 -31.745  1.00  0.00    -0.061 A 
HETATM   16  C   UNL     1     -15.089   5.618 -31.060  1.00  0.00     0.048 C 
HETATM   17  C   UNL     1     -16.328   3.582 -31.850  1.00  0.00     0.009 A 
HETATM   18  C   UNL     1     -16.397   2.328 -32.468  1.00  0.00     0.032 A 
HETATM   19  N   UNL     1     -14.938   0.623 -33.615  1.00  0.00    -0.277 N 
HETATM   20  H   UNL     1     -15.598  -0.111 -33.847  1.00  0.00     0.189 HD
HETATM   21  N   UNL     1     -13.648   0.454 -33.955  1.00  0.00    -0.168 NA
ENDBRANCH   8  11
ENDBRANCH   1   7
BRANCH   4  22
HETATM   22  N   UNL     1      -5.287  -0.115 -33.292  1.00  0.00    -0.309 N 
HETATM   23  C   UNL     1      -4.517  -1.226 -33.436  1.00  0.00     0.320 C 
HETATM   24  N   UNL     1      -5.073  -2.326 -34.005  1.00  0.00    -0.339 N 
HETATM   25  O   UNL     1      -3.340  -1.179 -33.079  1.00  0.00    -0.247 OA
HETATM   26  H   UNL     1      -5.739  -2.115 -34.733  1.00  0.00     0.164 HD
HETATM   27  H   UNL     1      -4.715   0.663 -32.991  1.00  0.00     0.170 HD
BRANCH  24  28
HETATM   28  C   UNL     1      -4.262  -3.498 -34.235  1.00  0.00     0.150 C 
BRANCH  28  29
HETATM   29  C   UNL     1      -5.119  -4.675 -34.588  1.00  0.00    -0.018 C 
HETATM   30  C   UNL     1      -6.324  -4.649 -35.175  1.00  0.00     0.008 C 
ENDBRANCH  28  29
ENDBRANCH  24  28
ENDBRANCH   4  22
TORSDOF 5
ENDMDL
MODEL 5
REMARK VINA RESULT:      -8.2      5.144      7.324
REMARK  5 active torsions:
REMARK  status: ('A' for Active; 'I' for Inactive)
REMARK    1  A    between atoms: C_9  and  C_10 
REMARK       I    between atoms: C_10  and  N_11 
REMARK    2  A    between atoms: N_11  and  C_12 
REMARK    3  A    between atoms: C_15  and  N_16 
REMARK       I    between atoms: N_16  and  C_17 
REMARK       I    between atoms: C_17  and  N_18 
REMARK    4  A    between atoms: N_18  and  C_19 
REMARK    5  A    between atoms: C_19  and  C_20 
ROOT
HETATM    1  C   UNL     1      -3.586   2.622 -32.092  1.00  0.00     0.035 A 
HETATM    2  C   UNL     1      -2.890   3.441 -32.980  1.00  0.00     0.032 A 
HETATM    3  C   UNL     1      -3.004   4.838 -32.906  1.00  0.00     0.032 A 
HETATM    4  C   UNL     1      -3.838   5.438 -31.964  1.00  0.00     0.036 A 
HETATM    5  C   UNL     1      -4.528   4.612 -31.069  1.00  0.00     0.032 A 
HETATM    6  C   UNL     1      -4.402   3.219 -31.131  1.00  0.00     0.032 A 
ENDROOT
BRANCH   1   7
HETATM    7  N   UNL     1      -3.493   1.222 -32.079  1.00  0.00    -0.322 N 
HETATM    8  C   UNL     1      -4.303   0.295 -32.710  1.00  0.00     0.277 C 
HETATM    9  O   UNL     1      -5.313   0.538 -33.360  1.00  0.00    -0.266 OA
HETATM   10  H   UNL     1      -2.733   0.795 -31.555  1.00  0.00     0.169 HD
BRANCH   8  11
HETATM   11  C   UNL     1      -3.808  -1.082 -32.507  1.00  0.00     0.157 A 
HETATM   12  C   UNL     1      -4.217  -2.264 -33.191  1.00  0.00     0.029 A 
HETATM   13  C   UNL     1      -5.153  -2.585 -34.195  1.00  0.00     0.023 A 
HETATM   14  C   UNL     1      -3.435  -3.279 -32.658  1.00  0.00     0.063 A 
HETATM   15  C   UNL     1      -5.272  -3.914 -34.632  1.00  0.00    -0.061 A 
HETATM   16  C   UNL     1      -6.273  -4.282 -35.689  1.00  0.00     0.048 C 
HETATM   17  C   UNL     1      -4.458  -4.908 -34.071  1.00  0.00     0.009 A 
HETATM   18  C   UNL     1      -3.522  -4.610 -33.073  1.00  0.00     0.032 A 
HETATM   19  N   UNL     1      -2.645  -2.673 -31.721  1.00  0.00    -0.277 N 
HETATM   20  H   UNL     1      -1.945  -3.114 -31.134  1.00  0.00     0.189 HD
HETATM   21  N   UNL     1      -2.850  -1.350 -31.589  1.00  0.00    -0.168 NA
ENDBRANCH   8  11
ENDBRANCH   1   7
BRANCH   4  22
HETATM   22  N   UNL     1      -4.008   6.825 -31.797  1.00  0.00    -0.309 N 
HETATM   23  C   UNL     1      -3.377   7.772 -31.052  1.00  0.00     0.320 C 
HETATM   24  N   UNL     1      -2.188   7.454 -30.480  1.00  0.00    -0.339 N 
HETATM   25  O   UNL     1      -3.891   8.886 -30.954  1.00  0.00    -0.247 OA
HETATM   26  H   UNL     1      -1.619   6.838 -31.041  1.00  0.00     0.164 HD
HETATM   27  H   UNL     1      -4.801   7.236 -32.274  1.00  0.00     0.170 HD
BRANCH  24  28
HETATM   28  C   UNL     1      -1.460   8.458 -29.741  1.00  0.00     0.150 C 
BRANCH  28  29
HETATM   29  C   UNL     1      -0.593   7.824 -28.696  1.00  0.00    -0.018 C 
HETATM   30  C   UNL     1       0.745   7.863 -28.627  1.00  0.00     0.008 C 
ENDBRANCH  28  29
ENDBRANCH  24  28
ENDBRANCH   4  22
TORSDOF 5
ENDMDL
MODEL 6
REMARK VINA RESULT:      -7.9      5.682      9.144
REMARK  5 active torsions:
REMARK  status: ('A' for Active; 'I' for Inactive)
REMARK    1  A    between atoms: C_9  and  C_10 
REMARK       I    between atoms: C_10  and  N_11 
REMARK    2  A    between atoms: N_11  and  C_12 
REMARK    3  A    between atoms: C_15  and  N_16 
REMARK       I    between atoms: N_16  and  C_17 
REMARK       I    between atoms: C_17  and  N_18 
REMARK    4  A    between atoms: N_18  and  C_19 
REMARK    5  A    between atoms: C_19  and  C_20 
ROOT
HETATM    1  C   UNL     1      -3.588   2.485 -31.667  1.00  0.00     0.035 A 
HETATM    2  C   UNL     1      -4.627   2.850 -32.521  1.00  0.00     0.032 A 
HETATM    3  C   UNL     1      -5.545   1.894 -32.984  1.00  0.00     0.032 A 
HETATM    4  C   UNL     1      -5.423   0.553 -32.623  1.00  0.00     0.036 A 
HETATM    5  C   UNL     1      -4.383   0.192 -31.758  1.00  0.00     0.032 A 
HETATM    6  C   UNL     1      -3.477   1.147 -31.283  1.00  0.00     0.032 A 
ENDROOT
BRANCH   1   7
HETATM    7  N   UNL     1      -2.656   3.388 -31.133  1.00  0.00    -0.322 N 
HETATM    8  C   UNL     1      -1.953   4.388 -31.780  1.00  0.00     0.277 C 
HETATM    9  O   UNL     1      -1.973   4.629 -32.982  1.00  0.00    -0.266 OA
HETATM   10  H   UNL     1      -2.453   3.339 -30.138  1.00  0.00     0.169 HD
BRANCH   8  11
HETATM   11  C   UNL     1      -1.133   5.171 -30.833  1.00  0.00     0.157 A 
HETATM   12  C   UNL     1      -1.374   6.493 -30.358  1.00  0.00     0.029 A 
HETATM   13  C   UNL     1      -2.347   7.490 -30.577  1.00  0.00     0.023 A 
HETATM   14  C   UNL     1      -0.337   6.754 -29.473  1.00  0.00     0.063 A 
HETATM   15  C   UNL     1      -2.248   8.715 -29.896  1.00  0.00    -0.061 A 
HETATM   16  C   UNL     1      -3.264   9.797 -30.125  1.00  0.00     0.048 C 
HETATM   17  C   UNL     1      -1.188   8.935 -29.007  1.00  0.00     0.009 A 
HETATM   18  C   UNL     1      -0.212   7.959 -28.775  1.00  0.00     0.032 A 
HETATM   19  N   UNL     1       0.434   5.626 -29.476  1.00  0.00    -0.277 N 
HETATM   20  H   UNL     1       1.279   5.461 -28.940  1.00  0.00     0.189 HD
HETATM   21  N   UNL     1      -0.004   4.652 -30.295  1.00  0.00    -0.168 NA
ENDBRANCH   8  11
ENDBRANCH   1   7
BRANCH   4  22
HETATM   22  N   UNL     1      -6.298  -0.476 -33.017  1.00  0.00    -0.309 N 
HETATM   23  C   UNL     1      -6.158  -1.597 -33.775  1.00  0.00     0.320 C 
HETATM   24  N   UNL     1      -4.903  -2.012 -34.086  1.00  0.00    -0.339 N 
HETATM   25  O   UNL     1      -7.169  -2.207 -34.119  1.00  0.00    -0.247 OA
HETATM   26  H   UNL     1      -4.229  -1.850 -33.354  1.00  0.00     0.164 HD
HETATM   27  H   UNL     1      -7.266  -0.364 -32.745  1.00  0.00     0.170 HD
BRANCH  24  28
HETATM   28  C   UNL     1      -4.720  -3.235 -34.830  1.00  0.00     0.150 C 
BRANCH  28  29
HETATM   29  C   UNL     1      -4.049  -4.275 -33.985  1.00  0.00    -0.018 C 
HETATM   30  C   UNL     1      -3.343  -4.070 -32.864  1.00  0.00     0.008 C 
ENDBRANCH  28  29
ENDBRANCH  24  28
ENDBRANCH   4  22
TORSDOF 5
ENDMDL
MODEL 7
REMARK VINA RESULT:      -7.8      2.394      3.698
REMARK  5 active torsions:
REMARK  status: ('A' for Active; 'I' for Inactive)
REMARK    1  A    between atoms: C_9  and  C_10 
REMARK       I    between atoms: C_10  and  N_11 
REMARK    2  A    between atoms: N_11  and  C_12 
REMARK    3  A    between atoms: C_15  and  N_16 
REMARK       I    between atoms: N_16  and  C_17 
REMARK       I    between atoms: C_17  and  N_18 
REMARK    4  A    between atoms: N_18  and  C_19 
REMARK    5  A    between atoms: C_19  and  C_20 
ROOT
HETATM    1  C   UNL     1     -10.569   1.036 -33.715  1.00  0.00     0.035 A 
HETATM    2  C   UNL     1     -11.128   2.251 -34.104  1.00  0.00     0.032 A 
HETATM    3  C   UNL     1     -12.522   2.415 -34.158  1.00  0.00     0.032 A 
HETATM    4  C   UNL     1     -13.377   1.358 -33.851  1.00  0.00     0.036 A 
HETATM    5  C   UNL     1     -12.811   0.142 -33.452  1.00  0.00     0.032 A 
HETATM    6  C   UNL     1     -11.422  -0.017 -33.383  1.00  0.00     0.032 A 
ENDROOT
BRANCH   1   7
HETATM    7  N   UNL     1      -9.189   0.808 -33.601  1.00  0.00    -0.322 N 
HETATM    8  C   UNL     1      -8.416   0.739 -32.456  1.00  0.00     0.277 C 
HETATM    9  O   UNL     1      -8.799   0.932 -31.308  1.00  0.00    -0.266 OA
HETATM   10  H   UNL     1      -8.653   0.658 -34.453  1.00  0.00     0.169 HD
BRANCH   8  11
HETATM   11  C   UNL     1      -7.013   0.398 -32.771  1.00  0.00     0.157 A 
HETATM   12  C   UNL     1      -6.528  -0.773 -33.424  1.00  0.00     0.029 A 
HETATM   13  C   UNL     1      -7.093  -1.952 -33.951  1.00  0.00     0.023 A 
HETATM   14  C   UNL     1      -5.153  -0.597 -33.505  1.00  0.00     0.063 A 
HETATM   15  C   UNL     1      -6.260  -2.915 -34.545  1.00  0.00    -0.061 A 
HETATM   16  C   UNL     1      -6.838  -4.185 -35.099  1.00  0.00     0.048 C 
HETATM   17  C   UNL     1      -4.878  -2.694 -34.611  1.00  0.00     0.009 A 
HETATM   18  C   UNL     1      -4.296  -1.531 -34.095  1.00  0.00     0.032 A 
HETATM   19  N   UNL     1      -4.907   0.611 -32.916  1.00  0.00    -0.277 N 
HETATM   20  H   UNL     1      -4.007   1.063 -32.799  1.00  0.00     0.189 HD
HETATM   21  N   UNL     1      -6.002   1.237 -32.446  1.00  0.00    -0.168 NA
ENDBRANCH   8  11
ENDBRANCH   1   7
BRANCH   4  22
HETATM   22  N   UNL     1     -14.783   1.423 -33.857  1.00  0.00    -0.309 N 
HETATM   23  C   UNL     1     -15.697   2.166 -33.178  1.00  0.00     0.320 C 
HETATM   24  N   UNL     1     -15.260   3.247 -32.482  1.00  0.00    -0.339 N 
HETATM   25  O   UNL     1     -16.885   1.851 -33.248  1.00  0.00    -0.247 OA
HETATM   26  H   UNL     1     -14.492   3.731 -32.923  1.00  0.00     0.164 HD
HETATM   27  H   UNL     1     -15.257   0.743 -34.438  1.00  0.00     0.170 HD
BRANCH  24  28
HETATM   28  C   UNL     1     -16.214   4.095 -31.809  1.00  0.00     0.150 C 
BRANCH  28  29
HETATM   29  C   UNL     1     -15.721   5.510 -31.756  1.00  0.00    -0.018 C 
HETATM   30  C   UNL     1     -15.410   6.295 -32.798  1.00  0.00     0.008 C 
ENDBRANCH  28  29
ENDBRANCH  24  28
ENDBRANCH   4  22
TORSDOF 5
ENDMDL
MODEL 8
REMARK VINA RESULT:      -7.7     14.312     16.339
REMARK  5 active torsions:
REMARK  status: ('A' for Active; 'I' for Inactive)
REMARK    1  A    between atoms: C_9  and  C_10 
REMARK       I    between atoms: C_10  and  N_11 
REMARK    2  A    between atoms: N_11  and  C_12 
REMARK    3  A    between atoms: C_15  and  N_16 
REMARK       I    between atoms: N_16  and  C_17 
REMARK       I    between atoms: C_17  and  N_18 
REMARK    4  A    between atoms: N_18  and  C_19 
REMARK    5  A    between atoms: C_19  and  C_20 
ROOT
HETATM    1  C   UNL     1      -5.573 -14.043 -34.564  1.00  0.00     0.035 A 
HETATM    2  C   UNL     1      -5.817 -15.396 -34.334  1.00  0.00     0.032 A 
HETATM    3  C   UNL     1      -5.939 -15.890 -33.025  1.00  0.00     0.032 A 
HETATM    4  C   UNL     1      -5.792 -15.046 -31.926  1.00  0.00     0.036 A 
HETATM    5  C   UNL     1      -5.556 -13.687 -32.162  1.00  0.00     0.032 A 
HETATM    6  C   UNL     1      -5.450 -13.190 -33.466  1.00  0.00     0.032 A 
ENDROOT
BRANCH   1   7
HETATM    7  N   UNL     1      -5.476 -13.469 -35.841  1.00  0.00    -0.322 N 
HETATM    8  C   UNL     1      -4.350 -13.280 -36.620  1.00  0.00     0.277 C 
HETATM    9  O   UNL     1      -3.194 -13.530 -36.299  1.00  0.00    -0.266 OA
HETATM   10  H   UNL     1      -6.331 -13.148 -36.290  1.00  0.00     0.169 HD
BRANCH   8  11
HETATM   11  C   UNL     1      -4.696 -12.714 -37.941  1.00  0.00     0.157 A 
HETATM   12  C   UNL     1      -5.957 -12.762 -38.605  1.00  0.00     0.029 A 
HETATM   13  C   UNL     1      -7.227 -13.313 -38.338  1.00  0.00     0.023 A 
HETATM   14  C   UNL     1      -5.767 -12.063 -39.790  1.00  0.00     0.063 A 
HETATM   15  C   UNL     1      -8.265 -13.142 -39.269  1.00  0.00    -0.061 A 
HETATM   16  C   UNL     1      -9.622 -13.733 -39.013  1.00  0.00     0.048 C 
HETATM   17  C   UNL     1      -8.032 -12.425 -40.450  1.00  0.00     0.009 A 
HETATM   18  C   UNL     1      -6.779 -11.869 -40.734  1.00  0.00     0.032 A 
HETATM   19  N   UNL     1      -4.460 -11.664 -39.769  1.00  0.00    -0.277 N 
HETATM   20  H   UNL     1      -3.973 -11.126 -40.478  1.00  0.00     0.189 HD
HETATM   21  N   UNL     1      -3.775 -12.049 -38.677  1.00  0.00    -0.168 NA
ENDBRANCH   8  11
ENDBRANCH   1   7
BRANCH   4  22
HETATM   22  N   UNL     1      -5.914 -15.438 -30.580  1.00  0.00    -0.309 N 
HETATM   23  C   UNL     1      -5.135 -16.161 -29.732  1.00  0.00     0.320 C 
HETATM   24  N   UNL     1      -3.855 -16.424 -30.100  1.00  0.00    -0.339 N 
HETATM   25  O   UNL     1      -5.608 -16.518 -28.654  1.00  0.00    -0.247 OA
HETATM   26  H   UNL     1      -3.419 -15.677 -30.620  1.00  0.00     0.164 HD
HETATM   27  H   UNL     1      -6.785 -15.197 -30.125  1.00  0.00     0.170 HD
BRANCH  24  28
HETATM   28  C   UNL     1      -2.982 -17.130 -29.192  1.00  0.00     0.150 C 
BRANCH  28  29
HETATM   29  C   UNL     1      -2.031 -16.182 -28.526  1.00  0.00    -0.018 C 
HETATM   30  C   UNL     1      -0.889 -16.495 -27.897  1.00  0.00     0.008 C 
ENDBRANCH  28  29
ENDBRANCH  24  28
ENDBRANCH   4  22
TORSDOF 5
ENDMDL
MODEL 9
REMARK VINA RESULT:      -7.6      9.641     12.521
REMARK  5 active torsions:
REMARK  status: ('A' for Active; 'I' for Inactive)
REMARK    1  A    between atoms: C_9  and  C_10 
REMARK       I    between atoms: C_10  and  N_11 
REMARK    2  A    between atoms: N_11  and  C_12 
REMARK    3  A    between atoms: C_15  and  N_16 
REMARK       I    between atoms: N_16  and  C_17 
REMARK       I    between atoms: C_17  and  N_18 
REMARK    4  A    between atoms: N_18  and  C_19 
REMARK    5  A    between atoms: C_19  and  C_20 
ROOT
HETATM    1  C   UNL     1      -0.029   6.966 -29.247  1.00  0.00     0.035 A 
HETATM    2  C   UNL     1      -0.279   6.169 -28.132  1.00  0.00     0.032 A 
HETATM    3  C   UNL     1       0.356   6.430 -26.907  1.00  0.00     0.032 A 
HETATM    4  C   UNL     1       1.271   7.474 -26.785  1.00  0.00     0.036 A 
HETATM    5  C   UNL     1       1.512   8.277 -27.905  1.00  0.00     0.032 A 
HETATM    6  C   UNL     1       0.867   8.028 -29.123  1.00  0.00     0.032 A 
ENDROOT
BRANCH   1   7
HETATM    7  N   UNL     1      -0.653   6.791 -30.492  1.00  0.00    -0.322 N 
HETATM    8  C   UNL     1      -0.460   5.786 -31.422  1.00  0.00     0.277 C 
HETATM    9  O   UNL     1       0.359   4.877 -31.349  1.00  0.00    -0.266 OA
HETATM   10  H   UNL     1      -1.355   7.469 -30.778  1.00  0.00     0.169 HD
BRANCH   8  11
HETATM   11  C   UNL     1      -1.381   5.927 -32.569  1.00  0.00     0.157 A 
HETATM   12  C   UNL     1      -2.554   5.165 -32.842  1.00  0.00     0.029 A 
HETATM   13  C   UNL     1      -3.231   4.087 -32.236  1.00  0.00     0.023 A 
HETATM   14  C   UNL     1      -3.073   5.708 -34.010  1.00  0.00     0.063 A 
HETATM   15  C   UNL     1      -4.407   3.590 -32.822  1.00  0.00    -0.061 A 
HETATM   16  C   UNL     1      -5.136   2.433 -32.202  1.00  0.00     0.048 C 
HETATM   17  C   UNL     1      -4.899   4.171 -33.998  1.00  0.00     0.009 A 
HETATM   18  C   UNL     1      -4.243   5.242 -34.616  1.00  0.00     0.032 A 
HETATM   19  N   UNL     1      -2.212   6.711 -34.357  1.00  0.00    -0.277 N 
HETATM   20  H   UNL     1      -2.282   7.327 -35.159  1.00  0.00     0.189 HD
HETATM   21  N   UNL     1      -1.170   6.867 -33.520  1.00  0.00    -0.168 NA
ENDBRANCH   8  11
ENDBRANCH   1   7
BRANCH   4  22
HETATM   22  N   UNL     1       1.945   7.829 -25.602  1.00  0.00    -0.309 N 
HETATM   23  C   UNL     1       1.892   8.903 -24.770  1.00  0.00     0.320 C 
HETATM   24  N   UNL     1       0.856   9.770 -24.902  1.00  0.00    -0.339 N 
HETATM   25  O   UNL     1       2.764   9.029 -23.911  1.00  0.00    -0.247 OA
HETATM   26  H   UNL     1      -0.014   9.327 -25.158  1.00  0.00     0.164 HD
HETATM   27  H   UNL     1       2.680   7.199 -25.303  1.00  0.00     0.170 HD
BRANCH  24  28
HETATM   28  C   UNL     1       0.734  10.881 -23.990  1.00  0.00     0.150 C 
BRANCH  28  29
HETATM   29  C   UNL     1      -0.273  10.582 -22.920  1.00  0.00    -0.018 C 
HETATM   30  C   UNL     1      -1.398   9.865 -23.049  1.00  0.00     0.008 C 
ENDBRANCH  28  29
ENDBRANCH  24  28
ENDBRANCH   4  22
TORSDOF 5
ENDMDL
MODEL 10
REMARK VINA RESULT:      -7.6      2.468      3.749
REMARK  5 active torsions:
REMARK  status: ('A' for Active; 'I' for Inactive)
REMARK    1  A    between atoms: C_9  and  C_10 
REMARK       I    between atoms: C_10  and  N_11 
REMARK    2  A    between atoms: N_11  and  C_12 
REMARK    3  A    between atoms: C_15  and  N_16 
REMARK       I    between atoms: N_16  and  C_17 
REMARK       I    between atoms: C_17  and  N_18 
REMARK    4  A    between atoms: N_18  and  C_19 
REMARK    5  A    between atoms: C_19  and  C_20 
ROOT
HETATM    1  C   UNL     1      -9.454   1.487 -33.275  1.00  0.00     0.035 A 
HETATM    2  C   UNL     1      -9.987   2.432 -34.149  1.00  0.00     0.032 A 
HETATM    3  C   UNL     1     -11.290   2.288 -34.652  1.00  0.00     0.032 A 
HETATM    4  C   UNL     1     -12.069   1.183 -34.313  1.00  0.00     0.036 A 
HETATM    5  C   UNL     1     -11.532   0.242 -33.427  1.00  0.00     0.032 A 
HETATM    6  C   UNL     1     -10.240   0.392 -32.912  1.00  0.00     0.032 A 
ENDROOT
BRANCH   1   7
HETATM    7  N   UNL     1      -8.176   1.581 -32.701  1.00  0.00    -0.322 N 
HETATM    8  C   UNL     1      -7.819   2.085 -31.463  1.00  0.00     0.277 C 
HETATM    9  O   UNL     1      -8.570   2.611 -30.650  1.00  0.00    -0.266 OA
HETATM   10  H   UNL     1      -7.382   1.232 -33.233  1.00  0.00     0.169 HD
BRANCH   8  11
HETATM   11  C   UNL     1      -6.373   1.922 -31.211  1.00  0.00     0.157 A 
HETATM   12  C   UNL     1      -5.510   0.904 -31.714  1.00  0.00     0.029 A 
HETATM   13  C   UNL     1      -5.651  -0.236 -32.531  1.00  0.00     0.023 A 
HETATM   14  C   UNL     1      -4.253   1.216 -31.213  1.00  0.00     0.063 A 
HETATM   15  C   UNL     1      -4.525  -1.024 -32.820  1.00  0.00    -0.061 A 
HETATM   16  C   UNL     1      -4.654  -2.251 -33.676  1.00  0.00     0.048 C 
HETATM   17  C   UNL     1      -3.274  -0.670 -32.298  1.00  0.00     0.009 A 
HETATM   18  C   UNL     1      -3.112   0.458 -31.485  1.00  0.00     0.032 A 
HETATM   19  N   UNL     1      -4.432   2.347 -30.466  1.00  0.00    -0.277 N 
HETATM   20  H   UNL     1      -3.723   2.859 -29.952  1.00  0.00     0.189 HD
HETATM   21  N   UNL     1      -5.699   2.796 -30.427  1.00  0.00    -0.168 NA
ENDBRANCH   8  11
ENDBRANCH   1   7
BRANCH   4  22
HETATM   22  N   UNL     1     -13.388   0.956 -34.747  1.00  0.00    -0.309 N 
HETATM   23  C   UNL     1     -14.610   1.082 -34.165  1.00  0.00     0.320 C 
HETATM   24  N   UNL     1     -14.698   1.766 -32.995  1.00  0.00    -0.339 N 
HETATM   25  O   UNL     1     -15.589   0.604 -34.736  1.00  0.00    -0.247 OA
HETATM   26  H   UNL     1     -14.061   2.546 -32.931  1.00  0.00     0.164 HD
HETATM   27  H   UNL     1     -13.488   0.554 -35.671  1.00  0.00     0.170 HD
BRANCH  24  28
HETATM   28  C   UNL     1     -15.990   1.977 -32.388  1.00  0.00     0.150 C 
BRANCH  28  29
HETATM   29  C   UNL     1     -16.206   3.430 -32.090  1.00  0.00    -0.018 C 
HETATM   30  C   UNL     1     -15.263   4.375 -31.961  1.00  0.00     0.008 C 
ENDBRANCH  28  29
ENDBRANCH  24  28
ENDBRANCH   4  22
TORSDOF 5
ENDMDL
