MODEL 1
REMARK VINA RESULT:      -8.1      0.000      0.000
REMARK  3 active torsions:
REMARK  status: ('A' for Active; 'I' for Inactive)
REMARK    1  A    between atoms: C_4  and  C_5 
REMARK    2  A    between atoms: C_5  and  N_6 
REMARK    3  A    between atoms: N_10  and  S_11 
ROOT
HETATM    1  N   UNL     1      -7.953   0.534 -34.656  1.00  0.00    -0.063 N 
HETATM    2  H   UNL     1      -7.558  -0.253 -35.179  1.00  0.00     0.280 HD
HETATM    3  C   UNL     1      -6.759   1.981 -34.610  1.00  0.00     0.267 C 
HETATM    4  C   UNL     1      -6.149   2.343 -32.806  1.00  0.00     0.067 C 
HETATM    5  N   UNL     1      -6.194   3.816 -32.426  1.00  0.00    -0.300 N 
HETATM    6  C   UNL     1      -5.702   4.143 -31.055  1.00  0.00     0.136 C 
HETATM    7  C   UNL     1      -4.265   3.667 -30.863  1.00  0.00     0.021 C 
HETATM    8  C   UNL     1      -4.017   2.248 -31.362  1.00  0.00     0.004 C 
HETATM    9  C   UNL     1      -4.622   1.994 -32.746  1.00  0.00     0.033 C 
HETATM   10  C   UNL     1      -7.000   1.308 -31.430  1.00  0.00     0.035 C 
HETATM   11  C   UNL     1      -8.625   0.350 -31.654  1.00  0.00     0.030 C 
HETATM   12  C   UNL     1      -9.227  -0.021 -33.429  1.00  0.00     0.235 C 
ENDROOT
BRANCH   5  13
HETATM   13  S   UNL     1      -6.143   5.095 -33.550  1.00  0.00     0.225 S 
HETATM   14  C   UNL     1      -5.848   6.565 -32.587  1.00  0.00     0.186 C 
HETATM   15  O   UNL     1      -4.975   4.935 -34.383  1.00  0.00    -0.206 OA
HETATM   16  O   UNL     1      -7.469   5.206 -34.113  1.00  0.00    -0.206 OA
ENDBRANCH   5  13
BRANCH   1  17
HETATM   17  C   UNL     1      -7.454   0.657 -33.430  1.00  0.00     0.299 C 
BRANCH  17  18
HETATM   18  C   UNL     1      -6.326  -0.849 -33.775  1.00  0.00     0.079 A 
HETATM   19  O   UNL     1      -7.008  -1.954 -34.305  1.00  0.00    -0.318 OA
HETATM   20  C   UNL     1      -6.144  -2.978 -34.499  1.00  0.00     0.049 A 
HETATM   21  C   UNL     1      -6.720  -4.253 -34.970  1.00  0.00     0.076 C 
HETATM   22  C   UNL     1      -4.874  -2.581 -34.183  1.00  0.00     0.035 A 
HETATM   23  C   UNL     1      -4.973  -1.234 -33.748  1.00  0.00     0.037 A 
ENDBRANCH  17  18
ENDBRANCH   1  17
TORSDOF 3
ENDMDL
MODEL 2
REMARK VINA RESULT:      -7.6     15.574     17.150
REMARK  3 active torsions:
REMARK  status: ('A' for Active; 'I' for Inactive)
REMARK    1  A    between atoms: C_4  and  C_5 
REMARK    2  A    between atoms: C_5  and  N_6 
REMARK    3  A    between atoms: N_10  and  S_11 
ROOT
HETATM    1  N   UNL     1      -7.897 -14.311 -37.305  1.00  0.00    -0.063 N 
HETATM    2  H   UNL     1      -8.789 -13.842 -37.493  1.00  0.00     0.280 HD
HETATM    3  C   UNL     1      -6.449 -13.245 -37.840  1.00  0.00     0.267 C 
HETATM    4  C   UNL     1      -5.464 -14.063 -39.297  1.00  0.00     0.067 C 
HETATM    5  N   UNL     1      -3.955 -14.050 -39.101  1.00  0.00    -0.300 N 
HETATM    6  C   UNL     1      -3.156 -14.641 -40.215  1.00  0.00     0.136 C 
HETATM    7  C   UNL     1      -3.450 -13.932 -41.534  1.00  0.00     0.021 C 
HETATM    8  C   UNL     1      -4.936 -13.714 -41.795  1.00  0.00     0.004 C 
HETATM    9  C   UNL     1      -5.678 -13.172 -40.568  1.00  0.00     0.033 C 
HETATM   10  C   UNL     1      -6.026 -15.837 -39.771  1.00  0.00     0.035 C 
HETATM   11  C   UNL     1      -7.102 -16.954 -38.675  1.00  0.00     0.030 C 
HETATM   12  C   UNL     1      -8.084 -16.154 -37.245  1.00  0.00     0.235 C 
ENDROOT
BRANCH   5  13
HETATM   13  S   UNL     1      -3.128 -12.933 -38.116  1.00  0.00     0.225 S 
HETATM   14  C   UNL     1      -1.412 -13.071 -38.575  1.00  0.00     0.186 C 
HETATM   15  O   UNL     1      -3.526 -11.597 -38.493  1.00  0.00    -0.206 OA
HETATM   16  O   UNL     1      -3.251 -13.407 -36.757  1.00  0.00    -0.206 OA
ENDBRANCH   5  13
BRANCH   1  17
HETATM   17  C   UNL     1      -7.339 -14.837 -38.390  1.00  0.00     0.299 C 
BRANCH  17  18
HETATM   18  C   UNL     1      -8.919 -14.398 -39.375  1.00  0.00     0.079 A 
HETATM   19  O   UNL     1      -9.098 -13.020 -39.567  1.00  0.00    -0.318 OA
HETATM   20  C   UNL     1     -10.245 -12.796 -40.251  1.00  0.00     0.049 A 
HETATM   21  C   UNL     1     -10.629 -11.386 -40.459  1.00  0.00     0.076 C 
HETATM   22  C   UNL     1     -10.821 -13.988 -40.595  1.00  0.00     0.035 A 
HETATM   23  C   UNL     1      -9.982 -15.004 -40.069  1.00  0.00     0.037 A 
ENDBRANCH  17  18
ENDBRANCH   1  17
TORSDOF 3
ENDMDL
MODEL 3
REMARK VINA RESULT:      -7.5      2.506      3.481
REMARK  3 active torsions:
REMARK  status: ('A' for Active; 'I' for Inactive)
REMARK    1  A    between atoms: C_4  and  C_5 
REMARK    2  A    between atoms: C_5  and  N_6 
REMARK    3  A    between atoms: N_10  and  S_11 
ROOT
HETATM    1  N   UNL     1      -6.853   1.851 -31.077  1.00  0.00    -0.063 N 
HETATM    2  H   UNL     1      -7.530   1.561 -31.789  1.00  0.00     0.280 HD
HETATM    3  C   UNL     1      -6.261   3.605 -31.381  1.00  0.00     0.267 C 
HETATM    4  C   UNL     1      -4.371   3.654 -31.811  1.00  0.00     0.067 C 
HETATM    5  N   UNL     1      -3.595   4.718 -31.049  1.00  0.00    -0.300 N 
HETATM    6  C   UNL     1      -2.141   4.811 -31.375  1.00  0.00     0.136 C 
HETATM    7  C   UNL     1      -1.931   5.073 -32.864  1.00  0.00     0.021 C 
HETATM    8  C   UNL     1      -2.782   4.189 -33.768  1.00  0.00     0.004 C 
HETATM    9  C   UNL     1      -4.241   4.103 -33.307  1.00  0.00     0.033 C 
HETATM   10  C   UNL     1      -3.454   1.973 -31.663  1.00  0.00     0.035 C 
HETATM   11  C   UNL     1      -4.125   0.459 -30.733  1.00  0.00     0.030 C 
HETATM   12  C   UNL     1      -5.988   0.398 -30.315  1.00  0.00     0.235 C 
ENDROOT
BRANCH   5  13
HETATM   13  S   UNL     1      -4.295   6.127 -30.396  1.00  0.00     0.225 S 
HETATM   14  C   UNL     1      -2.926   7.132 -29.855  1.00  0.00     0.186 C 
HETATM   15  O   UNL     1      -4.925   6.870 -31.462  1.00  0.00    -0.206 OA
HETATM   16  O   UNL     1      -5.025   5.721 -29.218  1.00  0.00    -0.206 OA
ENDBRANCH   5  13
BRANCH   1  17
HETATM   17  C   UNL     1      -5.595   1.825 -31.504  1.00  0.00     0.299 C 
BRANCH  17  18
HETATM   18  C   UNL     1      -6.213   1.139 -33.179  1.00  0.00     0.079 A 
HETATM   19  O   UNL     1      -6.296  -0.261 -33.218  1.00  0.00    -0.318 OA
HETATM   20  C   UNL     1      -6.720  -0.662 -34.440  1.00  0.00     0.049 A 
HETATM   21  C   UNL     1      -6.775  -2.118 -34.678  1.00  0.00     0.076 C 
HETATM   22  C   UNL     1      -6.998   0.428 -35.217  1.00  0.00     0.035 A 
HETATM   23  C   UNL     1      -6.706   1.569 -34.425  1.00  0.00     0.037 A 
ENDBRANCH  17  18
ENDBRANCH   1  17
TORSDOF 3
ENDMDL
MODEL 4
REMARK VINA RESULT:      -7.1      2.028      2.963
REMARK  3 active torsions:
REMARK  status: ('A' for Active; 'I' for Inactive)
REMARK    1  A    between atoms: C_4  and  C_5 
REMARK    2  A    between atoms: C_5  and  N_6 
REMARK    3  A    between atoms: N_10  and  S_11 
ROOT
HETATM    1  N   UNL     1      -7.833   0.488 -31.074  1.00  0.00    -0.063 N 
HETATM    2  H   UNL     1      -8.185  -0.230 -31.714  1.00  0.00     0.280 HD
HETATM    3  C   UNL     1      -8.303   2.207 -31.661  1.00  0.00     0.267 C 
HETATM    4  C   UNL     1      -6.738   3.246 -32.143  1.00  0.00     0.067 C 
HETATM    5  N   UNL     1      -6.740   4.658 -31.576  1.00  0.00    -0.300 N 
HETATM    6  C   UNL     1      -5.568   5.504 -31.950  1.00  0.00     0.136 C 
HETATM    7  C   UNL     1      -5.443   5.623 -33.467  1.00  0.00     0.021 C 
HETATM    8  C   UNL     1      -5.594   4.295 -34.201  1.00  0.00     0.004 C 
HETATM    9  C   UNL     1      -6.783   3.472 -33.694  1.00  0.00     0.033 C 
HETATM   10  C   UNL     1      -5.051   2.412 -31.761  1.00  0.00     0.035 C 
HETATM   11  C   UNL     1      -4.822   0.934 -30.589  1.00  0.00     0.030 C 
HETATM   12  C   UNL     1      -6.357  -0.102 -30.119  1.00  0.00     0.235 C 
ENDROOT
BRANCH   5  13
HETATM   13  S   UNL     1      -8.148   5.508 -31.132  1.00  0.00     0.225 S 
HETATM   14  C   UNL     1      -7.630   7.195 -30.888  1.00  0.00     0.186 C 
HETATM   15  O   UNL     1      -9.049   5.536 -32.259  1.00  0.00    -0.206 OA
HETATM   16  O   UNL     1      -8.557   4.991 -29.846  1.00  0.00    -0.206 OA
ENDBRANCH   5  13
BRANCH   1  17
HETATM   17  C   UNL     1      -6.750   1.112 -31.524  1.00  0.00     0.299 C 
BRANCH  17  18
HETATM   18  C   UNL     1      -6.806   0.010 -33.087  1.00  0.00     0.079 A 
HETATM   19  O   UNL     1      -5.881  -1.044 -33.066  1.00  0.00    -0.318 OA
HETATM   20  C   UNL     1      -5.972  -1.759 -34.212  1.00  0.00     0.049 A 
HETATM   21  C   UNL     1      -5.000  -2.856 -34.390  1.00  0.00     0.076 C 
HETATM   22  C   UNL     1      -6.985  -1.266 -34.988  1.00  0.00     0.035 A 
HETATM   23  C   UNL     1      -7.533  -0.166 -34.278  1.00  0.00     0.037 A 
ENDBRANCH  17  18
ENDBRANCH   1  17
TORSDOF 3
ENDMDL
MODEL 5
REMARK VINA RESULT:      -7.1     15.544     17.819
REMARK  3 active torsions:
REMARK  status: ('A' for Active; 'I' for Inactive)
REMARK    1  A    between atoms: C_4  and  C_5 
REMARK    2  A    between atoms: C_5  and  N_6 
REMARK    3  A    between atoms: N_10  and  S_11 
ROOT
HETATM    1  N   UNL     1      -7.148 -12.469 -38.340  1.00  0.00    -0.063 N 
HETATM    2  H   UNL     1      -7.975 -11.958 -38.665  1.00  0.00     0.280 HD
HETATM    3  C   UNL     1      -5.993 -12.863 -39.765  1.00  0.00     0.267 C 
HETATM    4  C   UNL     1      -5.860 -14.774 -40.064  1.00  0.00     0.067 C 
HETATM    5  N   UNL     1      -4.433 -15.271 -40.239  1.00  0.00    -0.300 N 
HETATM    6  C   UNL     1      -4.287 -16.732 -40.505  1.00  0.00     0.136 C 
HETATM    7  C   UNL     1      -5.067 -17.141 -41.751  1.00  0.00     0.021 C 
HETATM    8  C   UNL     1      -6.480 -16.570 -41.805  1.00  0.00     0.004 C 
HETATM    9  C   UNL     1      -6.529 -15.081 -41.448  1.00  0.00     0.033 C 
HETATM   10  C   UNL     1      -6.757 -15.871 -38.768  1.00  0.00     0.035 C 
HETATM   11  C   UNL     1      -7.334 -15.267 -37.062  1.00  0.00     0.030 C 
HETATM   12  C   UNL     1      -7.479 -13.385 -36.762  1.00  0.00     0.235 C 
ENDROOT
BRANCH   5  13
HETATM   13  S   UNL     1      -3.139 -14.295 -40.767  1.00  0.00     0.225 S 
HETATM   14  C   UNL     1      -1.825 -15.425 -41.177  1.00  0.00     0.186 C 
HETATM   15  O   UNL     1      -3.511 -13.663 -42.011  1.00  0.00    -0.206 OA
HETATM   16  O   UNL     1      -2.706 -13.525 -39.624  1.00  0.00    -0.206 OA
ENDBRANCH   5  13
BRANCH   1  17
HETATM   17  C   UNL     1      -7.196 -13.771 -38.599  1.00  0.00     0.299 C 
BRANCH  17  18
HETATM   18  C   UNL     1      -8.939 -13.523 -39.348  1.00  0.00     0.079 A 
HETATM   19  O   UNL     1      -9.185 -12.211 -39.780  1.00  0.00    -0.318 OA
HETATM   20  C   UNL     1     -10.441 -12.118 -40.275  1.00  0.00     0.049 A 
HETATM   21  C   UNL     1     -10.893 -10.776 -40.692  1.00  0.00     0.076 C 
HETATM   22  C   UNL     1     -11.040 -13.348 -40.259  1.00  0.00     0.035 A 
HETATM   23  C   UNL     1     -10.094 -14.245 -39.699  1.00  0.00     0.037 A 
ENDBRANCH  17  18
ENDBRANCH   1  17
TORSDOF 3
ENDMDL
MODEL 6
REMARK VINA RESULT:      -7.1     15.667     17.190
REMARK  3 active torsions:
REMARK  status: ('A' for Active; 'I' for Inactive)
REMARK    1  A    between atoms: C_4  and  C_5 
REMARK    2  A    between atoms: C_5  and  N_6 
REMARK    3  A    between atoms: N_10  and  S_11 
ROOT
HETATM    1  N   UNL     1      -6.757 -14.759 -40.897  1.00  0.00    -0.063 N 
HETATM    2  H   UNL     1      -7.717 -14.910 -41.222  1.00  0.00     0.280 HD
HETATM    3  C   UNL     1      -6.454 -15.622 -39.259  1.00  0.00     0.267 C 
HETATM    4  C   UNL     1      -6.104 -14.349 -37.839  1.00  0.00     0.067 C 
HETATM    5  N   UNL     1      -4.908 -14.710 -36.971  1.00  0.00    -0.300 N 
HETATM    6  C   UNL     1      -4.622 -13.773 -35.845  1.00  0.00     0.136 C 
HETATM    7  C   UNL     1      -5.831 -13.645 -34.922  1.00  0.00     0.021 C 
HETATM    8  C   UNL     1      -7.150 -13.449 -35.662  1.00  0.00     0.004 C 
HETATM    9  C   UNL     1      -7.313 -14.412 -36.843  1.00  0.00     0.033 C 
HETATM   10  C   UNL     1      -5.951 -12.518 -38.399  1.00  0.00     0.035 C 
HETATM   11  C   UNL     1      -5.672 -11.962 -40.193  1.00  0.00     0.030 C 
HETATM   12  C   UNL     1      -6.025 -13.207 -41.599  1.00  0.00     0.235 C 
ENDROOT
BRANCH   5  13
HETATM   13  S   UNL     1      -4.309 -16.294 -36.780  1.00  0.00     0.225 S 
HETATM   14  C   UNL     1      -3.196 -16.219 -35.390  1.00  0.00     0.186 C 
HETATM   15  O   UNL     1      -5.392 -17.153 -36.365  1.00  0.00    -0.206 OA
HETATM   16  O   UNL     1      -3.516 -16.582 -37.953  1.00  0.00    -0.206 OA
ENDBRANCH   5  13
BRANCH   1  17
HETATM   17  C   UNL     1      -6.662 -13.852 -39.932  1.00  0.00     0.299 C 
BRANCH  17  18
HETATM   18  C   UNL     1      -8.563 -13.648 -39.983  1.00  0.00     0.079 A 
HETATM   19  O   UNL     1      -8.981 -12.364 -40.363  1.00  0.00    -0.318 OA
HETATM   20  C   UNL     1     -10.333 -12.299 -40.354  1.00  0.00     0.049 A 
HETATM   21  C   UNL     1     -10.938 -10.983 -40.643  1.00  0.00     0.076 C 
HETATM   22  C   UNL     1     -10.856 -13.526 -40.047  1.00  0.00     0.035 A 
HETATM   23  C   UNL     1      -9.749 -14.389 -39.835  1.00  0.00     0.037 A 
ENDBRANCH  17  18
ENDBRANCH   1  17
TORSDOF 3
ENDMDL
MODEL 7
REMARK VINA RESULT:      -7.0      3.060      4.325
REMARK  3 active torsions:
REMARK  status: ('A' for Active; 'I' for Inactive)
REMARK    1  A    between atoms: C_4  and  C_5 
REMARK    2  A    between atoms: C_5  and  N_6 
REMARK    3  A    between atoms: N_10  and  S_11 
ROOT
HETATM    1  N   UNL     1      -7.071   2.161 -29.761  1.00  0.00    -0.063 N 
HETATM    2  H   UNL     1      -8.022   1.838 -29.966  1.00  0.00     0.280 HD
HETATM    3  C   UNL     1      -6.808   3.916 -30.368  1.00  0.00     0.267 C 
HETATM    4  C   UNL     1      -5.487   3.988 -31.786  1.00  0.00     0.067 C 
HETATM    5  N   UNL     1      -4.452   5.088 -31.606  1.00  0.00    -0.300 N 
HETATM    6  C   UNL     1      -3.435   5.199 -32.693  1.00  0.00     0.136 C 
HETATM    7  C   UNL     1      -4.104   5.422 -34.047  1.00  0.00     0.021 C 
HETATM    8  C   UNL     1      -5.287   4.495 -34.305  1.00  0.00     0.004 C 
HETATM    9  C   UNL     1      -6.233   4.396 -33.104  1.00  0.00     0.033 C 
HETATM   10  C   UNL     1      -4.592   2.330 -32.157  1.00  0.00     0.035 C 
HETATM   11  C   UNL     1      -4.577   0.831 -30.989  1.00  0.00     0.030 C 
HETATM   12  C   UNL     1      -5.882   0.747 -29.597  1.00  0.00     0.235 C 
ENDROOT
BRANCH   5  13
HETATM   13  S   UNL     1      -4.709   6.502 -30.692  1.00  0.00     0.225 S 
HETATM   14  C   UNL     1      -3.363   7.592 -31.110  1.00  0.00     0.186 C 
HETATM   15  O   UNL     1      -5.903   7.156 -31.174  1.00  0.00    -0.206 OA
HETATM   16  O   UNL     1      -4.552   6.134 -29.304  1.00  0.00    -0.206 OA
ENDBRANCH   5  13
BRANCH   1  17
HETATM   17  C   UNL     1      -6.269   2.146 -30.820  1.00  0.00     0.299 C 
BRANCH  17  18
HETATM   18  C   UNL     1      -7.669   1.316 -31.826  1.00  0.00     0.079 A 
HETATM   19  O   UNL     1      -8.755   2.165 -32.085  1.00  0.00    -0.318 OA
HETATM   20  C   UNL     1      -9.705   1.496 -32.780  1.00  0.00     0.049 A 
HETATM   21  C   UNL     1     -10.960   2.223 -33.058  1.00  0.00     0.076 C 
HETATM   22  C   UNL     1      -9.269   0.232 -33.066  1.00  0.00     0.035 A 
HETATM   23  C   UNL     1      -7.977   0.115 -32.491  1.00  0.00     0.037 A 
ENDBRANCH  17  18
ENDBRANCH   1  17
TORSDOF 3
ENDMDL
MODEL 8
REMARK VINA RESULT:      -6.9      2.957      5.174
REMARK  3 active torsions:
REMARK  status: ('A' for Active; 'I' for Inactive)
REMARK    1  A    between atoms: C_4  and  C_5 
REMARK    2  A    between atoms: C_5  and  N_6 
REMARK    3  A    between atoms: N_10  and  S_11 
ROOT
HETATM    1  N   UNL     1      -5.311   0.953 -33.065  1.00  0.00    -0.063 N 
HETATM    2  H   UNL     1      -4.449   1.346 -33.457  1.00  0.00     0.280 HD
HETATM    3  C   UNL     1      -6.809   1.948 -33.597  1.00  0.00     0.267 C 
HETATM    4  C   UNL     1      -7.663   2.812 -32.085  1.00  0.00     0.067 C 
HETATM    5  N   UNL     1      -9.176   2.651 -32.059  1.00  0.00    -0.300 N 
HETATM    6  C   UNL     1      -9.876   3.329 -30.929  1.00  0.00     0.136 C 
HETATM    7  C   UNL     1      -9.577   4.825 -30.919  1.00  0.00     0.021 C 
HETATM    8  C   UNL     1      -8.101   5.157 -31.111  1.00  0.00     0.004 C 
HETATM    9  C   UNL     1      -7.459   4.357 -32.249  1.00  0.00     0.033 C 
HETATM   10  C   UNL     1      -6.948   2.346 -30.364  1.00  0.00     0.035 C 
HETATM   11  C   UNL     1      -5.841   0.837 -30.032  1.00  0.00     0.030 C 
HETATM   12  C   UNL     1      -4.988  -0.012 -31.515  1.00  0.00     0.235 C 
ENDROOT
BRANCH   5  13
HETATM   13  S   UNL     1     -10.128   2.349 -33.439  1.00  0.00     0.225 S 
HETATM   14  C   UNL     1     -11.795   2.766 -32.969  1.00  0.00     0.186 C 
HETATM   15  O   UNL     1      -9.766   3.294 -34.469  1.00  0.00    -0.206 OA
HETATM   16  O   UNL     1     -10.088   0.923 -33.668  1.00  0.00    -0.206 OA
ENDBRANCH   5  13
BRANCH   1  17
HETATM   17  C   UNL     1      -5.778   1.637 -32.026  1.00  0.00     0.299 C 
BRANCH  17  18
HETATM   18  C   UNL     1      -4.252   2.785 -32.139  1.00  0.00     0.079 A 
HETATM   19  O   UNL     1      -4.262   3.627 -33.260  1.00  0.00    -0.318 OA
HETATM   20  C   UNL     1      -3.142   4.387 -33.275  1.00  0.00     0.049 A 
HETATM   21  C   UNL     1      -2.953   5.269 -34.444  1.00  0.00     0.076 C 
HETATM   22  C   UNL     1      -2.397   4.140 -32.155  1.00  0.00     0.035 A 
HETATM   23  C   UNL     1      -3.099   3.149 -31.420  1.00  0.00     0.037 A 
ENDBRANCH  17  18
ENDBRANCH   1  17
TORSDOF 3
ENDMDL
MODEL 9
REMARK VINA RESULT:      -6.9      4.933      9.080
REMARK  3 active torsions:
REMARK  status: ('A' for Active; 'I' for Inactive)
REMARK    1  A    between atoms: C_4  and  C_5 
REMARK    2  A    between atoms: C_5  and  N_6 
REMARK    3  A    between atoms: N_10  and  S_11 
ROOT
HETATM    1  N   UNL     1      -3.220   7.856 -28.904  1.00  0.00    -0.063 N 
HETATM    2  H   UNL     1      -2.641   7.621 -28.092  1.00  0.00     0.280 HD
HETATM    3  C   UNL     1      -3.666   6.320 -29.883  1.00  0.00     0.267 C 
HETATM    4  C   UNL     1      -2.877   6.352 -31.655  1.00  0.00     0.067 C 
HETATM    5  N   UNL     1      -3.847   5.979 -32.766  1.00  0.00    -0.300 N 
HETATM    6  C   UNL     1      -3.272   5.960 -34.143  1.00  0.00     0.136 C 
HETATM    7  C   UNL     1      -2.091   4.997 -34.228  1.00  0.00     0.021 C 
HETATM    8  C   UNL     1      -1.105   5.133 -33.073  1.00  0.00     0.004 C 
HETATM    9  C   UNL     1      -1.799   5.215 -31.710  1.00  0.00     0.033 C 
HETATM   10  C   UNL     1      -1.976   7.983 -32.121  1.00  0.00     0.035 C 
HETATM   11  C   UNL     1      -2.193   9.632 -31.204  1.00  0.00     0.030 C 
HETATM   12  C   UNL     1      -2.959   9.608 -29.453  1.00  0.00     0.235 C 
ENDROOT
BRANCH   5  13
HETATM   13  S   UNL     1      -5.242   5.028 -32.538  1.00  0.00     0.225 S 
HETATM   14  C   UNL     1      -5.744   4.518 -34.170  1.00  0.00     0.186 C 
HETATM   15  O   UNL     1      -4.870   3.816 -31.849  1.00  0.00    -0.206 OA
HETATM   16  O   UNL     1      -6.267   5.909 -32.027  1.00  0.00    -0.206 OA
ENDBRANCH   5  13
BRANCH   1  17
HETATM   17  C   UNL     1      -2.548   7.853 -30.050  1.00  0.00     0.299 C 
BRANCH  17  18
HETATM   18  C   UNL     1      -0.973   7.353 -29.086  1.00  0.00     0.079 A 
HETATM   19  O   UNL     1      -0.280   8.442 -28.536  1.00  0.00    -0.318 OA
HETATM   20  C   UNL     1       0.827   8.003 -27.892  1.00  0.00     0.049 A 
HETATM   21  C   UNL     1       1.720   9.036 -27.329  1.00  0.00     0.076 C 
HETATM   22  C   UNL     1       0.875   6.637 -27.926  1.00  0.00     0.035 A 
HETATM   23  C   UNL     1      -0.267   6.215 -28.655  1.00  0.00     0.037 A 
ENDBRANCH  17  18
ENDBRANCH   1  17
TORSDOF 3
ENDMDL
MODEL 10
REMARK VINA RESULT:      -6.8      2.643      3.845
REMARK  3 active torsions:
REMARK  status: ('A' for Active; 'I' for Inactive)
REMARK    1  A    between atoms: C_4  and  C_5 
REMARK    2  A    between atoms: C_5  and  N_6 
REMARK    3  A    between atoms: N_10  and  S_11 
ROOT
HETATM    1  N   UNL     1      -5.122  -0.003 -30.902  1.00  0.00    -0.063 N 
HETATM    2  H   UNL     1      -5.237  -0.973 -31.210  1.00  0.00     0.280 HD
HETATM    3  C   UNL     1      -6.776   0.879 -30.812  1.00  0.00     0.267 C 
HETATM    4  C   UNL     1      -6.884   2.320 -32.105  1.00  0.00     0.067 C 
HETATM    5  N   UNL     1      -7.426   3.621 -31.530  1.00  0.00    -0.300 N 
HETATM    6  C   UNL     1      -7.557   4.748 -32.500  1.00  0.00     0.136 C 
HETATM    7  C   UNL     1      -8.455   4.359 -33.671  1.00  0.00     0.021 C 
HETATM    8  C   UNL     1      -8.142   2.985 -34.253  1.00  0.00     0.004 C 
HETATM    9  C   UNL     1      -7.957   1.914 -33.173  1.00  0.00     0.033 C 
HETATM   10  C   UNL     1      -5.263   2.681 -33.068  1.00  0.00     0.035 C 
HETATM   11  C   UNL     1      -3.541   2.072 -32.544  1.00  0.00     0.030 C 
HETATM   12  C   UNL     1      -3.426   0.644 -31.279  1.00  0.00     0.235 C 
ENDROOT
BRANCH   5  13
HETATM   13  S   UNL     1      -8.426   3.714 -30.154  1.00  0.00     0.225 S 
HETATM   14  C   UNL     1      -9.001   5.400 -30.096  1.00  0.00     0.186 C 
HETATM   15  O   UNL     1      -9.603   2.909 -30.380  1.00  0.00    -0.206 OA
HETATM   16  O   UNL     1      -7.574   3.509 -29.006  1.00  0.00    -0.206 OA
ENDBRANCH   5  13
BRANCH   1  17
HETATM   17  C   UNL     1      -5.207   0.879 -31.893  1.00  0.00     0.299 C 
BRANCH  17  18
HETATM   18  C   UNL     1      -5.473  -0.569 -33.114  1.00  0.00     0.079 A 
HETATM   19  O   UNL     1      -4.539  -1.606 -32.970  1.00  0.00    -0.318 OA
HETATM   20  C   UNL     1      -4.786  -2.576 -33.881  1.00  0.00     0.049 A 
HETATM   21  C   UNL     1      -3.834  -3.705 -33.924  1.00  0.00     0.076 C 
HETATM   22  C   UNL     1      -5.907  -2.266 -34.600  1.00  0.00     0.035 A 
HETATM   23  C   UNL     1      -6.362  -1.014 -34.109  1.00  0.00     0.037 A 
ENDBRANCH  17  18
ENDBRANCH   1  17
TORSDOF 3
ENDMDL
