MODEL 1
REMARK VINA RESULT:      -8.7      0.000      0.000
REMARK  6 active torsions:
REMARK  status: ('A' for Active; 'I' for Inactive)
REMARK    1  A    between atoms: C_2  and  O_3 
REMARK    2  A    between atoms: O_3  and  C_4 
REMARK    3  A    between atoms: C_5  and  C_6 
REMARK    4  A    between atoms: C_10  and  C_11 
REMARK       I    between atoms: C_11  and  N_12 
REMARK    5  A    between atoms: N_12  and  N_13 
REMARK    6  A    between atoms: C_14  and  C_15 
ROOT
HETATM    1  C   UNL     1      -2.053   4.372 -31.843  1.00  0.00     0.289 C 
HETATM    2  N   UNL     1      -2.727   3.280 -31.317  1.00  0.00    -0.242 N 
HETATM    3  O   UNL     1      -1.813   4.533 -33.036  1.00  0.00    -0.264 OA
HETATM    4  H   UNL     1      -2.874   3.205 -30.321  1.00  0.00     0.192 HD
ENDROOT
BRANCH   1   5
HETATM    5  C   UNL     1      -1.637   5.343 -30.862  1.00  0.00     0.121 A 
HETATM    6  N   UNL     1      -2.406   6.433 -30.569  1.00  0.00    -0.272 N 
HETATM    7  N   UNL     1      -1.892   7.235 -29.625  1.00  0.00    -0.174 NA
HETATM    8  H   UNL     1      -3.302   6.672 -30.985  1.00  0.00     0.189 HD
HETATM    9  C   UNL     1      -0.721   6.664 -29.294  1.00  0.00     0.092 A 
HETATM   10  C   UNL     1      -0.535   5.465 -30.039  1.00  0.00     0.071 A 
BRANCH   9  11
HETATM   11  C   UNL     1       0.154   7.247 -28.263  1.00  0.00     0.028 A 
HETATM   12  C   UNL     1       0.150   6.813 -26.919  1.00  0.00     0.081 A 
HETATM   13  C   UNL     1       0.997   7.441 -25.993  1.00  0.00     0.038 A 
HETATM   14  C   UNL     1       1.852   8.473 -26.389  1.00  0.00     0.003 A 
HETATM   15  C   UNL     1       1.872   8.891 -27.713  1.00  0.00     0.001 A 
HETATM   16  C   UNL     1       1.030   8.281 -28.642  1.00  0.00     0.017 A 
BRANCH  12  17
HETATM   17  O   UNL     1      -0.698   5.786 -26.586  1.00  0.00    -0.351 OA
BRANCH  17  18
HETATM   18  C   UNL     1      -1.660   6.018 -25.560  1.00  0.00     0.171 C 
HETATM   19  C   UNL     1      -2.741   6.918 -26.134  1.00  0.00     0.034 C 
ENDBRANCH  17  18
ENDBRANCH  12  17
ENDBRANCH   9  11
ENDBRANCH   1   5
BRANCH   2  20
HETATM   20  N   UNL     1      -3.205   2.299 -32.143  1.00  0.00    -0.183 NA
HETATM   21  C   UNL     1      -3.471   1.169 -31.571  1.00  0.00     0.152 C 
BRANCH  21  22
HETATM   22  C   UNL     1      -3.994   0.072 -32.357  1.00  0.00     0.011 A 
HETATM   23  C   UNL     1      -5.127   0.093 -33.234  1.00  0.00     0.004 A 
HETATM   24  C   UNL     1      -5.252  -1.185 -33.782  1.00  0.00     0.043 A 
HETATM   25  C   UNL     1      -6.061   1.080 -33.616  1.00  0.00     0.014 A 
HETATM   26  C   UNL     1      -6.261  -1.525 -34.693  1.00  0.00     0.030 A 
HETATM   27  N   UNL     1      -4.239  -1.954 -33.259  1.00  0.00    -0.364 N 
HETATM   28  C   UNL     1      -7.171  -0.528 -35.054  1.00  0.00     0.002 A 
HETATM   29  C   UNL     1      -7.075   0.757 -34.525  1.00  0.00     0.001 A 
HETATM   30  H   UNL     1      -4.082  -2.927 -33.480  1.00  0.00     0.165 HD
HETATM   31  C   UNL     1      -3.478  -1.210 -32.402  1.00  0.00     0.102 A 
ENDBRANCH  21  22
ENDBRANCH   2  20
TORSDOF 6
ENDMDL
MODEL 2
REMARK VINA RESULT:      -8.5      7.273     11.357
REMARK  6 active torsions:
REMARK  status: ('A' for Active; 'I' for Inactive)
REMARK    1  A    between atoms: C_2  and  O_3 
REMARK    2  A    between atoms: O_3  and  C_4 
REMARK    3  A    between atoms: C_5  and  C_6 
REMARK    4  A    between atoms: C_10  and  C_11 
REMARK       I    between atoms: C_11  and  N_12 
REMARK    5  A    between atoms: N_12  and  N_13 
REMARK    6  A    between atoms: C_14  and  C_15 
ROOT
HETATM    1  C   UNL     1      -9.799   1.271 -33.508  1.00  0.00     0.289 C 
HETATM    2  N   UNL     1     -10.942   1.249 -34.293  1.00  0.00    -0.242 N 
HETATM    3  O   UNL     1      -9.665   1.953 -32.496  1.00  0.00    -0.264 OA
HETATM    4  H   UNL     1     -10.976   0.676 -35.124  1.00  0.00     0.192 HD
ENDROOT
BRANCH   1   5
HETATM    5  C   UNL     1      -8.739   0.412 -33.974  1.00  0.00     0.121 A 
HETATM    6  N   UNL     1      -8.028   0.709 -35.101  1.00  0.00    -0.272 N 
HETATM    7  N   UNL     1      -7.066  -0.177 -35.397  1.00  0.00    -0.174 NA
HETATM    8  H   UNL     1      -8.157   1.517 -35.704  1.00  0.00     0.189 HD
HETATM    9  C   UNL     1      -7.159  -1.114 -34.437  1.00  0.00     0.092 A 
HETATM   10  C   UNL     1      -8.189  -0.767 -33.516  1.00  0.00     0.071 A 
BRANCH   9  11
HETATM   11  C   UNL     1      -6.251  -2.272 -34.402  1.00  0.00     0.028 A 
HETATM   12  C   UNL     1      -4.912  -2.183 -33.962  1.00  0.00     0.081 A 
HETATM   13  C   UNL     1      -4.104  -3.331 -33.986  1.00  0.00     0.038 A 
HETATM   14  C   UNL     1      -4.614  -4.557 -34.422  1.00  0.00     0.003 A 
HETATM   15  C   UNL     1      -5.936  -4.653 -34.839  1.00  0.00     0.001 A 
HETATM   16  C   UNL     1      -6.746  -3.519 -34.827  1.00  0.00     0.017 A 
BRANCH  12  17
HETATM   17  O   UNL     1      -4.466  -0.959 -33.530  1.00  0.00    -0.351 OA
BRANCH  17  18
HETATM   18  C   UNL     1      -3.876  -0.883 -32.233  1.00  0.00     0.171 C 
HETATM   19  C   UNL     1      -4.782  -0.029 -31.363  1.00  0.00     0.034 C 
ENDBRANCH  17  18
ENDBRANCH  12  17
ENDBRANCH   9  11
ENDBRANCH   1   5
BRANCH   2  20
HETATM   20  N   UNL     1     -12.036   1.994 -33.945  1.00  0.00    -0.183 NA
HETATM   21  C   UNL     1     -13.022   1.332 -33.432  1.00  0.00     0.152 C 
BRANCH  21  22
HETATM   22  C   UNL     1     -14.219   2.033 -33.019  1.00  0.00     0.011 A 
HETATM   23  C   UNL     1     -14.300   3.249 -32.267  1.00  0.00     0.004 A 
HETATM   24  C   UNL     1     -15.653   3.554 -32.112  1.00  0.00     0.043 A 
HETATM   25  C   UNL     1     -13.347   4.125 -31.701  1.00  0.00     0.014 A 
HETATM   26  C   UNL     1     -16.103   4.688 -31.423  1.00  0.00     0.030 A 
HETATM   27  N   UNL     1     -16.369   2.563 -32.742  1.00  0.00    -0.364 N 
HETATM   28  C   UNL     1     -15.138   5.538 -30.874  1.00  0.00     0.002 A 
HETATM   29  C   UNL     1     -13.780   5.262 -31.009  1.00  0.00     0.001 A 
HETATM   30  H   UNL     1     -17.377   2.523 -32.792  1.00  0.00     0.165 HD
HETATM   31  C   UNL     1     -15.518   1.643 -33.290  1.00  0.00     0.102 A 
ENDBRANCH  21  22
ENDBRANCH   2  20
TORSDOF 6
ENDMDL
MODEL 3
REMARK VINA RESULT:      -8.4      2.643      3.603
REMARK  6 active torsions:
REMARK  status: ('A' for Active; 'I' for Inactive)
REMARK    1  A    between atoms: C_2  and  O_3 
REMARK    2  A    between atoms: O_3  and  C_4 
REMARK    3  A    between atoms: C_5  and  C_6 
REMARK    4  A    between atoms: C_10  and  C_11 
REMARK       I    between atoms: C_11  and  N_12 
REMARK    5  A    between atoms: N_12  and  N_13 
REMARK    6  A    between atoms: C_14  and  C_15 
ROOT
HETATM    1  C   UNL     1      -3.813   5.573 -33.964  1.00  0.00     0.289 C 
HETATM    2  N   UNL     1      -4.431   4.581 -33.218  1.00  0.00    -0.242 N 
HETATM    3  O   UNL     1      -3.797   5.613 -35.191  1.00  0.00    -0.264 OA
HETATM    4  H   UNL     1      -4.389   4.603 -32.209  1.00  0.00     0.192 HD
ENDROOT
BRANCH   1   5
HETATM    5  C   UNL     1      -3.165   6.593 -33.177  1.00  0.00     0.121 A 
HETATM    6  N   UNL     1      -2.134   7.333 -33.682  1.00  0.00    -0.272 N 
HETATM    7  N   UNL     1      -1.648   8.252 -32.835  1.00  0.00    -0.174 NA
HETATM    8  H   UNL     1      -1.728   7.253 -34.609  1.00  0.00     0.189 HD
HETATM    9  C   UNL     1      -2.372   8.099 -31.712  1.00  0.00     0.092 A 
HETATM   10  C   UNL     1      -3.347   7.077 -31.898  1.00  0.00     0.071 A 
BRANCH   9  11
HETATM   11  C   UNL     1      -2.146   8.946 -30.530  1.00  0.00     0.028 A 
HETATM   12  C   UNL     1      -1.488   8.484 -29.370  1.00  0.00     0.081 A 
HETATM   13  C   UNL     1      -1.337   9.350 -28.275  1.00  0.00     0.038 A 
HETATM   14  C   UNL     1      -1.814  10.663 -28.329  1.00  0.00     0.003 A 
HETATM   15  C   UNL     1      -2.446  11.128 -29.475  1.00  0.00     0.001 A 
HETATM   16  C   UNL     1      -2.610  10.275 -30.567  1.00  0.00     0.017 A 
BRANCH  12  17
HETATM   17  O   UNL     1      -1.026   7.191 -29.375  1.00  0.00    -0.351 OA
BRANCH  17  18
HETATM   18  C   UNL     1       0.376   6.984 -29.536  1.00  0.00     0.171 C 
HETATM   19  C   UNL     1       0.584   6.228 -30.837  1.00  0.00     0.034 C 
ENDBRANCH  17  18
ENDBRANCH  12  17
ENDBRANCH   9  11
ENDBRANCH   1   5
BRANCH   2  20
HETATM   20  N   UNL     1      -5.110   3.569 -33.840  1.00  0.00    -0.183 NA
HETATM   21  C   UNL     1      -5.682   2.714 -33.055  1.00  0.00     0.152 C 
BRANCH  21  22
HETATM   22  C   UNL     1      -6.436   1.614 -33.616  1.00  0.00     0.011 A 
HETATM   23  C   UNL     1      -5.998   0.263 -33.799  1.00  0.00     0.004 A 
HETATM   24  C   UNL     1      -7.059  -0.446 -34.366  1.00  0.00     0.043 A 
HETATM   25  C   UNL     1      -4.796  -0.430 -33.535  1.00  0.00     0.014 A 
HETATM   26  C   UNL     1      -6.981  -1.809 -34.680  1.00  0.00     0.030 A 
HETATM   27  N   UNL     1      -8.100   0.439 -34.524  1.00  0.00    -0.364 N 
HETATM   28  C   UNL     1      -5.780  -2.469 -34.407  1.00  0.00     0.002 A 
HETATM   29  C   UNL     1      -4.701  -1.792 -33.844  1.00  0.00     0.001 A 
HETATM   30  H   UNL     1      -9.003   0.202 -34.913  1.00  0.00     0.165 HD
HETATM   31  C   UNL     1      -7.738   1.679 -34.078  1.00  0.00     0.102 A 
ENDBRANCH  21  22
ENDBRANCH   2  20
TORSDOF 6
ENDMDL
MODEL 4
REMARK VINA RESULT:      -8.3      1.969     10.332
REMARK  6 active torsions:
REMARK  status: ('A' for Active; 'I' for Inactive)
REMARK    1  A    between atoms: C_2  and  O_3 
REMARK    2  A    between atoms: O_3  and  C_4 
REMARK    3  A    between atoms: C_5  and  C_6 
REMARK    4  A    between atoms: C_10  and  C_11 
REMARK       I    between atoms: C_11  and  N_12 
REMARK    5  A    between atoms: N_12  and  N_13 
REMARK    6  A    between atoms: C_14  and  C_15 
ROOT
HETATM    1  C   UNL     1      -2.663   4.534 -31.227  1.00  0.00     0.289 C 
HETATM    2  N   UNL     1      -3.209   5.614 -30.548  1.00  0.00    -0.242 N 
HETATM    3  O   UNL     1      -1.485   4.446 -31.560  1.00  0.00    -0.264 OA
HETATM    4  H   UNL     1      -4.193   5.625 -30.321  1.00  0.00     0.192 HD
ENDROOT
BRANCH   1   5
HETATM    5  C   UNL     1      -3.603   3.484 -31.528  1.00  0.00     0.121 A 
HETATM    6  N   UNL     1      -4.591   3.140 -30.649  1.00  0.00    -0.272 N 
HETATM    7  N   UNL     1      -5.394   2.156 -31.079  1.00  0.00    -0.174 NA
HETATM    8  H   UNL     1      -4.764   3.557 -29.739  1.00  0.00     0.189 HD
HETATM    9  C   UNL     1      -4.905   1.818 -32.284  1.00  0.00     0.092 A 
HETATM   10  C   UNL     1      -3.789   2.642 -32.606  1.00  0.00     0.071 A 
BRANCH   9  11
HETATM   11  C   UNL     1      -5.530   0.763 -33.099  1.00  0.00     0.028 A 
HETATM   12  C   UNL     1      -5.309  -0.613 -32.873  1.00  0.00     0.081 A 
HETATM   13  C   UNL     1      -5.924  -1.554 -33.714  1.00  0.00     0.038 A 
HETATM   14  C   UNL     1      -6.762  -1.145 -34.755  1.00  0.00     0.003 A 
HETATM   15  C   UNL     1      -6.996   0.207 -34.971  1.00  0.00     0.001 A 
HETATM   16  C   UNL     1      -6.385   1.152 -34.148  1.00  0.00     0.017 A 
BRANCH  12  17
HETATM   17  O   UNL     1      -4.491  -0.961 -31.827  1.00  0.00    -0.351 OA
BRANCH  17  18
HETATM   18  C   UNL     1      -3.156  -1.364 -32.128  1.00  0.00     0.171 C 
HETATM   19  C   UNL     1      -3.068  -2.866 -31.915  1.00  0.00     0.034 C 
ENDBRANCH  17  18
ENDBRANCH  12  17
ENDBRANCH   9  11
ENDBRANCH   1   5
BRANCH   2  20
HETATM   20  N   UNL     1      -2.419   6.666 -30.172  1.00  0.00    -0.183 NA
HETATM   21  C   UNL     1      -2.579   7.078 -28.956  1.00  0.00     0.152 C 
BRANCH  21  22
HETATM   22  C   UNL     1      -1.781   8.178 -28.459  1.00  0.00     0.011 A 
HETATM   23  C   UNL     1      -0.520   8.102 -27.784  1.00  0.00     0.004 A 
HETATM   24  C   UNL     1      -0.120   9.409 -27.500  1.00  0.00     0.043 A 
HETATM   25  C   UNL     1       0.325   7.043 -27.386  1.00  0.00     0.014 A 
HETATM   26  C   UNL     1       1.079   9.711 -26.841  1.00  0.00     0.030 A 
HETATM   27  N   UNL     1      -1.099  10.248 -27.980  1.00  0.00    -0.364 N 
HETATM   28  C   UNL     1       1.895   8.643 -26.460  1.00  0.00     0.002 A 
HETATM   29  C   UNL     1       1.526   7.327 -26.726  1.00  0.00     0.001 A 
HETATM   30  H   UNL     1      -1.076  11.256 -27.915  1.00  0.00     0.165 HD
HETATM   31  C   UNL     1      -2.101   9.520 -28.558  1.00  0.00     0.102 A 
ENDBRANCH  21  22
ENDBRANCH   2  20
TORSDOF 6
ENDMDL
MODEL 5
REMARK VINA RESULT:      -8.1      7.939     11.172
REMARK  6 active torsions:
REMARK  status: ('A' for Active; 'I' for Inactive)
REMARK    1  A    between atoms: C_2  and  O_3 
REMARK    2  A    between atoms: O_3  and  C_4 
REMARK    3  A    between atoms: C_5  and  C_6 
REMARK    4  A    between atoms: C_10  and  C_11 
REMARK       I    between atoms: C_11  and  N_12 
REMARK    5  A    between atoms: N_12  and  N_13 
REMARK    6  A    between atoms: C_14  and  C_15 
ROOT
HETATM    1  C   UNL     1      -9.200   2.228 -33.743  1.00  0.00     0.289 C 
HETATM    2  N   UNL     1      -8.954   1.237 -34.682  1.00  0.00    -0.242 N 
HETATM    3  O   UNL     1      -8.382   2.619 -32.915  1.00  0.00    -0.264 OA
HETATM    4  H   UNL     1      -9.681   0.953 -35.323  1.00  0.00     0.192 HD
ENDROOT
BRANCH   1   5
HETATM    5  C   UNL     1     -10.526   2.790 -33.804  1.00  0.00     0.121 A 
HETATM    6  N   UNL     1     -11.159   2.990 -34.997  1.00  0.00    -0.272 N 
HETATM    7  N   UNL     1     -12.393   3.505 -34.888  1.00  0.00    -0.174 NA
HETATM    8  H   UNL     1     -10.791   2.782 -35.921  1.00  0.00     0.189 HD
HETATM    9  C   UNL     1     -12.576   3.674 -33.567  1.00  0.00     0.092 A 
HETATM   10  C   UNL     1     -11.430   3.220 -32.854  1.00  0.00     0.071 A 
BRANCH   9  11
HETATM   11  C   UNL     1     -13.834   4.216 -33.029  1.00  0.00     0.028 A 
HETATM   12  C   UNL     1     -14.844   3.402 -32.471  1.00  0.00     0.081 A 
HETATM   13  C   UNL     1     -16.027   3.997 -32.004  1.00  0.00     0.038 A 
HETATM   14  C   UNL     1     -16.207   5.381 -32.071  1.00  0.00     0.003 A 
HETATM   15  C   UNL     1     -15.209   6.189 -32.604  1.00  0.00     0.001 A 
HETATM   16  C   UNL     1     -14.033   5.609 -33.078  1.00  0.00     0.017 A 
BRANCH  12  17
HETATM   17  O   UNL     1     -14.610   2.050 -32.415  1.00  0.00    -0.351 OA
BRANCH  17  18
HETATM   18  C   UNL     1     -15.076   1.246 -33.496  1.00  0.00     0.171 C 
HETATM   19  C   UNL     1     -13.961   0.285 -33.872  1.00  0.00     0.034 C 
ENDBRANCH  17  18
ENDBRANCH  12  17
ENDBRANCH   9  11
ENDBRANCH   1   5
BRANCH   2  20
HETATM   20  N   UNL     1      -7.724   0.642 -34.755  1.00  0.00    -0.183 NA
HETATM   21  C   UNL     1      -7.519  -0.321 -33.915  1.00  0.00     0.152 C 
BRANCH  21  22
HETATM   22  C   UNL     1      -6.253  -1.023 -33.923  1.00  0.00     0.011 A 
HETATM   23  C   UNL     1      -6.025  -2.401 -34.240  1.00  0.00     0.004 A 
HETATM   24  C   UNL     1      -4.653  -2.633 -34.123  1.00  0.00     0.043 A 
HETATM   25  C   UNL     1      -6.856  -3.478 -34.618  1.00  0.00     0.014 A 
HETATM   26  C   UNL     1      -4.071  -3.884 -34.366  1.00  0.00     0.030 A 
HETATM   27  N   UNL     1      -4.070  -1.445 -33.747  1.00  0.00    -0.364 N 
HETATM   28  C   UNL     1      -4.917  -4.931 -34.740  1.00  0.00     0.002 A 
HETATM   29  C   UNL     1      -6.290  -4.734 -34.864  1.00  0.00     0.001 A 
HETATM   30  H   UNL     1      -3.080  -1.315 -33.588  1.00  0.00     0.165 HD
HETATM   31  C   UNL     1      -5.021  -0.472 -33.623  1.00  0.00     0.102 A 
ENDBRANCH  21  22
ENDBRANCH   2  20
TORSDOF 6
ENDMDL
MODEL 6
REMARK VINA RESULT:      -8.1      1.964      2.512
REMARK  6 active torsions:
REMARK  status: ('A' for Active; 'I' for Inactive)
REMARK    1  A    between atoms: C_2  and  O_3 
REMARK    2  A    between atoms: O_3  and  C_4 
REMARK    3  A    between atoms: C_5  and  C_6 
REMARK    4  A    between atoms: C_10  and  C_11 
REMARK       I    between atoms: C_11  and  N_12 
REMARK    5  A    between atoms: N_12  and  N_13 
REMARK    6  A    between atoms: C_14  and  C_15 
ROOT
HETATM    1  C   UNL     1      -2.692   4.078 -31.832  1.00  0.00     0.289 C 
HETATM    2  N   UNL     1      -3.069   2.932 -31.147  1.00  0.00    -0.242 N 
HETATM    3  O   UNL     1      -2.256   4.089 -32.979  1.00  0.00    -0.264 OA
HETATM    4  H   UNL     1      -3.404   2.996 -30.196  1.00  0.00     0.192 HD
ENDROOT
BRANCH   1   5
HETATM    5  C   UNL     1      -2.851   5.299 -31.082  1.00  0.00     0.121 A 
HETATM    6  N   UNL     1      -3.959   5.524 -30.317  1.00  0.00    -0.272 N 
HETATM    7  N   UNL     1      -3.954   6.697 -29.668  1.00  0.00    -0.174 NA
HETATM    8  H   UNL     1      -4.750   4.898 -30.197  1.00  0.00     0.189 HD
HETATM    9  C   UNL     1      -2.803   7.286 -30.038  1.00  0.00     0.092 A 
HETATM   10  C   UNL     1      -2.077   6.428 -30.913  1.00  0.00     0.071 A 
BRANCH   9  11
HETATM   11  C   UNL     1      -2.415   8.608 -29.521  1.00  0.00     0.028 A 
HETATM   12  C   UNL     1      -1.657   8.780 -28.343  1.00  0.00     0.081 A 
HETATM   13  C   UNL     1      -1.353  10.078 -27.905  1.00  0.00     0.038 A 
HETATM   14  C   UNL     1      -1.776  11.196 -28.628  1.00  0.00     0.003 A 
HETATM   15  C   UNL     1      -2.508  11.033 -29.798  1.00  0.00     0.001 A 
HETATM   16  C   UNL     1      -2.823   9.748 -30.240  1.00  0.00     0.017 A 
BRANCH  12  17
HETATM   17  O   UNL     1      -1.253   7.649 -27.678  1.00  0.00    -0.351 OA
BRANCH  17  18
HETATM   18  C   UNL     1       0.147   7.450 -27.487  1.00  0.00     0.171 C 
HETATM   19  C   UNL     1       0.550   6.214 -28.273  1.00  0.00     0.034 C 
ENDBRANCH  17  18
ENDBRANCH  12  17
ENDBRANCH   9  11
ENDBRANCH   1   5
BRANCH   2  20
HETATM   20  N   UNL     1      -2.999   1.708 -31.753  1.00  0.00    -0.183 NA
HETATM   21  C   UNL     1      -3.998   0.916 -31.531  1.00  0.00     0.152 C 
BRANCH  21  22
HETATM   22  C   UNL     1      -4.024  -0.397 -32.140  1.00  0.00     0.011 A 
HETATM   23  C   UNL     1      -4.927  -0.872 -33.145  1.00  0.00     0.004 A 
HETATM   24  C   UNL     1      -4.571  -2.191 -33.434  1.00  0.00     0.043 A 
HETATM   25  C   UNL     1      -6.016  -0.305 -33.841  1.00  0.00     0.014 A 
HETATM   26  C   UNL     1      -5.247  -2.970 -34.381  1.00  0.00     0.030 A 
HETATM   27  N   UNL     1      -3.497  -2.508 -32.635  1.00  0.00    -0.364 N 
HETATM   28  C   UNL     1      -6.321  -2.383 -35.056  1.00  0.00     0.002 A 
HETATM   29  C   UNL     1      -6.703  -1.070 -34.791  1.00  0.00     0.001 A 
HETATM   30  H   UNL     1      -3.026  -3.402 -32.630  1.00  0.00     0.165 HD
HETATM   31  C   UNL     1      -3.160  -1.438 -31.853  1.00  0.00     0.102 A 
ENDBRANCH  21  22
ENDBRANCH   2  20
TORSDOF 6
ENDMDL
MODEL 7
REMARK VINA RESULT:      -8.0      1.932      2.620
REMARK  6 active torsions:
REMARK  status: ('A' for Active; 'I' for Inactive)
REMARK    1  A    between atoms: C_2  and  O_3 
REMARK    2  A    between atoms: O_3  and  C_4 
REMARK    3  A    between atoms: C_5  and  C_6 
REMARK    4  A    between atoms: C_10  and  C_11 
REMARK       I    between atoms: C_11  and  N_12 
REMARK    5  A    between atoms: N_12  and  N_13 
REMARK    6  A    between atoms: C_14  and  C_15 
ROOT
HETATM    1  C   UNL     1      -2.835   4.311 -32.771  1.00  0.00     0.289 C 
HETATM    2  N   UNL     1      -3.668   3.464 -32.055  1.00  0.00    -0.242 N 
HETATM    3  O   UNL     1      -2.843   4.424 -33.993  1.00  0.00    -0.264 OA
HETATM    4  H   UNL     1      -3.593   3.409 -31.049  1.00  0.00     0.192 HD
ENDROOT
BRANCH   1   5
HETATM    5  C   UNL     1      -1.925   5.078 -31.957  1.00  0.00     0.121 A 
HETATM    6  N   UNL     1      -0.683   5.422 -32.410  1.00  0.00    -0.272 N 
HETATM    7  N   UNL     1       0.039   6.148 -31.545  1.00  0.00    -0.174 NA
HETATM    8  H   UNL     1      -0.282   5.189 -33.314  1.00  0.00     0.189 HD
HETATM    9  C   UNL     1      -0.749   6.271 -30.462  1.00  0.00     0.092 A 
HETATM   10  C   UNL     1      -1.997   5.625 -30.692  1.00  0.00     0.071 A 
BRANCH   9  11
HETATM   11  C   UNL     1      -0.312   7.025 -29.276  1.00  0.00     0.028 A 
HETATM   12  C   UNL     1      -0.776   8.325 -28.979  1.00  0.00     0.081 A 
HETATM   13  C   UNL     1      -0.288   8.985 -27.840  1.00  0.00     0.038 A 
HETATM   14  C   UNL     1       0.633   8.365 -26.992  1.00  0.00     0.003 A 
HETATM   15  C   UNL     1       1.079   7.079 -27.270  1.00  0.00     0.001 A 
HETATM   16  C   UNL     1       0.608   6.415 -28.403  1.00  0.00     0.017 A 
BRANCH  12  17
HETATM   17  O   UNL     1      -1.692   8.883 -29.836  1.00  0.00    -0.351 OA
BRANCH  17  18
HETATM   18  C   UNL     1      -2.878   9.443 -29.274  1.00  0.00     0.171 C 
HETATM   19  C   UNL     1      -3.721   8.299 -28.737  1.00  0.00     0.034 C 
ENDBRANCH  17  18
ENDBRANCH  12  17
ENDBRANCH   9  11
ENDBRANCH   1   5
BRANCH   2  20
HETATM   20  N   UNL     1      -4.602   2.702 -32.702  1.00  0.00    -0.183 NA
HETATM   21  C   UNL     1      -4.699   1.476 -32.299  1.00  0.00     0.152 C 
BRANCH  21  22
HETATM   22  C   UNL     1      -5.668   0.593 -32.912  1.00  0.00     0.011 A 
HETATM   23  C   UNL     1      -5.426  -0.691 -33.499  1.00  0.00     0.004 A 
HETATM   24  C   UNL     1      -6.652  -1.178 -33.955  1.00  0.00     0.043 A 
HETATM   25  C   UNL     1      -4.277  -1.490 -33.686  1.00  0.00     0.014 A 
HETATM   26  C   UNL     1      -6.789  -2.421 -34.586  1.00  0.00     0.030 A 
HETATM   27  N   UNL     1      -7.603  -0.229 -33.660  1.00  0.00    -0.364 N 
HETATM   28  C   UNL     1      -5.635  -3.191 -34.758  1.00  0.00     0.002 A 
HETATM   29  C   UNL     1      -4.396  -2.734 -34.316  1.00  0.00     0.001 A 
HETATM   30  H   UNL     1      -8.587  -0.313 -33.875  1.00  0.00     0.165 HD
HETATM   31  C   UNL     1      -7.023   0.839 -33.034  1.00  0.00     0.102 A 
ENDBRANCH  21  22
ENDBRANCH   2  20
TORSDOF 6
ENDMDL
MODEL 8
REMARK VINA RESULT:      -7.9      2.733     10.371
REMARK  6 active torsions:
REMARK  status: ('A' for Active; 'I' for Inactive)
REMARK    1  A    between atoms: C_2  and  O_3 
REMARK    2  A    between atoms: O_3  and  C_4 
REMARK    3  A    between atoms: C_5  and  C_6 
REMARK    4  A    between atoms: C_10  and  C_11 
REMARK       I    between atoms: C_11  and  N_12 
REMARK    5  A    between atoms: N_12  and  N_13 
REMARK    6  A    between atoms: C_14  and  C_15 
ROOT
HETATM    1  C   UNL     1      -5.751   2.750 -32.247  1.00  0.00     0.289 C 
HETATM    2  N   UNL     1      -4.768   3.606 -32.724  1.00  0.00    -0.242 N 
HETATM    3  O   UNL     1      -6.456   2.978 -31.269  1.00  0.00    -0.264 OA
HETATM    4  H   UNL     1      -4.213   3.344 -33.526  1.00  0.00     0.192 HD
ENDROOT
BRANCH   1   5
HETATM    5  C   UNL     1      -5.895   1.531 -33.003  1.00  0.00     0.121 A 
HETATM    6  N   UNL     1      -6.449   1.530 -34.252  1.00  0.00    -0.272 N 
HETATM    7  N   UNL     1      -6.500   0.322 -34.832  1.00  0.00    -0.174 NA
HETATM    8  H   UNL     1      -6.802   2.336 -34.759  1.00  0.00     0.189 HD
HETATM    9  C   UNL     1      -5.979  -0.517 -33.919  1.00  0.00     0.092 A 
HETATM   10  C   UNL     1      -5.573   0.210 -32.765  1.00  0.00     0.071 A 
BRANCH   9  11
HETATM   11  C   UNL     1      -5.847  -1.959 -34.188  1.00  0.00     0.028 A 
HETATM   12  C   UNL     1      -4.646  -2.671 -33.980  1.00  0.00     0.081 A 
HETATM   13  C   UNL     1      -4.598  -4.040 -34.287  1.00  0.00     0.038 A 
HETATM   14  C   UNL     1      -5.725  -4.705 -34.777  1.00  0.00     0.003 A 
HETATM   15  C   UNL     1      -6.914  -4.013 -34.966  1.00  0.00     0.001 A 
HETATM   16  C   UNL     1      -6.973  -2.650 -34.672  1.00  0.00     0.017 A 
BRANCH  12  17
HETATM   17  O   UNL     1      -3.573  -1.974 -33.483  1.00  0.00    -0.351 OA
BRANCH  17  18
HETATM   18  C   UNL     1      -3.158  -2.249 -32.146  1.00  0.00     0.171 C 
HETATM   19  C   UNL     1      -2.493  -0.997 -31.602  1.00  0.00     0.034 C 
ENDBRANCH  17  18
ENDBRANCH  12  17
ENDBRANCH   9  11
ENDBRANCH   1   5
BRANCH   2  20
HETATM   20  N   UNL     1      -4.548   4.812 -32.118  1.00  0.00    -0.183 NA
HETATM   21  C   UNL     1      -3.513   4.867 -31.343  1.00  0.00     0.152 C 
BRANCH  21  22
HETATM   22  C   UNL     1      -3.188   6.105 -30.666  1.00  0.00     0.011 A 
HETATM   23  C   UNL     1      -1.909   6.512 -30.167  1.00  0.00     0.004 A 
HETATM   24  C   UNL     1      -2.067   7.779 -29.600  1.00  0.00     0.043 A 
HETATM   25  C   UNL     1      -0.625   5.924 -30.142  1.00  0.00     0.014 A 
HETATM   26  C   UNL     1      -1.011   8.486 -29.013  1.00  0.00     0.030 A 
HETATM   27  N   UNL     1      -3.390   8.127 -29.747  1.00  0.00    -0.364 N 
HETATM   28  C   UNL     1       0.249   7.881 -29.004  1.00  0.00     0.002 A 
HETATM   29  C   UNL     1       0.442   6.618 -29.559  1.00  0.00     0.001 A 
HETATM   30  H   UNL     1      -3.795   8.997 -29.429  1.00  0.00     0.165 HD
HETATM   31  C   UNL     1      -4.072   7.130 -30.385  1.00  0.00     0.102 A 
ENDBRANCH  21  22
ENDBRANCH   2  20
TORSDOF 6
ENDMDL
MODEL 9
REMARK VINA RESULT:      -7.9      2.249     10.636
REMARK  6 active torsions:
REMARK  status: ('A' for Active; 'I' for Inactive)
REMARK    1  A    between atoms: C_2  and  O_3 
REMARK    2  A    between atoms: O_3  and  C_4 
REMARK    3  A    between atoms: C_5  and  C_6 
REMARK    4  A    between atoms: C_10  and  C_11 
REMARK       I    between atoms: C_11  and  N_12 
REMARK    5  A    between atoms: N_12  and  N_13 
REMARK    6  A    between atoms: C_14  and  C_15 
ROOT
HETATM    1  C   UNL     1      -4.043   2.164 -31.301  1.00  0.00     0.289 C 
HETATM    2  N   UNL     1      -3.098   3.023 -31.842  1.00  0.00    -0.242 N 
HETATM    3  O   UNL     1      -4.812   2.461 -30.391  1.00  0.00    -0.264 OA
HETATM    4  H   UNL     1      -2.485   2.704 -32.580  1.00  0.00     0.192 HD
ENDROOT
BRANCH   1   5
HETATM    5  C   UNL     1      -4.066   0.852 -31.898  1.00  0.00     0.121 A 
HETATM    6  N   UNL     1      -2.996   0.009 -31.801  1.00  0.00    -0.272 N 
HETATM    7  N   UNL     1      -3.176  -1.181 -32.394  1.00  0.00    -0.174 NA
HETATM    8  H   UNL     1      -2.116   0.198 -31.330  1.00  0.00     0.189 HD
HETATM    9  C   UNL     1      -4.409  -1.114 -32.926  1.00  0.00     0.092 A 
HETATM   10  C   UNL     1      -5.004   0.143 -32.620  1.00  0.00     0.071 A 
BRANCH   9  11
HETATM   11  C   UNL     1      -4.989  -2.248 -33.663  1.00  0.00     0.028 A 
HETATM   12  C   UNL     1      -6.306  -2.237 -34.174  1.00  0.00     0.081 A 
HETATM   13  C   UNL     1      -6.792  -3.372 -34.843  1.00  0.00     0.038 A 
HETATM   14  C   UNL     1      -5.985  -4.499 -35.022  1.00  0.00     0.003 A 
HETATM   15  C   UNL     1      -4.684  -4.508 -34.536  1.00  0.00     0.001 A 
HETATM   16  C   UNL     1      -4.191  -3.390 -33.863  1.00  0.00     0.017 A 
BRANCH  12  17
HETATM   17  O   UNL     1      -7.050  -1.100 -33.985  1.00  0.00    -0.351 OA
BRANCH  17  18
HETATM   18  C   UNL     1      -7.457  -0.367 -35.140  1.00  0.00     0.171 C 
HETATM   19  C   UNL     1      -8.521   0.626 -34.707  1.00  0.00     0.034 C 
ENDBRANCH  17  18
ENDBRANCH  12  17
ENDBRANCH   9  11
ENDBRANCH   1   5
BRANCH   2  20
HETATM   20  N   UNL     1      -2.991   4.310 -31.389  1.00  0.00    -0.183 NA
HETATM   21  C   UNL     1      -1.790   4.710 -31.121  1.00  0.00     0.152 C 
BRANCH  21  22
HETATM   22  C   UNL     1      -1.572   6.060 -30.648  1.00  0.00     0.011 A 
HETATM   23  C   UNL     1      -0.696   6.482 -29.596  1.00  0.00     0.004 A 
HETATM   24  C   UNL     1      -0.804   7.871 -29.496  1.00  0.00     0.043 A 
HETATM   25  C   UNL     1       0.184   5.815 -28.716  1.00  0.00     0.014 A 
HETATM   26  C   UNL     1      -0.079   8.625 -28.565  1.00  0.00     0.030 A 
HETATM   27  N   UNL     1      -1.712   8.278 -30.447  1.00  0.00    -0.364 N 
HETATM   28  C   UNL     1       0.784   7.938 -27.707  1.00  0.00     0.002 A 
HETATM   29  C   UNL     1       0.915   6.553 -27.779  1.00  0.00     0.001 A 
HETATM   30  H   UNL     1      -1.989   9.237 -30.605  1.00  0.00     0.165 HD
HETATM   31  C   UNL     1      -2.179   7.199 -31.144  1.00  0.00     0.102 A 
ENDBRANCH  21  22
ENDBRANCH   2  20
TORSDOF 6
ENDMDL
MODEL 10
REMARK VINA RESULT:      -7.9      1.917     10.399
REMARK  6 active torsions:
REMARK  status: ('A' for Active; 'I' for Inactive)
REMARK    1  A    between atoms: C_2  and  O_3 
REMARK    2  A    between atoms: O_3  and  C_4 
REMARK    3  A    between atoms: C_5  and  C_6 
REMARK    4  A    between atoms: C_10  and  C_11 
REMARK       I    between atoms: C_11  and  N_12 
REMARK    5  A    between atoms: N_12  and  N_13 
REMARK    6  A    between atoms: C_14  and  C_15 
ROOT
HETATM    1  C   UNL     1      -2.439   4.465 -31.324  1.00  0.00     0.289 C 
HETATM    2  N   UNL     1      -3.037   5.445 -30.545  1.00  0.00    -0.242 N 
HETATM    3  O   UNL     1      -1.297   4.532 -31.769  1.00  0.00    -0.264 OA
HETATM    4  H   UNL     1      -3.989   5.330 -30.227  1.00  0.00     0.192 HD
ENDROOT
BRANCH   1   5
HETATM    5  C   UNL     1      -3.276   3.321 -31.587  1.00  0.00     0.121 A 
HETATM    6  N   UNL     1      -4.188   2.882 -30.670  1.00  0.00    -0.272 N 
HETATM    7  N   UNL     1      -4.901   1.818 -31.067  1.00  0.00    -0.174 NA
HETATM    8  H   UNL     1      -4.368   3.282 -29.754  1.00  0.00     0.189 HD
HETATM    9  C   UNL     1      -4.427   1.526 -32.291  1.00  0.00     0.092 A 
HETATM   10  C   UNL     1      -3.416   2.460 -32.657  1.00  0.00     0.071 A 
BRANCH   9  11
HETATM   11  C   UNL     1      -4.970   0.409 -33.080  1.00  0.00     0.028 A 
HETATM   12  C   UNL     1      -6.194   0.488 -33.780  1.00  0.00     0.081 A 
HETATM   13  C   UNL     1      -6.655  -0.633 -34.488  1.00  0.00     0.038 A 
HETATM   14  C   UNL     1      -5.910  -1.815 -34.520  1.00  0.00     0.003 A 
HETATM   15  C   UNL     1      -4.697  -1.893 -33.847  1.00  0.00     0.001 A 
HETATM   16  C   UNL     1      -4.232  -0.788 -33.134  1.00  0.00     0.017 A 
BRANCH  12  17
HETATM   17  O   UNL     1      -6.878   1.678 -33.729  1.00  0.00    -0.351 OA
BRANCH  17  18
HETATM   18  C   UNL     1      -8.207   1.707 -34.246  1.00  0.00     0.171 C 
HETATM   19  C   UNL     1      -9.163   1.688 -33.065  1.00  0.00     0.034 C 
ENDBRANCH  17  18
ENDBRANCH  12  17
ENDBRANCH   9  11
ENDBRANCH   1   5
BRANCH   2  20
HETATM   20  N   UNL     1      -2.341   6.569 -30.193  1.00  0.00    -0.183 NA
HETATM   21  C   UNL     1      -2.428   6.914 -28.949  1.00  0.00     0.152 C 
BRANCH  21  22
HETATM   22  C   UNL     1      -1.717   8.082 -28.475  1.00  0.00     0.011 A 
HETATM   23  C   UNL     1      -0.470   8.115 -27.773  1.00  0.00     0.004 A 
HETATM   24  C   UNL     1      -0.166   9.456 -27.527  1.00  0.00     0.043 A 
HETATM   25  C   UNL     1       0.436   7.130 -27.321  1.00  0.00     0.014 A 
HETATM   26  C   UNL     1       0.995   9.861 -26.855  1.00  0.00     0.030 A 
HETATM   27  N   UNL     1      -1.188  10.208 -28.056  1.00  0.00    -0.364 N 
HETATM   28  C   UNL     1       1.873   8.865 -26.420  1.00  0.00     0.002 A 
HETATM   29  C   UNL     1       1.600   7.519 -26.647  1.00  0.00     0.001 A 
HETATM   30  H   UNL     1      -1.236  11.217 -28.026  1.00  0.00     0.165 HD
HETATM   31  C   UNL     1      -2.126   9.394 -28.628  1.00  0.00     0.102 A 
ENDBRANCH  21  22
ENDBRANCH   2  20
TORSDOF 6
ENDMDL
