MODEL 1
REMARK VINA RESULT:      -7.4      0.000      0.000
REMARK  5 active torsions:
REMARK  status: ('A' for Active; 'I' for Inactive)
REMARK    1  A    between atoms: C_2  and  C_3 
REMARK    2  A    between atoms: C_7  and  N_8 
REMARK       I    between atoms: N_8  and  C_9 
REMARK    3  A    between atoms: C_9  and  C_10 
REMARK    4  A    between atoms: C_10  and  N_11 
REMARK    5  A    between atoms: N_11  and  C_14 
ROOT
HETATM    1  C   UNL     1      -4.765   0.864 -32.070  1.00  0.00     0.043 C 
HETATM    2  N   UNL     1      -4.135  -0.196 -32.620  1.00  0.00    -0.252 NA
HETATM    3  C   UNL     1      -4.833  -1.127 -33.275  1.00  0.00     0.069 A 
HETATM    4  C   UNL     1      -6.237  -1.104 -33.373  1.00  0.00     0.020 A 
HETATM    5  C   UNL     1      -6.909  -0.063 -32.664  1.00  0.00     0.055 C 
HETATM    6  C   UNL     1      -6.159   0.994 -32.082  1.00  0.00    -0.010 C 
HETATM    7  C   UNL     1      -6.832   2.182 -31.444  1.00  0.00     0.052 C 
HETATM    8  C   UNL     1      -4.109  -2.135 -33.898  1.00  0.00     0.032 A 
HETATM    9  C   UNL     1      -4.724  -3.116 -34.674  1.00  0.00     0.002 A 
HETATM   10  C   UNL     1      -6.095  -3.075 -34.851  1.00  0.00     0.001 A 
HETATM   11  C   UNL     1      -6.839  -2.075 -34.221  1.00  0.00     0.016 A 
ENDROOT
BRANCH   5  12
HETATM   12  N   UNL     1      -8.332  -0.011 -32.494  1.00  0.00    -0.324 N 
HETATM   13  C   UNL     1      -9.250   0.401 -33.447  1.00  0.00     0.248 C 
HETATM   14  O   UNL     1      -9.019   0.864 -34.560  1.00  0.00    -0.271 OA
HETATM   15  H   UNL     1      -8.692  -0.616 -31.767  1.00  0.00     0.169 HD
BRANCH  13  16
HETATM   16  C   UNL     1     -10.708   0.217 -33.012  1.00  0.00     0.335 C 
BRANCH  16  17
HETATM   17  N   UNL     1     -11.522   1.491 -33.110  1.00  0.00    -0.063 N 
HETATM   18  H   UNL     1     -11.723   1.851 -32.170  1.00  0.00     0.278 HD
HETATM   19  H   UNL     1     -10.901   2.179 -33.564  1.00  0.00     0.278 HD
BRANCH  17  20
HETATM   20  C   UNL     1     -12.786   1.471 -33.933  1.00  0.00     0.178 C 
HETATM   21  C   UNL     1     -12.481   1.779 -35.392  1.00  0.00     0.039 C 
HETATM   22  C   UNL     1     -13.395   0.078 -33.784  1.00  0.00     0.039 C 
ENDBRANCH  17  20
ENDBRANCH  16  17
ENDBRANCH  13  16
ENDBRANCH   5  12
BRANCH   1  23
HETATM   23  C   UNL     1      -3.831   1.855 -31.417  1.00  0.00     0.055 C 
HETATM   24  C   UNL     1      -3.269   2.862 -32.410  1.00  0.00     0.011 C 
ENDBRANCH   1  23
TORSDOF 5
ENDMDL
MODEL 2
REMARK VINA RESULT:      -7.2      1.202      3.592
REMARK  5 active torsions:
REMARK  status: ('A' for Active; 'I' for Inactive)
REMARK    1  A    between atoms: C_2  and  C_3 
REMARK    2  A    between atoms: C_7  and  N_8 
REMARK       I    between atoms: N_8  and  C_9 
REMARK    3  A    between atoms: C_9  and  C_10 
REMARK    4  A    between atoms: C_10  and  N_11 
REMARK    5  A    between atoms: N_11  and  C_14 
ROOT
HETATM    1  C   UNL     1      -4.752  -2.088 -33.765  1.00  0.00     0.043 C 
HETATM    2  N   UNL     1      -3.821  -1.247 -33.262  1.00  0.00    -0.252 NA
HETATM    3  C   UNL     1      -4.171  -0.024 -32.855  1.00  0.00     0.069 A 
HETATM    4  C   UNL     1      -5.478   0.481 -32.982  1.00  0.00     0.020 A 
HETATM    5  C   UNL     1      -6.423  -0.356 -33.649  1.00  0.00     0.055 C 
HETATM    6  C   UNL     1      -6.082  -1.699 -33.961  1.00  0.00    -0.010 C 
HETATM    7  C   UNL     1      -7.092  -2.657 -34.539  1.00  0.00     0.052 C 
HETATM    8  C   UNL     1      -3.182   0.748 -32.259  1.00  0.00     0.032 A 
HETATM    9  C   UNL     1      -3.448   2.008 -31.727  1.00  0.00     0.002 A 
HETATM   10  C   UNL     1      -4.740   2.500 -31.769  1.00  0.00     0.001 A 
HETATM   11  C   UNL     1      -5.743   1.741 -32.376  1.00  0.00     0.016 A 
ENDROOT
BRANCH   5  12
HETATM   12  N   UNL     1      -7.732   0.082 -34.039  1.00  0.00    -0.324 N 
HETATM   13  C   UNL     1      -8.795   0.326 -33.184  1.00  0.00     0.248 C 
HETATM   14  O   UNL     1      -8.840   0.141 -31.972  1.00  0.00    -0.271 OA
HETATM   15  H   UNL     1      -7.771   0.549 -34.936  1.00  0.00     0.169 HD
BRANCH  13  16
HETATM   16  C   UNL     1     -10.025   0.911 -33.888  1.00  0.00     0.335 C 
BRANCH  16  17
HETATM   17  N   UNL     1     -11.323   0.599 -33.171  1.00  0.00    -0.063 N 
HETATM   18  H   UNL     1     -11.387  -0.409 -32.987  1.00  0.00     0.278 HD
HETATM   19  H   UNL     1     -11.249   1.065 -32.254  1.00  0.00     0.278 HD
BRANCH  17  20
HETATM   20  C   UNL     1     -12.612   1.091 -33.781  1.00  0.00     0.178 C 
HETATM   21  C   UNL     1     -12.380   1.575 -35.206  1.00  0.00     0.039 C 
HETATM   22  C   UNL     1     -13.595  -0.077 -33.754  1.00  0.00     0.039 C 
ENDBRANCH  17  20
ENDBRANCH  16  17
ENDBRANCH  13  16
ENDBRANCH   5  12
BRANCH   1  23
HETATM   23  C   UNL     1      -4.208  -3.451 -34.123  1.00  0.00     0.055 C 
HETATM   24  C   UNL     1      -3.443  -4.090 -32.974  1.00  0.00     0.011 C 
ENDBRANCH   1  23
TORSDOF 5
ENDMDL
MODEL 3
REMARK VINA RESULT:      -7.0      3.349      5.855
REMARK  5 active torsions:
REMARK  status: ('A' for Active; 'I' for Inactive)
REMARK    1  A    between atoms: C_2  and  C_3 
REMARK    2  A    between atoms: C_7  and  N_8 
REMARK       I    between atoms: N_8  and  C_9 
REMARK    3  A    between atoms: C_9  and  C_10 
REMARK    4  A    between atoms: C_10  and  N_11 
REMARK    5  A    between atoms: N_11  and  C_14 
ROOT
HETATM    1  C   UNL     1      -4.001  -1.683 -32.440  1.00  0.00     0.043 C 
HETATM    2  N   UNL     1      -5.029  -2.050 -33.235  1.00  0.00    -0.252 NA
HETATM    3  C   UNL     1      -5.828  -1.123 -33.770  1.00  0.00     0.069 A 
HETATM    4  C   UNL     1      -5.700   0.251 -33.495  1.00  0.00     0.020 A 
HETATM    5  C   UNL     1      -4.706   0.619 -32.538  1.00  0.00     0.055 C 
HETATM    6  C   UNL     1      -3.778  -0.350 -32.074  1.00  0.00    -0.010 C 
HETATM    7  C   UNL     1      -2.630   0.023 -31.171  1.00  0.00     0.052 C 
HETATM    8  C   UNL     1      -6.802  -1.567 -34.656  1.00  0.00     0.032 A 
HETATM    9  C   UNL     1      -7.642  -0.686 -35.334  1.00  0.00     0.002 A 
HETATM   10  C   UNL     1      -7.489   0.676 -35.141  1.00  0.00     0.001 A 
HETATM   11  C   UNL     1      -6.522   1.137 -34.245  1.00  0.00     0.016 A 
ENDROOT
BRANCH   5  12
HETATM   12  N   UNL     1      -4.580   1.941 -31.997  1.00  0.00    -0.324 N 
HETATM   13  C   UNL     1      -5.398   2.506 -31.033  1.00  0.00     0.248 C 
HETATM   14  O   UNL     1      -6.408   2.022 -30.530  1.00  0.00    -0.271 OA
HETATM   15  H   UNL     1      -3.656   2.346 -32.085  1.00  0.00     0.169 HD
BRANCH  13  16
HETATM   16  C   UNL     1      -4.929   3.887 -30.562  1.00  0.00     0.335 C 
BRANCH  16  17
HETATM   17  N   UNL     1      -3.447   4.115 -30.779  1.00  0.00    -0.063 N 
HETATM   18  H   UNL     1      -2.983   4.285 -29.879  1.00  0.00     0.278 HD
HETATM   19  H   UNL     1      -3.081   3.220 -31.137  1.00  0.00     0.278 HD
BRANCH  17  20
HETATM   20  C   UNL     1      -3.023   5.163 -31.779  1.00  0.00     0.178 C 
HETATM   21  C   UNL     1      -2.219   4.532 -32.907  1.00  0.00     0.039 C 
HETATM   22  C   UNL     1      -4.297   5.813 -32.313  1.00  0.00     0.039 C 
ENDBRANCH  17  20
ENDBRANCH  16  17
ENDBRANCH  13  16
ENDBRANCH   5  12
BRANCH   1  23
HETATM   23  C   UNL     1      -3.158  -2.842 -31.963  1.00  0.00     0.055 C 
HETATM   24  C   UNL     1      -3.377  -4.098 -32.794  1.00  0.00     0.011 C 
ENDBRANCH   1  23
TORSDOF 5
ENDMDL
MODEL 4
REMARK VINA RESULT:      -7.0      2.269      6.345
REMARK  5 active torsions:
REMARK  status: ('A' for Active; 'I' for Inactive)
REMARK    1  A    between atoms: C_2  and  C_3 
REMARK    2  A    between atoms: C_7  and  N_8 
REMARK       I    between atoms: N_8  and  C_9 
REMARK    3  A    between atoms: C_9  and  C_10 
REMARK    4  A    between atoms: C_10  and  N_11 
REMARK    5  A    between atoms: N_11  and  C_14 
ROOT
HETATM    1  C   UNL     1      -8.236   0.846 -34.023  1.00  0.00     0.043 C 
HETATM    2  N   UNL     1      -7.952  -0.399 -34.462  1.00  0.00    -0.252 NA
HETATM    3  C   UNL     1      -6.730  -0.909 -34.287  1.00  0.00     0.069 A 
HETATM    4  C   UNL     1      -5.669  -0.181 -33.716  1.00  0.00     0.020 A 
HETATM    5  C   UNL     1      -5.935   1.183 -33.390  1.00  0.00     0.055 C 
HETATM    6  C   UNL     1      -7.265   1.679 -33.456  1.00  0.00    -0.010 C 
HETATM    7  C   UNL     1      -7.612   3.070 -32.992  1.00  0.00     0.052 C 
HETATM    8  C   UNL     1      -6.538  -2.230 -34.673  1.00  0.00     0.032 A 
HETATM    9  C   UNL     1      -5.329  -2.892 -34.469  1.00  0.00     0.002 A 
HETATM   10  C   UNL     1      -4.292  -2.225 -33.841  1.00  0.00     0.001 A 
HETATM   11  C   UNL     1      -4.465  -0.894 -33.458  1.00  0.00     0.016 A 
ENDROOT
BRANCH   5  12
HETATM   12  N   UNL     1      -4.920   2.114 -32.992  1.00  0.00    -0.324 N 
HETATM   13  C   UNL     1      -4.407   2.260 -31.713  1.00  0.00     0.248 C 
HETATM   14  O   UNL     1      -4.772   1.689 -30.690  1.00  0.00    -0.271 OA
HETATM   15  H   UNL     1      -4.327   2.439 -33.746  1.00  0.00     0.169 HD
BRANCH  13  16
HETATM   16  C   UNL     1      -3.238   3.247 -31.631  1.00  0.00     0.335 C 
BRANCH  16  17
HETATM   17  N   UNL     1      -2.664   3.601 -32.988  1.00  0.00    -0.063 N 
HETATM   18  H   UNL     1      -1.950   2.912 -33.256  1.00  0.00     0.278 HD
HETATM   19  H   UNL     1      -3.444   3.493 -33.653  1.00  0.00     0.278 HD
BRANCH  17  20
HETATM   20  C   UNL     1      -2.132   4.997 -33.197  1.00  0.00     0.178 C 
HETATM   21  C   UNL     1      -0.920   5.248 -32.310  1.00  0.00     0.039 C 
HETATM   22  C   UNL     1      -1.763   5.119 -34.674  1.00  0.00     0.039 C 
ENDBRANCH  17  20
ENDBRANCH  16  17
ENDBRANCH  13  16
ENDBRANCH   5  12
BRANCH   1  23
HETATM   23  C   UNL     1      -9.674   1.253 -34.242  1.00  0.00     0.055 C 
HETATM   24  C   UNL     1     -10.626   0.558 -33.280  1.00  0.00     0.011 C 
ENDBRANCH   1  23
TORSDOF 5
ENDMDL
MODEL 5
REMARK VINA RESULT:      -6.9      2.935      5.438
REMARK  5 active torsions:
REMARK  status: ('A' for Active; 'I' for Inactive)
REMARK    1  A    between atoms: C_2  and  C_3 
REMARK    2  A    between atoms: C_7  and  N_8 
REMARK       I    between atoms: N_8  and  C_9 
REMARK    3  A    between atoms: C_9  and  C_10 
REMARK    4  A    between atoms: C_10  and  N_11 
REMARK    5  A    between atoms: N_11  and  C_14 
ROOT
HETATM    1  C   UNL     1      -6.135  -1.949 -34.411  1.00  0.00     0.043 C 
HETATM    2  N   UNL     1      -5.011  -2.239 -33.720  1.00  0.00    -0.252 NA
HETATM    3  C   UNL     1      -4.400  -1.292 -33.005  1.00  0.00     0.069 A 
HETATM    4  C   UNL     1      -4.831   0.048 -32.979  1.00  0.00     0.020 A 
HETATM    5  C   UNL     1      -5.931   0.380 -33.828  1.00  0.00     0.055 C 
HETATM    6  C   UNL     1      -6.655  -0.652 -34.482  1.00  0.00    -0.010 C 
HETATM    7  C   UNL     1      -7.903  -0.360 -35.275  1.00  0.00     0.052 C 
HETATM    8  C   UNL     1      -3.307  -1.685 -32.242  1.00  0.00     0.032 A 
HETATM    9  C   UNL     1      -2.639  -0.801 -31.398  1.00  0.00     0.002 A 
HETATM   10  C   UNL     1      -3.087   0.504 -31.295  1.00  0.00     0.001 A 
HETATM   11  C   UNL     1      -4.176   0.917 -32.064  1.00  0.00     0.016 A 
ENDROOT
BRANCH   5  12
HETATM   12  N   UNL     1      -6.363   1.725 -34.073  1.00  0.00    -0.324 N 
HETATM   13  C   UNL     1      -7.108   2.509 -33.208  1.00  0.00     0.248 C 
HETATM   14  O   UNL     1      -7.594   2.182 -32.129  1.00  0.00    -0.271 OA
HETATM   15  H   UNL     1      -5.815   2.225 -34.762  1.00  0.00     0.169 HD
BRANCH  13  16
HETATM   16  C   UNL     1      -7.300   3.949 -33.697  1.00  0.00     0.335 C 
BRANCH  16  17
HETATM   17  N   UNL     1      -5.992   4.661 -33.974  1.00  0.00    -0.063 N 
HETATM   18  H   UNL     1      -5.503   4.205 -34.754  1.00  0.00     0.278 HD
HETATM   19  H   UNL     1      -6.255   5.603 -34.299  1.00  0.00     0.278 HD
BRANCH  17  20
HETATM   20  C   UNL     1      -5.036   4.873 -32.825  1.00  0.00     0.178 C 
HETATM   21  C   UNL     1      -3.647   4.361 -33.182  1.00  0.00     0.039 C 
HETATM   22  C   UNL     1      -5.008   6.372 -32.537  1.00  0.00     0.039 C 
ENDBRANCH  17  20
ENDBRANCH  16  17
ENDBRANCH  13  16
ENDBRANCH   5  12
BRANCH   1  23
HETATM   23  C   UNL     1      -6.738  -3.141 -35.117  1.00  0.00     0.055 C 
HETATM   24  C   UNL     1      -6.057  -4.447 -34.735  1.00  0.00     0.011 C 
ENDBRANCH   1  23
TORSDOF 5
ENDMDL
MODEL 6
REMARK VINA RESULT:      -6.7     14.346     16.185
REMARK  5 active torsions:
REMARK  status: ('A' for Active; 'I' for Inactive)
REMARK    1  A    between atoms: C_2  and  C_3 
REMARK    2  A    between atoms: C_7  and  N_8 
REMARK       I    between atoms: N_8  and  C_9 
REMARK    3  A    between atoms: C_9  and  C_10 
REMARK    4  A    between atoms: C_10  and  N_11 
REMARK    5  A    between atoms: N_11  and  C_14 
ROOT
HETATM    1  C   UNL     1      -7.971 -12.745 -38.941  1.00  0.00     0.043 C 
HETATM    2  N   UNL     1      -8.014 -13.105 -37.639  1.00  0.00    -0.252 NA
HETATM    3  C   UNL     1      -6.883 -13.352 -36.973  1.00  0.00     0.069 A 
HETATM    4  C   UNL     1      -5.614 -13.323 -37.580  1.00  0.00     0.020 A 
HETATM    5  C   UNL     1      -5.586 -13.088 -38.988  1.00  0.00     0.055 C 
HETATM    6  C   UNL     1      -6.773 -12.698 -39.663  1.00  0.00    -0.010 C 
HETATM    7  C   UNL     1      -6.762 -12.308 -41.120  1.00  0.00     0.052 C 
HETATM    8  C   UNL     1      -6.998 -13.619 -35.615  1.00  0.00     0.032 A 
HETATM    9  C   UNL     1      -5.884 -13.815 -34.803  1.00  0.00     0.002 A 
HETATM   10  C   UNL     1      -4.619 -13.718 -35.357  1.00  0.00     0.001 A 
HETATM   11  C   UNL     1      -4.487 -13.462 -36.723  1.00  0.00     0.016 A 
ENDROOT
BRANCH   5  12
HETATM   12  N   UNL     1      -4.405 -13.225 -39.790  1.00  0.00    -0.324 N 
HETATM   13  C   UNL     1      -3.845 -14.419 -40.215  1.00  0.00     0.248 C 
HETATM   14  O   UNL     1      -4.200 -15.558 -39.925  1.00  0.00    -0.271 OA
HETATM   15  H   UNL     1      -4.172 -12.408 -40.340  1.00  0.00     0.169 HD
BRANCH  13  16
HETATM   16  C   UNL     1      -2.661 -14.235 -41.170  1.00  0.00     0.335 C 
BRANCH  16  17
HETATM   17  N   UNL     1      -1.493 -13.510 -40.534  1.00  0.00    -0.063 N 
HETATM   18  H   UNL     1      -0.704 -13.474 -41.190  1.00  0.00     0.278 HD
HETATM   19  H   UNL     1      -1.813 -12.538 -40.402  1.00  0.00     0.278 HD
BRANCH  17  20
HETATM   20  C   UNL     1      -1.014 -13.974 -39.181  1.00  0.00     0.178 C 
HETATM   21  C   UNL     1       0.434 -14.439 -39.256  1.00  0.00     0.039 C 
HETATM   22  C   UNL     1      -1.158 -12.792 -38.224  1.00  0.00     0.039 C 
ENDBRANCH  17  20
ENDBRANCH  16  17
ENDBRANCH  13  16
ENDBRANCH   5  12
BRANCH   1  23
HETATM   23  C   UNL     1      -9.327 -12.443 -39.533  1.00  0.00     0.055 C 
HETATM   24  C   UNL     1     -10.190 -13.689 -39.670  1.00  0.00     0.011 C 
ENDBRANCH   1  23
TORSDOF 5
ENDMDL
MODEL 7
REMARK VINA RESULT:      -6.7      2.364      6.888
REMARK  5 active torsions:
REMARK  status: ('A' for Active; 'I' for Inactive)
REMARK    1  A    between atoms: C_2  and  C_3 
REMARK    2  A    between atoms: C_7  and  N_8 
REMARK       I    between atoms: N_8  and  C_9 
REMARK    3  A    between atoms: C_9  and  C_10 
REMARK    4  A    between atoms: C_10  and  N_11 
REMARK    5  A    between atoms: N_11  and  C_14 
ROOT
HETATM    1  C   UNL     1      -5.701  -1.215 -33.590  1.00  0.00     0.043 C 
HETATM    2  N   UNL     1      -7.051  -1.234 -33.591  1.00  0.00    -0.252 NA
HETATM    3  C   UNL     1      -7.738  -0.179 -33.147  1.00  0.00     0.069 A 
HETATM    4  C   UNL     1      -7.122   0.962 -32.599  1.00  0.00     0.020 A 
HETATM    5  C   UNL     1      -5.701   0.916 -32.464  1.00  0.00     0.055 C 
HETATM    6  C   UNL     1      -4.969  -0.148 -33.055  1.00  0.00    -0.010 C 
HETATM    7  C   UNL     1      -3.462  -0.165 -33.055  1.00  0.00     0.052 C 
HETATM    8  C   UNL     1      -9.121  -0.230 -33.270  1.00  0.00     0.032 A 
HETATM    9  C   UNL     1      -9.936   0.842 -32.912  1.00  0.00     0.002 A 
HETATM   10  C   UNL     1      -9.353   2.005 -32.442  1.00  0.00     0.001 A 
HETATM   11  C   UNL     1      -7.965   2.068 -32.301  1.00  0.00     0.016 A 
ENDROOT
BRANCH   5  12
HETATM   12  N   UNL     1      -4.942   1.899 -31.748  1.00  0.00    -0.324 N 
HETATM   13  C   UNL     1      -4.601   3.159 -32.213  1.00  0.00     0.248 C 
HETATM   14  O   UNL     1      -4.810   3.629 -33.328  1.00  0.00    -0.271 OA
HETATM   15  H   UNL     1      -4.948   1.787 -30.742  1.00  0.00     0.169 HD
BRANCH  13  16
HETATM   16  C   UNL     1      -3.899   4.030 -31.165  1.00  0.00     0.335 C 
BRANCH  16  17
HETATM   17  N   UNL     1      -2.389   3.973 -31.261  1.00  0.00    -0.063 N 
HETATM   18  H   UNL     1      -1.992   3.667 -30.364  1.00  0.00     0.278 HD
HETATM   19  H   UNL     1      -2.185   3.227 -31.944  1.00  0.00     0.278 HD
BRANCH  17  20
HETATM   20  C   UNL     1      -1.656   5.196 -31.755  1.00  0.00     0.178 C 
HETATM   21  C   UNL     1      -0.271   5.280 -31.129  1.00  0.00     0.039 C 
HETATM   22  C   UNL     1      -1.562   5.078 -33.275  1.00  0.00     0.039 C 
ENDBRANCH  17  20
ENDBRANCH  16  17
ENDBRANCH  13  16
ENDBRANCH   5  12
BRANCH   1  23
HETATM   23  C   UNL     1      -5.075  -2.457 -34.178  1.00  0.00     0.055 C 
HETATM   24  C   UNL     1      -6.101  -3.366 -34.840  1.00  0.00     0.011 C 
ENDBRANCH   1  23
TORSDOF 5
ENDMDL
MODEL 8
REMARK VINA RESULT:      -6.6      2.349      4.251
REMARK  5 active torsions:
REMARK  status: ('A' for Active; 'I' for Inactive)
REMARK    1  A    between atoms: C_2  and  C_3 
REMARK    2  A    between atoms: C_7  and  N_8 
REMARK       I    between atoms: N_8  and  C_9 
REMARK    3  A    between atoms: C_9  and  C_10 
REMARK    4  A    between atoms: C_10  and  N_11 
REMARK    5  A    between atoms: N_11  and  C_14 
ROOT
HETATM    1  C   UNL     1      -6.133  -1.895 -34.379  1.00  0.00     0.043 C 
HETATM    2  N   UNL     1      -5.005  -2.168 -33.689  1.00  0.00    -0.252 NA
HETATM    3  C   UNL     1      -4.403  -1.210 -32.979  1.00  0.00     0.069 A 
HETATM    4  C   UNL     1      -4.850   0.125 -32.960  1.00  0.00     0.020 A 
HETATM    5  C   UNL     1      -5.954   0.440 -33.808  1.00  0.00     0.055 C 
HETATM    6  C   UNL     1      -6.668  -0.603 -34.456  1.00  0.00    -0.010 C 
HETATM    7  C   UNL     1      -7.920  -0.329 -35.249  1.00  0.00     0.052 C 
HETATM    8  C   UNL     1      -3.305  -1.586 -32.216  1.00  0.00     0.032 A 
HETATM    9  C   UNL     1      -2.646  -0.691 -31.377  1.00  0.00     0.002 A 
HETATM   10  C   UNL     1      -3.109   0.609 -31.280  1.00  0.00     0.001 A 
HETATM   11  C   UNL     1      -4.203   1.006 -32.050  1.00  0.00     0.016 A 
ENDROOT
BRANCH   5  12
HETATM   12  N   UNL     1      -6.402   1.778 -34.060  1.00  0.00    -0.324 N 
HETATM   13  C   UNL     1      -7.223   2.529 -33.234  1.00  0.00     0.248 C 
HETATM   14  O   UNL     1      -7.772   2.171 -32.196  1.00  0.00    -0.271 OA
HETATM   15  H   UNL     1      -5.822   2.304 -34.702  1.00  0.00     0.169 HD
BRANCH  13  16
HETATM   16  C   UNL     1      -7.417   3.973 -33.711  1.00  0.00     0.335 C 
BRANCH  16  17
HETATM   17  N   UNL     1      -8.841   4.465 -33.549  1.00  0.00    -0.063 N 
HETATM   18  H   UNL     1      -9.189   4.225 -32.613  1.00  0.00     0.278 HD
HETATM   19  H   UNL     1      -8.782   5.494 -33.588  1.00  0.00     0.278 HD
BRANCH  17  20
HETATM   20  C   UNL     1      -9.857   4.069 -34.591  1.00  0.00     0.178 C 
HETATM   21  C   UNL     1     -10.953   3.211 -33.973  1.00  0.00     0.039 C 
HETATM   22  C   UNL     1     -10.435   5.361 -35.167  1.00  0.00     0.039 C 
ENDBRANCH  17  20
ENDBRANCH  16  17
ENDBRANCH  13  16
ENDBRANCH   5  12
BRANCH   1  23
HETATM   23  C   UNL     1      -6.723  -3.096 -35.079  1.00  0.00     0.055 C 
HETATM   24  C   UNL     1      -5.996  -4.386 -34.728  1.00  0.00     0.011 C 
ENDBRANCH   1  23
TORSDOF 5
ENDMDL
MODEL 9
REMARK VINA RESULT:      -6.5      1.726      2.197
REMARK  5 active torsions:
REMARK  status: ('A' for Active; 'I' for Inactive)
REMARK    1  A    between atoms: C_2  and  C_3 
REMARK    2  A    between atoms: C_7  and  N_8 
REMARK       I    between atoms: N_8  and  C_9 
REMARK    3  A    between atoms: C_9  and  C_10 
REMARK    4  A    between atoms: C_10  and  N_11 
REMARK    5  A    between atoms: N_11  and  C_14 
ROOT
HETATM    1  C   UNL     1      -4.524   3.348 -32.732  1.00  0.00     0.043 C 
HETATM    2  N   UNL     1      -3.856   2.212 -32.434  1.00  0.00    -0.252 NA
HETATM    3  C   UNL     1      -4.396   1.023 -32.713  1.00  0.00     0.069 A 
HETATM    4  C   UNL     1      -5.687   0.876 -33.255  1.00  0.00     0.020 A 
HETATM    5  C   UNL     1      -6.446   2.073 -33.429  1.00  0.00     0.055 C 
HETATM    6  C   UNL     1      -5.822   3.337 -33.255  1.00  0.00    -0.010 C 
HETATM    7  C   UNL     1      -6.545   4.624 -33.560  1.00  0.00     0.052 C 
HETATM    8  C   UNL     1      -3.612  -0.097 -32.471  1.00  0.00     0.032 A 
HETATM    9  C   UNL     1      -4.040  -1.383 -32.795  1.00  0.00     0.002 A 
HETATM   10  C   UNL     1      -5.273  -1.552 -33.398  1.00  0.00     0.001 A 
HETATM   11  C   UNL     1      -6.078  -0.437 -33.637  1.00  0.00     0.016 A 
ENDROOT
BRANCH   5  12
HETATM   12  N   UNL     1      -7.837   2.085 -33.776  1.00  0.00    -0.324 N 
HETATM   13  C   UNL     1      -8.895   1.895 -32.901  1.00  0.00     0.248 C 
HETATM   14  O   UNL     1      -8.839   1.610 -31.709  1.00  0.00    -0.271 OA
HETATM   15  H   UNL     1      -8.054   2.583 -34.630  1.00  0.00     0.169 HD
BRANCH  13  16
HETATM   16  C   UNL     1     -10.269   2.097 -33.548  1.00  0.00     0.335 C 
BRANCH  16  17
HETATM   17  N   UNL     1     -11.310   1.117 -33.047  1.00  0.00    -0.063 N 
HETATM   18  H   UNL     1     -10.918   0.168 -33.031  1.00  0.00     0.278 HD
HETATM   19  H   UNL     1     -11.487   1.382 -32.066  1.00  0.00     0.278 HD
BRANCH  17  20
HETATM   20  C   UNL     1     -12.661   1.102 -33.720  1.00  0.00     0.178 C 
HETATM   21  C   UNL     1     -12.538   1.535 -35.175  1.00  0.00     0.039 C 
HETATM   22  C   UNL     1     -13.196  -0.324 -33.618  1.00  0.00     0.039 C 
ENDBRANCH  17  20
ENDBRANCH  16  17
ENDBRANCH  13  16
ENDBRANCH   5  12
BRANCH   1  23
HETATM   23  C   UNL     1      -3.754   4.607 -32.409  1.00  0.00     0.055 C 
HETATM   24  C   UNL     1      -2.249   4.409 -32.515  1.00  0.00     0.011 C 
ENDBRANCH   1  23
TORSDOF 5
ENDMDL
MODEL 10
REMARK VINA RESULT:      -6.4      3.553      7.754
REMARK  5 active torsions:
REMARK  status: ('A' for Active; 'I' for Inactive)
REMARK    1  A    between atoms: C_2  and  C_3 
REMARK    2  A    between atoms: C_7  and  N_8 
REMARK       I    between atoms: N_8  and  C_9 
REMARK    3  A    between atoms: C_9  and  C_10 
REMARK    4  A    between atoms: C_10  and  N_11 
REMARK    5  A    between atoms: N_11  and  C_14 
ROOT
HETATM    1  C   UNL     1      -6.703   2.398 -32.743  1.00  0.00     0.043 C 
HETATM    2  N   UNL     1      -6.390   1.117 -33.037  1.00  0.00    -0.252 NA
HETATM    3  C   UNL     1      -5.249   0.586 -32.593  1.00  0.00     0.069 A 
HETATM    4  C   UNL     1      -4.291   1.321 -31.869  1.00  0.00     0.020 A 
HETATM    5  C   UNL     1      -4.558   2.712 -31.689  1.00  0.00     0.055 C 
HETATM    6  C   UNL     1      -5.827   3.240 -32.048  1.00  0.00    -0.010 C 
HETATM    7  C   UNL     1      -6.200   4.670 -31.750  1.00  0.00     0.052 C 
HETATM    8  C   UNL     1      -5.040  -0.764 -32.849  1.00  0.00     0.032 A 
HETATM    9  C   UNL     1      -3.924  -1.444 -32.369  1.00  0.00     0.002 A 
HETATM   10  C   UNL     1      -3.003  -0.765 -31.591  1.00  0.00     0.001 A 
HETATM   11  C   UNL     1      -3.192   0.594 -31.334  1.00  0.00     0.016 A 
ENDROOT
BRANCH   5  12
HETATM   12  N   UNL     1      -3.602   3.639 -31.158  1.00  0.00    -0.324 N 
HETATM   13  C   UNL     1      -2.581   4.250 -31.867  1.00  0.00     0.248 C 
HETATM   14  O   UNL     1      -2.260   4.056 -33.036  1.00  0.00    -0.271 OA
HETATM   15  H   UNL     1      -3.900   4.114 -30.314  1.00  0.00     0.169 HD
BRANCH  13  16
HETATM   16  C   UNL     1      -1.807   5.293 -31.053  1.00  0.00     0.335 C 
BRANCH  16  17
HETATM   17  N   UNL     1      -0.706   4.687 -30.207  1.00  0.00    -0.063 N 
HETATM   18  H   UNL     1      -1.089   4.371 -29.308  1.00  0.00     0.278 HD
HETATM   19  H   UNL     1      -0.404   3.841 -30.714  1.00  0.00     0.278 HD
BRANCH  17  20
HETATM   20  C   UNL     1       0.545   5.498 -29.974  1.00  0.00     0.178 C 
HETATM   21  C   UNL     1       0.576   6.711 -30.894  1.00  0.00     0.039 C 
HETATM   22  C   UNL     1       0.537   5.924 -28.508  1.00  0.00     0.039 C 
ENDBRANCH  17  20
ENDBRANCH  16  17
ENDBRANCH  13  16
ENDBRANCH   5  12
BRANCH   1  23
HETATM   23  C   UNL     1      -8.052   2.830 -33.267  1.00  0.00     0.055 C 
HETATM   24  C   UNL     1      -9.196   2.053 -32.632  1.00  0.00     0.011 C 
ENDBRANCH   1  23
TORSDOF 5
ENDMDL
