MODEL 1
REMARK VINA RESULT:      -8.7      0.000      0.000
REMARK  7 active torsions:
REMARK  status: ('A' for Active; 'I' for Inactive)
REMARK    1  A    between atoms: C_4  and  C_5 
REMARK    2  A    between atoms: C_12  and  C_13 
REMARK       I    between atoms: C_13  and  N_14 
REMARK    3  A    between atoms: N_14  and  N_15 
REMARK       I    between atoms: N_15  and  C_16 
REMARK    4  A    between atoms: C_16  and  C_17 
REMARK    5  A    between atoms: C_17  and  C_18 
REMARK    6  A    between atoms: C_18  and  C_19 
REMARK    7  A    between atoms: C_22  and  O_23 
ROOT
HETATM    1  C   UNL     1      -3.964   2.883 -32.121  1.00  0.00     0.272 C 
HETATM    2  N   UNL     1      -3.296   3.681 -33.024  1.00  0.00    -0.263 N 
HETATM    3  O   UNL     1      -4.263   3.257 -30.991  1.00  0.00    -0.266 OA
HETATM    4  H   UNL     1      -3.083   3.422 -33.987  1.00  0.00     0.190 HD
ENDROOT
BRANCH   2   5
HETATM    5  N   UNL     1      -2.920   4.965 -32.629  1.00  0.00    -0.267 N 
HETATM    6  C   UNL     1      -2.931   5.957 -33.584  1.00  0.00     0.236 C 
HETATM    7  O   UNL     1      -3.401   5.786 -34.709  1.00  0.00    -0.272 OA
HETATM    8  H   UNL     1      -2.446   5.039 -31.731  1.00  0.00     0.190 HD
BRANCH   6   9
HETATM    9  C   UNL     1      -2.381   7.292 -33.132  1.00  0.00     0.109 C 
BRANCH   9  10
HETATM   10  C   UNL     1      -0.895   7.262 -32.772  1.00  0.00     0.048 C 
BRANCH  10  11
HETATM   11  C   UNL     1      -0.541   6.929 -31.339  1.00  0.00    -0.058 A 
HETATM   12  C   UNL     1      -0.995   7.682 -30.251  1.00  0.00     0.010 A 
HETATM   13  C   UNL     1      -0.658   7.317 -28.944  1.00  0.00     0.037 A 
HETATM   14  C   UNL     1       0.118   6.185 -28.693  1.00  0.00     0.068 A 
HETATM   15  C   UNL     1       0.559   5.418 -29.768  1.00  0.00     0.037 A 
HETATM   16  C   UNL     1       0.228   5.785 -31.079  1.00  0.00     0.010 A 
BRANCH  14  17
HETATM   17  O   UNL     1       0.368   5.942 -27.372  1.00  0.00    -0.356 OA
HETATM   18  C   UNL     1      -0.672   6.255 -26.454  1.00  0.00     0.210 C 
ENDBRANCH  14  17
ENDBRANCH  10  11
ENDBRANCH   9  10
ENDBRANCH   6   9
ENDBRANCH   2   5
BRANCH   1  19
HETATM   19  C   UNL     1      -4.315   1.530 -32.610  1.00  0.00     0.058 A 
HETATM   20  C   UNL     1      -5.544   1.266 -33.214  1.00  0.00     0.047 A 
HETATM   21  C   UNL     1      -6.593   2.322 -33.407  1.00  0.00     0.071 C 
HETATM   22  N   UNL     1      -5.869   0.027 -33.679  1.00  0.00    -0.252 NA
HETATM   23  C   UNL     1      -4.977  -0.987 -33.533  1.00  0.00     0.074 A 
HETATM   24  C   UNL     1      -3.738  -0.793 -32.931  1.00  0.00     0.034 A 
HETATM   25  C   UNL     1      -3.404   0.478 -32.466  1.00  0.00     0.021 A 
BRANCH  23  26
HETATM   26  C   UNL     1      -5.440  -2.273 -34.080  1.00  0.00     0.033 A 
HETATM   27  S   UNL     1      -4.386  -3.623 -34.252  1.00  0.00    -0.100 SA
HETATM   28  C   UNL     1      -5.622  -4.612 -34.891  1.00  0.00     0.050 A 
HETATM   29  C   UNL     1      -6.822  -3.947 -34.975  1.00  0.00     0.008 A 
HETATM   30  C   UNL     1      -6.717  -2.607 -34.503  1.00  0.00     0.021 A 
ENDBRANCH  23  26
ENDBRANCH   1  19
TORSDOF 7
ENDMDL
MODEL 2
REMARK VINA RESULT:      -8.6      1.832      2.325
REMARK  7 active torsions:
REMARK  status: ('A' for Active; 'I' for Inactive)
REMARK    1  A    between atoms: C_4  and  C_5 
REMARK    2  A    between atoms: C_12  and  C_13 
REMARK       I    between atoms: C_13  and  N_14 
REMARK    3  A    between atoms: N_14  and  N_15 
REMARK       I    between atoms: N_15  and  C_16 
REMARK    4  A    between atoms: C_16  and  C_17 
REMARK    5  A    between atoms: C_17  and  C_18 
REMARK    6  A    between atoms: C_18  and  C_19 
REMARK    7  A    between atoms: C_22  and  O_23 
ROOT
HETATM    1  C   UNL     1      -4.423   2.682 -31.148  1.00  0.00     0.272 C 
HETATM    2  N   UNL     1      -3.323   3.373 -31.609  1.00  0.00    -0.263 N 
HETATM    3  O   UNL     1      -5.146   3.099 -30.250  1.00  0.00    -0.266 OA
HETATM    4  H   UNL     1      -2.735   3.082 -32.390  1.00  0.00     0.190 HD
ENDROOT
BRANCH   2   5
HETATM    5  N   UNL     1      -3.003   4.592 -31.012  1.00  0.00    -0.267 N 
HETATM    6  C   UNL     1      -1.727   5.077 -31.191  1.00  0.00     0.236 C 
HETATM    7  O   UNL     1      -0.928   4.561 -31.973  1.00  0.00    -0.272 OA
HETATM    8  H   UNL     1      -3.649   4.928 -30.300  1.00  0.00     0.190 HD
BRANCH   6   9
HETATM    9  C   UNL     1      -1.396   6.327 -30.406  1.00  0.00     0.109 C 
BRANCH   9  10
HETATM   10  C   UNL     1       0.096   6.510 -30.129  1.00  0.00     0.048 C 
BRANCH  10  11
HETATM   11  C   UNL     1       0.482   7.066 -28.776  1.00  0.00    -0.058 A 
HETATM   12  C   UNL     1       1.215   8.247 -28.622  1.00  0.00     0.010 A 
HETATM   13  C   UNL     1       1.524   8.730 -27.346  1.00  0.00     0.037 A 
HETATM   14  C   UNL     1       1.092   8.059 -26.201  1.00  0.00     0.068 A 
HETATM   15  C   UNL     1       0.346   6.893 -26.344  1.00  0.00     0.037 A 
HETATM   16  C   UNL     1       0.040   6.404 -27.620  1.00  0.00     0.010 A 
BRANCH  14  17
HETATM   17  O   UNL     1       1.461   8.643 -25.022  1.00  0.00    -0.356 OA
HETATM   18  C   UNL     1       2.833   8.992 -24.881  1.00  0.00     0.210 C 
ENDBRANCH  14  17
ENDBRANCH  10  11
ENDBRANCH   9  10
ENDBRANCH   6   9
ENDBRANCH   2   5
BRANCH   1  19
HETATM   19  C   UNL     1      -4.687   1.390 -31.823  1.00  0.00     0.058 A 
HETATM   20  C   UNL     1      -5.488   1.309 -32.961  1.00  0.00     0.047 A 
HETATM   21  C   UNL     1      -6.138   2.513 -33.579  1.00  0.00     0.071 C 
HETATM   22  N   UNL     1      -5.724   0.127 -33.595  1.00  0.00    -0.252 NA
HETATM   23  C   UNL     1      -5.180  -1.012 -33.092  1.00  0.00     0.074 A 
HETATM   24  C   UNL     1      -4.381  -1.002 -31.955  1.00  0.00     0.034 A 
HETATM   25  C   UNL     1      -4.132   0.211 -31.314  1.00  0.00     0.021 A 
BRANCH  23  26
HETATM   26  C   UNL     1      -5.503  -2.220 -33.868  1.00  0.00     0.033 A 
HETATM   27  S   UNL     1      -4.337  -3.452 -34.163  1.00  0.00    -0.100 SA
HETATM   28  C   UNL     1      -5.445  -4.406 -35.045  1.00  0.00     0.050 A 
HETATM   29  C   UNL     1      -6.685  -3.817 -35.121  1.00  0.00     0.008 A 
HETATM   30  C   UNL     1      -6.718  -2.566 -34.439  1.00  0.00     0.021 A 
ENDBRANCH  23  26
ENDBRANCH   1  19
TORSDOF 7
ENDMDL
MODEL 3
REMARK VINA RESULT:      -8.3      1.048      1.810
REMARK  7 active torsions:
REMARK  status: ('A' for Active; 'I' for Inactive)
REMARK    1  A    between atoms: C_4  and  C_5 
REMARK    2  A    between atoms: C_12  and  C_13 
REMARK       I    between atoms: C_13  and  N_14 
REMARK    3  A    between atoms: N_14  and  N_15 
REMARK       I    between atoms: N_15  and  C_16 
REMARK    4  A    between atoms: C_16  and  C_17 
REMARK    5  A    between atoms: C_17  and  C_18 
REMARK    6  A    between atoms: C_18  and  C_19 
REMARK    7  A    between atoms: C_22  and  O_23 
ROOT
HETATM    1  C   UNL     1      -4.404   2.890 -32.063  1.00  0.00     0.272 C 
HETATM    2  N   UNL     1      -3.539   3.646 -32.826  1.00  0.00    -0.263 N 
HETATM    3  O   UNL     1      -4.858   3.274 -30.989  1.00  0.00    -0.266 OA
HETATM    4  H   UNL     1      -3.189   3.381 -33.746  1.00  0.00     0.190 HD
ENDROOT
BRANCH   2   5
HETATM    5  N   UNL     1      -3.144   4.894 -32.346  1.00  0.00    -0.267 N 
HETATM    6  C   UNL     1      -3.370   5.989 -33.149  1.00  0.00     0.236 C 
HETATM    7  O   UNL     1      -4.037   5.924 -34.183  1.00  0.00    -0.272 OA
HETATM    8  H   UNL     1      -2.514   4.890 -31.547  1.00  0.00     0.190 HD
BRANCH   6   9
HETATM    9  C   UNL     1      -2.795   7.292 -32.639  1.00  0.00     0.109 C 
BRANCH   9  10
HETATM   10  C   UNL     1      -1.300   7.231 -32.325  1.00  0.00     0.048 C 
BRANCH  10  11
HETATM   11  C   UNL     1      -0.896   7.370 -30.874  1.00  0.00    -0.058 A 
HETATM   12  C   UNL     1       0.307   6.864 -30.370  1.00  0.00     0.010 A 
HETATM   13  C   UNL     1       0.644   7.041 -29.025  1.00  0.00     0.037 A 
HETATM   14  C   UNL     1      -0.198   7.742 -28.161  1.00  0.00     0.068 A 
HETATM   15  C   UNL     1      -1.389   8.265 -28.657  1.00  0.00     0.037 A 
HETATM   16  C   UNL     1      -1.731   8.084 -30.003  1.00  0.00     0.010 A 
BRANCH  14  17
HETATM   17  O   UNL     1       0.255   7.843 -26.876  1.00  0.00    -0.356 OA
HETATM   18  C   UNL     1       1.646   8.084 -26.703  1.00  0.00     0.210 C 
ENDBRANCH  14  17
ENDBRANCH  10  11
ENDBRANCH   9  10
ENDBRANCH   6   9
ENDBRANCH   2   5
BRANCH   1  19
HETATM   19  C   UNL     1      -4.764   1.571 -32.633  1.00  0.00     0.058 A 
HETATM   20  C   UNL     1      -4.093   0.406 -32.260  1.00  0.00     0.047 A 
HETATM   21  C   UNL     1      -2.968   0.403 -31.268  1.00  0.00     0.071 C 
HETATM   22  N   UNL     1      -4.428  -0.812 -32.770  1.00  0.00    -0.252 NA
HETATM   23  C   UNL     1      -5.430  -0.894 -33.683  1.00  0.00     0.074 A 
HETATM   24  C   UNL     1      -6.131   0.231 -34.104  1.00  0.00     0.034 A 
HETATM   25  C   UNL     1      -5.794   1.476 -33.573  1.00  0.00     0.021 A 
BRANCH  23  26
HETATM   26  C   UNL     1      -5.700  -2.263 -34.152  1.00  0.00     0.033 A 
HETATM   27  S   UNL     1      -4.458  -3.448 -34.267  1.00  0.00    -0.100 SA
HETATM   28  C   UNL     1      -5.537  -4.645 -34.831  1.00  0.00     0.050 A 
HETATM   29  C   UNL     1      -6.824  -4.172 -34.933  1.00  0.00     0.008 A 
HETATM   30  C   UNL     1      -6.917  -2.806 -34.535  1.00  0.00     0.021 A 
ENDBRANCH  23  26
ENDBRANCH   1  19
TORSDOF 7
ENDMDL
MODEL 4
REMARK VINA RESULT:      -8.3      3.897     10.478
REMARK  7 active torsions:
REMARK  status: ('A' for Active; 'I' for Inactive)
REMARK    1  A    between atoms: C_4  and  C_5 
REMARK    2  A    between atoms: C_12  and  C_13 
REMARK       I    between atoms: C_13  and  N_14 
REMARK    3  A    between atoms: N_14  and  N_15 
REMARK       I    between atoms: N_15  and  C_16 
REMARK    4  A    between atoms: C_16  and  C_17 
REMARK    5  A    between atoms: C_17  and  C_18 
REMARK    6  A    between atoms: C_18  and  C_19 
REMARK    7  A    between atoms: C_22  and  O_23 
ROOT
HETATM    1  C   UNL     1      -1.541   4.974 -31.561  1.00  0.00     0.272 C 
HETATM    2  N   UNL     1      -2.557   4.134 -31.157  1.00  0.00    -0.263 N 
HETATM    3  O   UNL     1      -1.195   5.091 -32.732  1.00  0.00    -0.266 OA
HETATM    4  H   UNL     1      -2.905   4.056 -30.202  1.00  0.00     0.190 HD
ENDROOT
BRANCH   2   5
HETATM    5  N   UNL     1      -3.206   3.362 -32.120  1.00  0.00    -0.267 N 
HETATM    6  C   UNL     1      -4.571   3.497 -32.234  1.00  0.00     0.236 C 
HETATM    7  O   UNL     1      -5.201   4.370 -31.636  1.00  0.00    -0.272 OA
HETATM    8  H   UNL     1      -2.671   2.591 -32.514  1.00  0.00     0.190 HD
BRANCH   6   9
HETATM    9  C   UNL     1      -5.236   2.536 -33.195  1.00  0.00     0.109 C 
BRANCH   9  10
HETATM   10  C   UNL     1      -5.892   1.333 -32.516  1.00  0.00     0.048 C 
BRANCH  10  11
HETATM   11  C   UNL     1      -5.785   0.001 -33.223  1.00  0.00    -0.058 A 
HETATM   12  C   UNL     1      -6.787  -0.495 -34.062  1.00  0.00     0.010 A 
HETATM   13  C   UNL     1      -6.627  -1.724 -34.712  1.00  0.00     0.037 A 
HETATM   14  C   UNL     1      -5.459  -2.471 -34.555  1.00  0.00     0.068 A 
HETATM   15  C   UNL     1      -4.447  -1.977 -33.735  1.00  0.00     0.037 A 
HETATM   16  C   UNL     1      -4.608  -0.750 -33.080  1.00  0.00     0.010 A 
BRANCH  14  17
HETATM   17  O   UNL     1      -5.434  -3.648 -35.248  1.00  0.00    -0.356 OA
HETATM   18  C   UNL     1      -6.608  -4.449 -35.194  1.00  0.00     0.210 C 
ENDBRANCH  14  17
ENDBRANCH  10  11
ENDBRANCH   9  10
ENDBRANCH   6   9
ENDBRANCH   2   5
BRANCH   1  19
HETATM   19  C   UNL     1      -0.891   5.748 -30.478  1.00  0.00     0.058 A 
HETATM   20  C   UNL     1      -1.274   7.057 -30.182  1.00  0.00     0.047 A 
HETATM   21  C   UNL     1      -2.358   7.771 -30.935  1.00  0.00     0.071 C 
HETATM   22  N   UNL     1      -0.691   7.770 -29.179  1.00  0.00    -0.252 NA
HETATM   23  C   UNL     1       0.308   7.197 -28.457  1.00  0.00     0.074 A 
HETATM   24  C   UNL     1       0.743   5.901 -28.707  1.00  0.00     0.034 A 
HETATM   25  C   UNL     1       0.137   5.169 -29.727  1.00  0.00     0.021 A 
BRANCH  23  26
HETATM   26  C   UNL     1       0.851   8.065 -27.399  1.00  0.00     0.033 A 
HETATM   27  S   UNL     1       0.256   9.658 -27.131  1.00  0.00    -0.100 SA
HETATM   28  C   UNL     1       1.330   9.930 -25.832  1.00  0.00     0.050 A 
HETATM   29  C   UNL     1       2.131   8.840 -25.589  1.00  0.00     0.008 A 
HETATM   30  C   UNL     1       1.850   7.768 -26.484  1.00  0.00     0.021 A 
ENDBRANCH  23  26
ENDBRANCH   1  19
TORSDOF 7
ENDMDL
MODEL 5
REMARK VINA RESULT:      -8.2      3.808     10.084
REMARK  7 active torsions:
REMARK  status: ('A' for Active; 'I' for Inactive)
REMARK    1  A    between atoms: C_4  and  C_5 
REMARK    2  A    between atoms: C_12  and  C_13 
REMARK       I    between atoms: C_13  and  N_14 
REMARK    3  A    between atoms: N_14  and  N_15 
REMARK       I    between atoms: N_15  and  C_16 
REMARK    4  A    between atoms: C_16  and  C_17 
REMARK    5  A    between atoms: C_17  and  C_18 
REMARK    6  A    between atoms: C_18  and  C_19 
REMARK    7  A    between atoms: C_22  and  O_23 
ROOT
HETATM    1  C   UNL     1      -2.432   4.102 -32.172  1.00  0.00     0.272 C 
HETATM    2  N   UNL     1      -3.029   3.024 -31.553  1.00  0.00    -0.263 N 
HETATM    3  O   UNL     1      -2.421   4.252 -33.390  1.00  0.00    -0.266 OA
HETATM    4  H   UNL     1      -3.104   2.899 -30.545  1.00  0.00     0.190 HD
ENDROOT
BRANCH   2   5
HETATM    5  N   UNL     1      -3.628   2.048 -32.348  1.00  0.00    -0.267 N 
HETATM    6  C   UNL     1      -3.334   0.731 -32.073  1.00  0.00     0.236 C 
HETATM    7  O   UNL     1      -2.701   0.390 -31.074  1.00  0.00    -0.272 OA
HETATM    8  H   UNL     1      -4.055   2.371 -33.214  1.00  0.00     0.190 HD
BRANCH   6   9
HETATM    9  C   UNL     1      -3.900  -0.274 -33.053  1.00  0.00     0.109 C 
BRANCH   9  10
HETATM   10  C   UNL     1      -5.170  -0.971 -32.563  1.00  0.00     0.048 C 
BRANCH  10  11
HETATM   11  C   UNL     1      -6.489  -0.430 -33.067  1.00  0.00    -0.058 A 
HETATM   12  C   UNL     1      -7.466   0.098 -32.216  1.00  0.00     0.010 A 
HETATM   13  C   UNL     1      -8.660   0.608 -32.736  1.00  0.00     0.037 A 
HETATM   14  C   UNL     1      -8.896   0.622 -34.111  1.00  0.00     0.068 A 
HETATM   15  C   UNL     1      -7.922   0.116 -34.968  1.00  0.00     0.037 A 
HETATM   16  C   UNL     1      -6.727  -0.401 -34.449  1.00  0.00     0.010 A 
BRANCH  14  17
HETATM   17  O   UNL     1     -10.100   1.151 -34.481  1.00  0.00    -0.356 OA
HETATM   18  C   UNL     1     -10.925   1.658 -33.439  1.00  0.00     0.210 C 
ENDBRANCH  14  17
ENDBRANCH  10  11
ENDBRANCH   9  10
ENDBRANCH   6   9
ENDBRANCH   2   5
BRANCH   1  19
HETATM   19  C   UNL     1      -1.804   5.087 -31.261  1.00  0.00     0.058 A 
HETATM   20  C   UNL     1      -2.510   6.188 -30.776  1.00  0.00     0.047 A 
HETATM   21  C   UNL     1      -3.941   6.454 -31.140  1.00  0.00     0.071 C 
HETATM   22  N   UNL     1      -1.943   7.090 -29.927  1.00  0.00    -0.252 NA
HETATM   23  C   UNL     1      -0.646   6.926 -29.558  1.00  0.00     0.074 A 
HETATM   24  C   UNL     1       0.115   5.856 -30.014  1.00  0.00     0.034 A 
HETATM   25  C   UNL     1      -0.470   4.927 -30.874  1.00  0.00     0.021 A 
BRANCH  23  26
HETATM   26  C   UNL     1      -0.153   7.961 -28.635  1.00  0.00     0.033 A 
HETATM   27  S   UNL     1      -1.192   9.167 -27.979  1.00  0.00    -0.100 SA
HETATM   28  C   UNL     1       0.072   9.886 -27.083  1.00  0.00     0.050 A 
HETATM   29  C   UNL     1       1.268   9.232 -27.263  1.00  0.00     0.008 A 
HETATM   30  C   UNL     1       1.135   8.123 -28.148  1.00  0.00     0.021 A 
ENDBRANCH  23  26
ENDBRANCH   1  19
TORSDOF 7
ENDMDL
MODEL 6
REMARK VINA RESULT:      -8.0      3.565      9.718
REMARK  7 active torsions:
REMARK  status: ('A' for Active; 'I' for Inactive)
REMARK    1  A    between atoms: C_4  and  C_5 
REMARK    2  A    between atoms: C_12  and  C_13 
REMARK       I    between atoms: C_13  and  N_14 
REMARK    3  A    between atoms: N_14  and  N_15 
REMARK       I    between atoms: N_15  and  C_16 
REMARK    4  A    between atoms: C_16  and  C_17 
REMARK    5  A    between atoms: C_17  and  C_18 
REMARK    6  A    between atoms: C_18  and  C_19 
REMARK    7  A    between atoms: C_22  and  O_23 
ROOT
HETATM    1  C   UNL     1      -5.140   3.916 -33.496  1.00  0.00     0.272 C 
HETATM    2  N   UNL     1      -5.587   2.721 -32.976  1.00  0.00    -0.263 N 
HETATM    3  O   UNL     1      -5.553   4.381 -34.554  1.00  0.00    -0.266 OA
HETATM    4  H   UNL     1      -5.308   2.335 -32.075  1.00  0.00     0.190 HD
ENDROOT
BRANCH   2   5
HETATM    5  N   UNL     1      -6.535   1.994 -33.695  1.00  0.00    -0.267 N 
HETATM    6  C   UNL     1      -7.291   1.070 -33.007  1.00  0.00     0.236 C 
HETATM    7  O   UNL     1      -7.266   0.981 -31.779  1.00  0.00    -0.272 OA
HETATM    8  H   UNL     1      -6.452   2.024 -34.709  1.00  0.00     0.190 HD
BRANCH   6   9
HETATM    9  C   UNL     1      -8.200   0.216 -33.862  1.00  0.00     0.109 C 
BRANCH   9  10
HETATM   10  C   UNL     1      -7.504  -0.419 -35.067  1.00  0.00     0.048 C 
BRANCH  10  11
HETATM   11  C   UNL     1      -6.668  -1.652 -34.807  1.00  0.00    -0.058 A 
HETATM   12  C   UNL     1      -7.126  -2.948 -35.069  1.00  0.00     0.010 A 
HETATM   13  C   UNL     1      -6.303  -4.053 -34.833  1.00  0.00     0.037 A 
HETATM   14  C   UNL     1      -5.003  -3.890 -34.354  1.00  0.00     0.068 A 
HETATM   15  C   UNL     1      -4.531  -2.604 -34.108  1.00  0.00     0.037 A 
HETATM   16  C   UNL     1      -5.356  -1.495 -34.338  1.00  0.00     0.010 A 
BRANCH  14  17
HETATM   17  O   UNL     1      -4.309  -5.053 -34.173  1.00  0.00    -0.356 OA
HETATM   18  C   UNL     1      -3.184  -5.000 -33.304  1.00  0.00     0.210 C 
ENDBRANCH  14  17
ENDBRANCH  10  11
ENDBRANCH   9  10
ENDBRANCH   6   9
ENDBRANCH   2   5
BRANCH   1  19
HETATM   19  C   UNL     1      -4.123   4.620 -32.681  1.00  0.00     0.058 A 
HETATM   20  C   UNL     1      -4.483   5.450 -31.620  1.00  0.00     0.047 A 
HETATM   21  C   UNL     1      -5.912   5.692 -31.232  1.00  0.00     0.071 C 
HETATM   22  N   UNL     1      -3.553   6.090 -30.858  1.00  0.00    -0.252 NA
HETATM   23  C   UNL     1      -2.236   5.932 -31.152  1.00  0.00     0.074 A 
HETATM   24  C   UNL     1      -1.811   5.126 -32.202  1.00  0.00     0.034 A 
HETATM   25  C   UNL     1      -2.765   4.464 -32.975  1.00  0.00     0.021 A 
BRANCH  23  26
HETATM   26  C   UNL     1      -1.331   6.668 -30.253  1.00  0.00     0.033 A 
HETATM   27  S   UNL     1      -1.919   7.793 -29.091  1.00  0.00    -0.100 SA
HETATM   28  C   UNL     1      -0.349   8.148 -28.518  1.00  0.00     0.050 A 
HETATM   29  C   UNL     1       0.616   7.431 -29.184  1.00  0.00     0.008 A 
HETATM   30  C   UNL     1       0.050   6.576 -30.174  1.00  0.00     0.021 A 
ENDBRANCH  23  26
ENDBRANCH   1  19
TORSDOF 7
ENDMDL
MODEL 7
REMARK VINA RESULT:      -7.6      3.384      4.320
REMARK  7 active torsions:
REMARK  status: ('A' for Active; 'I' for Inactive)
REMARK    1  A    between atoms: C_4  and  C_5 
REMARK    2  A    between atoms: C_12  and  C_13 
REMARK       I    between atoms: C_13  and  N_14 
REMARK    3  A    between atoms: N_14  and  N_15 
REMARK       I    between atoms: N_15  and  C_16 
REMARK    4  A    between atoms: C_16  and  C_17 
REMARK    5  A    between atoms: C_17  and  C_18 
REMARK    6  A    between atoms: C_18  and  C_19 
REMARK    7  A    between atoms: C_22  and  O_23 
ROOT
HETATM    1  C   UNL     1      -5.507   3.193 -32.570  1.00  0.00     0.272 C 
HETATM    2  N   UNL     1      -4.939   3.983 -33.547  1.00  0.00    -0.263 N 
HETATM    3  O   UNL     1      -4.897   2.817 -31.575  1.00  0.00    -0.266 OA
HETATM    4  H   UNL     1      -5.434   4.357 -34.356  1.00  0.00     0.190 HD
ENDROOT
BRANCH   2   5
HETATM    5  N   UNL     1      -3.602   4.352 -33.410  1.00  0.00    -0.267 N 
HETATM    6  C   UNL     1      -3.061   5.168 -34.380  1.00  0.00     0.236 C 
HETATM    7  O   UNL     1      -3.746   5.695 -35.256  1.00  0.00    -0.272 OA
HETATM    8  H   UNL     1      -3.053   3.819 -32.739  1.00  0.00     0.190 HD
BRANCH   6   9
HETATM    9  C   UNL     1      -1.575   5.420 -34.254  1.00  0.00     0.109 C 
BRANCH   9  10
HETATM   10  C   UNL     1      -1.223   6.688 -33.475  1.00  0.00     0.048 C 
BRANCH  10  11
HETATM   11  C   UNL     1      -0.694   6.507 -32.070  1.00  0.00    -0.058 A 
HETATM   12  C   UNL     1      -0.740   7.520 -31.106  1.00  0.00     0.010 A 
HETATM   13  C   UNL     1      -0.258   7.292 -29.813  1.00  0.00     0.037 A 
HETATM   14  C   UNL     1       0.258   6.049 -29.448  1.00  0.00     0.068 A 
HETATM   15  C   UNL     1       0.291   5.028 -30.395  1.00  0.00     0.037 A 
HETATM   16  C   UNL     1      -0.186   5.255 -31.692  1.00  0.00     0.010 A 
BRANCH  14  17
HETATM   17  O   UNL     1       0.689   5.964 -28.155  1.00  0.00    -0.356 OA
HETATM   18  C   UNL     1      -0.243   6.324 -27.143  1.00  0.00     0.210 C 
ENDBRANCH  14  17
ENDBRANCH  10  11
ENDBRANCH   9  10
ENDBRANCH   6   9
ENDBRANCH   2   5
BRANCH   1  19
HETATM   19  C   UNL     1      -6.926   2.830 -32.796  1.00  0.00     0.058 A 
HETATM   20  C   UNL     1      -7.957   3.425 -32.069  1.00  0.00     0.047 A 
HETATM   21  C   UNL     1      -7.708   4.462 -31.014  1.00  0.00     0.071 C 
HETATM   22  N   UNL     1      -9.265   3.106 -32.280  1.00  0.00    -0.252 NA
HETATM   23  C   UNL     1      -9.573   2.167 -33.211  1.00  0.00     0.074 A 
HETATM   24  C   UNL     1      -8.592   1.529 -33.963  1.00  0.00     0.034 A 
HETATM   25  C   UNL     1      -7.255   1.865 -33.752  1.00  0.00     0.021 A 
BRANCH  23  26
HETATM   26  C   UNL     1     -11.017   1.916 -33.350  1.00  0.00     0.033 A 
HETATM   27  S   UNL     1     -12.185   3.158 -33.114  1.00  0.00    -0.100 SA
HETATM   28  C   UNL     1     -13.490   2.111 -33.450  1.00  0.00     0.050 A 
HETATM   29  C   UNL     1     -13.066   0.836 -33.743  1.00  0.00     0.008 A 
HETATM   30  C   UNL     1     -11.646   0.728 -33.692  1.00  0.00     0.021 A 
ENDBRANCH  23  26
ENDBRANCH   1  19
TORSDOF 7
ENDMDL
MODEL 8
REMARK VINA RESULT:      -7.4      2.541      3.176
REMARK  7 active torsions:
REMARK  status: ('A' for Active; 'I' for Inactive)
REMARK    1  A    between atoms: C_4  and  C_5 
REMARK    2  A    between atoms: C_12  and  C_13 
REMARK       I    between atoms: C_13  and  N_14 
REMARK    3  A    between atoms: N_14  and  N_15 
REMARK       I    between atoms: N_15  and  C_16 
REMARK    4  A    between atoms: C_16  and  C_17 
REMARK    5  A    between atoms: C_17  and  C_18 
REMARK    6  A    between atoms: C_18  and  C_19 
REMARK    7  A    between atoms: C_22  and  O_23 
ROOT
HETATM    1  C   UNL     1      -4.641   2.767 -31.795  1.00  0.00     0.272 C 
HETATM    2  N   UNL     1      -3.851   3.623 -32.533  1.00  0.00    -0.263 N 
HETATM    3  O   UNL     1      -5.089   3.055 -30.690  1.00  0.00    -0.266 OA
HETATM    4  H   UNL     1      -3.510   3.437 -33.475  1.00  0.00     0.190 HD
ENDROOT
BRANCH   2   5
HETATM    5  N   UNL     1      -3.526   4.865 -31.988  1.00  0.00    -0.267 N 
HETATM    6  C   UNL     1      -2.231   5.057 -31.562  1.00  0.00     0.236 C 
HETATM    7  O   UNL     1      -1.335   4.243 -31.785  1.00  0.00    -0.272 OA
HETATM    8  H   UNL     1      -4.309   5.463 -31.731  1.00  0.00     0.190 HD
BRANCH   6   9
HETATM    9  C   UNL     1      -1.973   6.369 -30.854  1.00  0.00     0.109 C 
BRANCH   9  10
HETATM   10  C   UNL     1      -3.224   7.228 -30.664  1.00  0.00     0.048 C 
BRANCH  10  11
HETATM   11  C   UNL     1      -3.706   7.438 -29.245  1.00  0.00    -0.058 A 
HETATM   12  C   UNL     1      -5.056   7.368 -28.885  1.00  0.00     0.010 A 
HETATM   13  C   UNL     1      -5.445   7.545 -27.554  1.00  0.00     0.037 A 
HETATM   14  C   UNL     1      -4.500   7.775 -26.554  1.00  0.00     0.068 A 
HETATM   15  C   UNL     1      -3.152   7.828 -26.900  1.00  0.00     0.037 A 
HETATM   16  C   UNL     1      -2.760   7.655 -28.233  1.00  0.00     0.010 A 
BRANCH  14  17
HETATM   17  O   UNL     1      -5.018   7.926 -25.299  1.00  0.00    -0.356 OA
HETATM   18  C   UNL     1      -4.369   8.862 -24.446  1.00  0.00     0.210 C 
ENDBRANCH  14  17
ENDBRANCH  10  11
ENDBRANCH   9  10
ENDBRANCH   6   9
ENDBRANCH   2   5
BRANCH   1  19
HETATM   19  C   UNL     1      -4.929   1.462 -32.435  1.00  0.00     0.058 A 
HETATM   20  C   UNL     1      -4.209   0.313 -32.107  1.00  0.00     0.047 A 
HETATM   21  C   UNL     1      -3.100   0.315 -31.097  1.00  0.00     0.071 C 
HETATM   22  N   UNL     1      -4.477  -0.893 -32.681  1.00  0.00    -0.252 NA
HETATM   23  C   UNL     1      -5.460  -0.977 -33.614  1.00  0.00     0.074 A 
HETATM   24  C   UNL     1      -6.208   0.133 -33.993  1.00  0.00     0.034 A 
HETATM   25  C   UNL     1      -5.939   1.364 -33.397  1.00  0.00     0.021 A 
BRANCH  23  26
HETATM   26  C   UNL     1      -5.657  -2.332 -34.154  1.00  0.00     0.033 A 
HETATM   27  S   UNL     1      -4.379  -3.484 -34.214  1.00  0.00    -0.100 SA
HETATM   28  C   UNL     1      -5.379  -4.682 -34.906  1.00  0.00     0.050 A 
HETATM   29  C   UNL     1      -6.666  -4.235 -35.091  1.00  0.00     0.008 A 
HETATM   30  C   UNL     1      -6.825  -2.889 -34.652  1.00  0.00     0.021 A 
ENDBRANCH  23  26
ENDBRANCH   1  19
TORSDOF 7
ENDMDL
MODEL 9
REMARK VINA RESULT:      -7.4      3.598      4.248
REMARK  7 active torsions:
REMARK  status: ('A' for Active; 'I' for Inactive)
REMARK    1  A    between atoms: C_4  and  C_5 
REMARK    2  A    between atoms: C_12  and  C_13 
REMARK       I    between atoms: C_13  and  N_14 
REMARK    3  A    between atoms: N_14  and  N_15 
REMARK       I    between atoms: N_15  and  C_16 
REMARK    4  A    between atoms: C_16  and  C_17 
REMARK    5  A    between atoms: C_17  and  C_18 
REMARK    6  A    between atoms: C_18  and  C_19 
REMARK    7  A    between atoms: C_22  and  O_23 
ROOT
HETATM    1  C   UNL     1      -4.205   5.063 -30.694  1.00  0.00     0.272 C 
HETATM    2  N   UNL     1      -2.952   4.595 -31.031  1.00  0.00    -0.263 N 
HETATM    3  O   UNL     1      -4.388   6.134 -30.124  1.00  0.00    -0.266 OA
HETATM    4  H   UNL     1      -2.770   3.739 -31.553  1.00  0.00     0.190 HD
ENDROOT
BRANCH   2   5
HETATM    5  N   UNL     1      -1.840   5.363 -30.687  1.00  0.00    -0.267 N 
HETATM    6  C   UNL     1      -1.283   6.155 -31.667  1.00  0.00     0.236 C 
HETATM    7  O   UNL     1      -1.817   6.323 -32.763  1.00  0.00    -0.272 OA
HETATM    8  H   UNL     1      -1.376   5.119 -29.815  1.00  0.00     0.190 HD
BRANCH   6   9
HETATM    9  C   UNL     1       0.001   6.855 -31.277  1.00  0.00     0.109 C 
BRANCH   9  10
HETATM   10  C   UNL     1       0.442   6.586 -29.837  1.00  0.00     0.048 C 
BRANCH  10  11
HETATM   11  C   UNL     1       0.331   7.733 -28.858  1.00  0.00    -0.058 A 
HETATM   12  C   UNL     1       1.401   8.156 -28.062  1.00  0.00     0.010 A 
HETATM   13  C   UNL     1       1.252   9.239 -27.190  1.00  0.00     0.037 A 
HETATM   14  C   UNL     1       0.044   9.933 -27.108  1.00  0.00     0.068 A 
HETATM   15  C   UNL     1      -1.021   9.531 -27.909  1.00  0.00     0.037 A 
HETATM   16  C   UNL     1      -0.876   8.443 -28.780  1.00  0.00     0.010 A 
BRANCH  14  17
HETATM   17  O   UNL     1       0.038  10.971 -26.218  1.00  0.00    -0.356 OA
HETATM   18  C   UNL     1       1.164  11.083 -25.356  1.00  0.00     0.210 C 
ENDBRANCH  14  17
ENDBRANCH  10  11
ENDBRANCH   9  10
ENDBRANCH   6   9
ENDBRANCH   2   5
BRANCH   1  19
HETATM   19  C   UNL     1      -5.333   4.183 -31.078  1.00  0.00     0.058 A 
HETATM   20  C   UNL     1      -5.979   4.317 -32.307  1.00  0.00     0.047 A 
HETATM   21  C   UNL     1      -5.584   5.353 -33.319  1.00  0.00     0.071 C 
HETATM   22  N   UNL     1      -7.008   3.503 -32.674  1.00  0.00    -0.252 NA
HETATM   23  C   UNL     1      -7.432   2.545 -31.808  1.00  0.00     0.074 A 
HETATM   24  C   UNL     1      -6.838   2.367 -30.564  1.00  0.00     0.034 A 
HETATM   25  C   UNL     1      -5.778   3.194 -30.196  1.00  0.00     0.021 A 
BRANCH  23  26
HETATM   26  C   UNL     1      -8.544   1.728 -32.321  1.00  0.00     0.033 A 
HETATM   27  S   UNL     1      -9.736   2.374 -33.382  1.00  0.00    -0.100 SA
HETATM   28  C   UNL     1     -10.569   0.887 -33.487  1.00  0.00     0.050 A 
HETATM   29  C   UNL     1      -9.964  -0.096 -32.740  1.00  0.00     0.008 A 
HETATM   30  C   UNL     1      -8.798   0.387 -32.077  1.00  0.00     0.021 A 
ENDBRANCH  23  26
ENDBRANCH   1  19
TORSDOF 7
ENDMDL
MODEL 10
REMARK VINA RESULT:      -7.3      1.970      2.517
REMARK  7 active torsions:
REMARK  status: ('A' for Active; 'I' for Inactive)
REMARK    1  A    between atoms: C_4  and  C_5 
REMARK    2  A    between atoms: C_12  and  C_13 
REMARK       I    between atoms: C_13  and  N_14 
REMARK    3  A    between atoms: N_14  and  N_15 
REMARK       I    between atoms: N_15  and  C_16 
REMARK    4  A    between atoms: C_16  and  C_17 
REMARK    5  A    between atoms: C_17  and  C_18 
REMARK    6  A    between atoms: C_18  and  C_19 
REMARK    7  A    between atoms: C_22  and  O_23 
ROOT
HETATM    1  C   UNL     1      -3.588   3.236 -31.559  1.00  0.00     0.272 C 
HETATM    2  N   UNL     1      -4.412   3.764 -30.588  1.00  0.00    -0.263 N 
HETATM    3  O   UNL     1      -2.570   3.798 -31.949  1.00  0.00    -0.266 OA
HETATM    4  H   UNL     1      -5.232   3.298 -30.202  1.00  0.00     0.190 HD
ENDROOT
BRANCH   2   5
HETATM    5  N   UNL     1      -4.087   5.004 -30.040  1.00  0.00    -0.267 N 
HETATM    6  C   UNL     1      -4.988   6.032 -30.205  1.00  0.00     0.236 C 
HETATM    7  O   UNL     1      -6.114   5.854 -30.670  1.00  0.00    -0.272 OA
HETATM    8  H   UNL     1      -3.116   5.133 -29.759  1.00  0.00     0.190 HD
BRANCH   6   9
HETATM    9  C   UNL     1      -4.521   7.385 -29.714  1.00  0.00     0.109 C 
BRANCH   9  10
HETATM   10  C   UNL     1      -3.303   7.929 -30.462  1.00  0.00     0.048 C 
BRANCH  10  11
HETATM   11  C   UNL     1      -2.008   8.030 -29.686  1.00  0.00    -0.058 A 
HETATM   12  C   UNL     1      -0.946   7.138 -29.864  1.00  0.00     0.010 A 
HETATM   13  C   UNL     1       0.240   7.291 -29.138  1.00  0.00     0.037 A 
HETATM   14  C   UNL     1       0.399   8.346 -28.239  1.00  0.00     0.068 A 
HETATM   15  C   UNL     1      -0.646   9.251 -28.069  1.00  0.00     0.037 A 
HETATM   16  C   UNL     1      -1.836   9.096 -28.790  1.00  0.00     0.010 A 
BRANCH  14  17
HETATM   17  O   UNL     1       1.607   8.378 -27.602  1.00  0.00    -0.356 OA
HETATM   18  C   UNL     1       1.705   7.661 -26.377  1.00  0.00     0.210 C 
ENDBRANCH  14  17
ENDBRANCH  10  11
ENDBRANCH   9  10
ENDBRANCH   6   9
ENDBRANCH   2   5
BRANCH   1  19
HETATM   19  C   UNL     1      -4.009   1.924 -32.102  1.00  0.00     0.058 A 
HETATM   20  C   UNL     1      -5.099   1.805 -32.963  1.00  0.00     0.047 A 
HETATM   21  C   UNL     1      -5.919   2.984 -33.397  1.00  0.00     0.071 C 
HETATM   22  N   UNL     1      -5.484   0.603 -33.478  1.00  0.00    -0.252 NA
HETATM   23  C   UNL     1      -4.799  -0.516 -33.125  1.00  0.00     0.074 A 
HETATM   24  C   UNL     1      -3.709  -0.467 -32.263  1.00  0.00     0.034 A 
HETATM   25  C   UNL     1      -3.311   0.765 -31.746  1.00  0.00     0.021 A 
BRANCH  23  26
HETATM   26  C   UNL     1      -5.306  -1.748 -33.751  1.00  0.00     0.033 A 
HETATM   27  S   UNL     1      -6.957  -1.926 -34.205  1.00  0.00    -0.100 SA
HETATM   28  C   UNL     1      -6.707  -3.502 -34.811  1.00  0.00     0.050 A 
HETATM   29  C   UNL     1      -5.398  -3.902 -34.683  1.00  0.00     0.008 A 
HETATM   30  C   UNL     1      -4.594  -2.890 -34.081  1.00  0.00     0.021 A 
ENDBRANCH  23  26
ENDBRANCH   1  19
TORSDOF 7
ENDMDL
