MODEL 1
REMARK VINA RESULT:      -8.6      0.000      0.000
REMARK  8 active torsions:
REMARK  status: ('A' for Active; 'I' for Inactive)
REMARK    1  A    between atoms: C_2  and  O_3 
REMARK    2  A    between atoms: O_3  and  C_4 
REMARK    3  A    between atoms: C_4  and  C_5 
REMARK    4  A    between atoms: C_5  and  C_6 
REMARK    5  A    between atoms: C_6  and  N_7 
REMARK    6  A    between atoms: C_12  and  C_13 
REMARK    7  A    between atoms: C_23  and  C_24 
REMARK    8  A    between atoms: C_25  and  O_26 
ROOT
HETATM    1  N   UNL     1      -5.549   2.853 -32.133  1.00  0.00    -0.334 N 
HETATM    2  C   UNL     1      -5.947   3.131 -30.817  1.00  0.00     0.273 A 
HETATM    3  O   UNL     1      -5.267   3.437 -29.857  1.00  0.00    -0.266 OA
HETATM    4  C   UNL     1      -7.353   2.986 -30.863  1.00  0.00     0.129 A 
HETATM    5  C   UNL     1      -7.809   2.640 -32.100  1.00  0.00     0.034 A 
HETATM    6  C   UNL     1      -6.680   2.515 -33.047  1.00  0.00     0.159 A 
HETATM    7  N   UNL     1      -8.413   3.076 -30.045  1.00  0.00    -0.272 N 
HETATM    8  H   UNL     1      -8.443   3.298 -29.054  1.00  0.00     0.189 HD
HETATM    9  N   UNL     1      -9.572   2.833 -30.707  1.00  0.00    -0.173 NA
HETATM   10  C   UNL     1      -9.204   2.566 -31.983  1.00  0.00     0.101 A 
ENDROOT
BRANCH  10  11
HETATM   11  C   UNL     1     -10.186   2.260 -33.016  1.00  0.00     0.028 A 
HETATM   12  C   UNL     1     -10.748   0.983 -33.160  1.00  0.00     0.078 A 
HETATM   13  C   UNL     1     -11.747   0.739 -34.099  1.00  0.00     0.037 A 
HETATM   14  C   UNL     1     -12.172   1.768 -34.941  1.00  0.00     0.003 A 
HETATM   15  C   UNL     1     -11.599   3.034 -34.837  1.00  0.00     0.001 A 
HETATM   16  C   UNL     1     -10.612   3.280 -33.879  1.00  0.00     0.017 A 
BRANCH  12  17
HETATM   17  O   UNL     1     -10.324  -0.095 -32.427  1.00  0.00    -0.360 OA
HETATM   18  H   UNL     1     -10.631   0.059 -31.515  1.00  0.00     0.217 HD
ENDBRANCH  12  17
ENDBRANCH  10  11
BRANCH   6  19
HETATM   19  C   UNL     1      -6.667   1.099 -33.569  1.00  0.00    -0.031 A 
HETATM   20  C   UNL     1      -6.058   0.093 -32.798  1.00  0.00     0.011 A 
HETATM   21  C   UNL     1      -6.035  -1.234 -33.237  1.00  0.00     0.024 A 
HETATM   22  C   UNL     1      -6.615  -1.568 -34.457  1.00  0.00     0.034 A 
HETATM   23 CL   UNL     1      -6.591  -3.202 -34.996  1.00  0.00    -0.084 Cl
HETATM   24  C   UNL     1      -7.217  -0.589 -35.242  1.00  0.00     0.024 A 
HETATM   25  C   UNL     1      -7.242   0.738 -34.801  1.00  0.00     0.011 A 
ENDBRANCH   6  19
BRANCH   1  26
HETATM   26  C   UNL     1      -4.168   2.918 -32.580  1.00  0.00     0.129 C 
BRANCH  26  27
HETATM   27  C   UNL     1      -3.657   4.344 -32.801  1.00  0.00     0.046 C 
BRANCH  27  28
HETATM   28  C   UNL     1      -4.370   5.062 -33.942  1.00  0.00     0.169 C 
BRANCH  28  29
HETATM   29  O   UNL     1      -3.441   5.922 -34.596  1.00  0.00    -0.387 OA
BRANCH  29  30
HETATM   30  C   UNL     1      -2.168   6.000 -33.949  1.00  0.00     0.113 C 
HETATM   31  C   UNL     1      -1.825   7.439 -33.579  1.00  0.00     0.039 C 
HETATM   32  C   UNL     1      -1.139   5.441 -34.923  1.00  0.00     0.039 C 
ENDBRANCH  29  30
ENDBRANCH  28  29
ENDBRANCH  27  28
ENDBRANCH  26  27
ENDBRANCH   1  26
TORSDOF 8
ENDMDL
MODEL 2
REMARK VINA RESULT:      -8.5      1.301      1.685
REMARK  8 active torsions:
REMARK  status: ('A' for Active; 'I' for Inactive)
REMARK    1  A    between atoms: C_2  and  O_3 
REMARK    2  A    between atoms: O_3  and  C_4 
REMARK    3  A    between atoms: C_4  and  C_5 
REMARK    4  A    between atoms: C_5  and  C_6 
REMARK    5  A    between atoms: C_6  and  N_7 
REMARK    6  A    between atoms: C_12  and  C_13 
REMARK    7  A    between atoms: C_23  and  C_24 
REMARK    8  A    between atoms: C_25  and  O_26 
ROOT
HETATM    1  N   UNL     1      -5.403   2.722 -31.948  1.00  0.00    -0.334 N 
HETATM    2  C   UNL     1      -5.838   3.035 -30.652  1.00  0.00     0.273 A 
HETATM    3  O   UNL     1      -5.183   3.328 -29.671  1.00  0.00    -0.266 OA
HETATM    4  C   UNL     1      -7.246   2.945 -30.749  1.00  0.00     0.129 A 
HETATM    5  C   UNL     1      -7.669   2.599 -31.998  1.00  0.00     0.034 A 
HETATM    6  C   UNL     1      -6.511   2.415 -32.899  1.00  0.00     0.159 A 
HETATM    7  N   UNL     1      -8.331   3.090 -29.973  1.00  0.00    -0.272 N 
HETATM    8  H   UNL     1      -8.389   3.327 -28.988  1.00  0.00     0.189 HD
HETATM    9  N   UNL     1      -9.474   2.883 -30.676  1.00  0.00    -0.173 NA
HETATM   10  C   UNL     1      -9.069   2.582 -31.933  1.00  0.00     0.101 A 
ENDROOT
BRANCH  10  11
HETATM   11  C   UNL     1     -10.023   2.301 -32.999  1.00  0.00     0.028 A 
HETATM   12  C   UNL     1     -10.624   1.043 -33.151  1.00  0.00     0.078 A 
HETATM   13  C   UNL     1     -11.597   0.825 -34.125  1.00  0.00     0.037 A 
HETATM   14  C   UNL     1     -11.955   1.859 -34.990  1.00  0.00     0.003 A 
HETATM   15  C   UNL     1     -11.341   3.106 -34.877  1.00  0.00     0.001 A 
HETATM   16  C   UNL     1     -10.382   3.326 -33.886  1.00  0.00     0.017 A 
BRANCH  12  17
HETATM   17  O   UNL     1     -10.266  -0.041 -32.394  1.00  0.00    -0.360 OA
HETATM   18  H   UNL     1     -10.766   0.031 -31.561  1.00  0.00     0.217 HD
ENDBRANCH  12  17
ENDBRANCH  10  11
BRANCH   6  19
HETATM   19  C   UNL     1      -6.536   0.992 -33.402  1.00  0.00    -0.031 A 
HETATM   20  C   UNL     1      -7.116   0.722 -34.654  1.00  0.00     0.011 A 
HETATM   21  C   UNL     1      -7.149  -0.579 -35.165  1.00  0.00     0.024 A 
HETATM   22  C   UNL     1      -6.605  -1.625 -34.426  1.00  0.00     0.034 A 
HETATM   23 CL   UNL     1      -6.639  -3.226 -35.056  1.00  0.00    -0.084 Cl
HETATM   24  C   UNL     1      -6.031  -1.384 -33.181  1.00  0.00     0.024 A 
HETATM   25  C   UNL     1      -5.998  -0.082 -32.672  1.00  0.00     0.011 A 
ENDBRANCH   6  19
BRANCH   1  26
HETATM   26  C   UNL     1      -4.004   2.725 -32.343  1.00  0.00     0.129 C 
BRANCH  26  27
HETATM   27  C   UNL     1      -3.536   4.053 -32.945  1.00  0.00     0.046 C 
BRANCH  27  28
HETATM   28  C   UNL     1      -2.758   4.914 -31.957  1.00  0.00     0.169 C 
BRANCH  28  29
HETATM   29  O   UNL     1      -1.493   4.305 -31.712  1.00  0.00    -0.387 OA
BRANCH  29  30
HETATM   30  C   UNL     1      -0.409   5.234 -31.636  1.00  0.00     0.113 C 
HETATM   31  C   UNL     1       0.238   5.215 -30.254  1.00  0.00     0.039 C 
HETATM   32  C   UNL     1      -0.981   6.614 -31.936  1.00  0.00     0.039 C 
ENDBRANCH  29  30
ENDBRANCH  28  29
ENDBRANCH  27  28
ENDBRANCH  26  27
ENDBRANCH   1  26
TORSDOF 8
ENDMDL
MODEL 3
REMARK VINA RESULT:      -8.1      3.363      7.449
REMARK  8 active torsions:
REMARK  status: ('A' for Active; 'I' for Inactive)
REMARK    1  A    between atoms: C_2  and  O_3 
REMARK    2  A    between atoms: O_3  and  C_4 
REMARK    3  A    between atoms: C_4  and  C_5 
REMARK    4  A    between atoms: C_5  and  C_6 
REMARK    5  A    between atoms: C_6  and  N_7 
REMARK    6  A    between atoms: C_12  and  C_13 
REMARK    7  A    between atoms: C_23  and  C_24 
REMARK    8  A    between atoms: C_25  and  O_26 
ROOT
HETATM    1  N   UNL     1      -6.594   1.077 -32.797  1.00  0.00    -0.334 N 
HETATM    2  C   UNL     1      -5.871   0.311 -31.873  1.00  0.00     0.273 A 
HETATM    3  O   UNL     1      -6.172  -0.741 -31.343  1.00  0.00    -0.266 OA
HETATM    4  C   UNL     1      -4.675   1.048 -31.702  1.00  0.00     0.129 A 
HETATM    5  C   UNL     1      -4.645   2.186 -32.449  1.00  0.00     0.034 A 
HETATM    6  C   UNL     1      -5.892   2.321 -33.232  1.00  0.00     0.159 A 
HETATM    7  N   UNL     1      -3.529   0.981 -31.007  1.00  0.00    -0.272 N 
HETATM    8  H   UNL     1      -3.220   0.278 -30.342  1.00  0.00     0.189 HD
HETATM    9  N   UNL     1      -2.714   2.027 -31.294  1.00  0.00    -0.173 NA
HETATM   10  C   UNL     1      -3.400   2.776 -32.191  1.00  0.00     0.101 A 
ENDROOT
BRANCH  10  11
HETATM   11  C   UNL     1      -2.841   4.000 -32.753  1.00  0.00     0.028 A 
HETATM   12  C   UNL     1      -1.834   4.730 -32.105  1.00  0.00     0.078 A 
HETATM   13  C   UNL     1      -1.257   5.847 -32.705  1.00  0.00     0.037 A 
HETATM   14  C   UNL     1      -1.712   6.276 -33.951  1.00  0.00     0.003 A 
HETATM   15  C   UNL     1      -2.738   5.585 -34.595  1.00  0.00     0.001 A 
HETATM   16  C   UNL     1      -3.298   4.452 -34.000  1.00  0.00     0.017 A 
BRANCH  12  17
HETATM   17  O   UNL     1      -1.394   4.418 -30.845  1.00  0.00    -0.360 OA
HETATM   18  H   UNL     1      -0.792   5.137 -30.581  1.00  0.00     0.217 HD
ENDBRANCH  12  17
ENDBRANCH  10  11
BRANCH   6  19
HETATM   19  C   UNL     1      -6.567   3.605 -32.815  1.00  0.00    -0.031 A 
HETATM   20  C   UNL     1      -6.770   3.854 -31.446  1.00  0.00     0.011 A 
HETATM   21  C   UNL     1      -7.378   5.037 -31.014  1.00  0.00     0.024 A 
HETATM   22  C   UNL     1      -7.795   5.980 -31.949  1.00  0.00     0.034 A 
HETATM   23 CL   UNL     1      -8.540   7.438 -31.417  1.00  0.00    -0.084 Cl
HETATM   24  C   UNL     1      -7.612   5.752 -33.309  1.00  0.00     0.024 A 
HETATM   25  C   UNL     1      -7.002   4.571 -33.740  1.00  0.00     0.011 A 
ENDBRANCH   6  19
BRANCH   1  26
HETATM   26  C   UNL     1      -7.895   0.686 -33.314  1.00  0.00     0.129 C 
BRANCH  26  27
HETATM   27  C   UNL     1      -7.881   0.305 -34.797  1.00  0.00     0.046 C 
BRANCH  27  28
HETATM   28  C   UNL     1      -6.731  -0.626 -35.162  1.00  0.00     0.169 C 
BRANCH  28  29
HETATM   29  O   UNL     1      -7.073  -1.954 -34.776  1.00  0.00    -0.387 OA
BRANCH  29  30
HETATM   30  C   UNL     1      -6.055  -2.919 -35.056  1.00  0.00     0.113 C 
HETATM   31  C   UNL     1      -6.558  -4.337 -34.807  1.00  0.00     0.039 C 
HETATM   32  C   UNL     1      -4.878  -2.603 -34.141  1.00  0.00     0.039 C 
ENDBRANCH  29  30
ENDBRANCH  28  29
ENDBRANCH  27  28
ENDBRANCH  26  27
ENDBRANCH   1  26
TORSDOF 8
ENDMDL
MODEL 4
REMARK VINA RESULT:      -8.0      3.561      5.712
REMARK  8 active torsions:
REMARK  status: ('A' for Active; 'I' for Inactive)
REMARK    1  A    between atoms: C_2  and  O_3 
REMARK    2  A    between atoms: O_3  and  C_4 
REMARK    3  A    between atoms: C_4  and  C_5 
REMARK    4  A    between atoms: C_5  and  C_6 
REMARK    5  A    between atoms: C_6  and  N_7 
REMARK    6  A    between atoms: C_12  and  C_13 
REMARK    7  A    between atoms: C_23  and  C_24 
REMARK    8  A    between atoms: C_25  and  O_26 
ROOT
HETATM    1  N   UNL     1      -6.690   0.997 -33.096  1.00  0.00    -0.334 N 
HETATM    2  C   UNL     1      -6.193   0.664 -31.828  1.00  0.00     0.273 A 
HETATM    3  O   UNL     1      -5.442  -0.237 -31.508  1.00  0.00    -0.266 OA
HETATM    4  C   UNL     1      -6.764   1.647 -30.985  1.00  0.00     0.129 A 
HETATM    5  C   UNL     1      -7.559   2.524 -31.660  1.00  0.00     0.034 A 
HETATM    6  C   UNL     1      -7.593   2.185 -33.098  1.00  0.00     0.159 A 
HETATM    7  N   UNL     1      -6.775   1.994 -29.689  1.00  0.00    -0.272 N 
HETATM    8  H   UNL     1      -6.308   1.554 -28.902  1.00  0.00     0.189 HD
HETATM    9  N   UNL     1      -7.531   3.101 -29.479  1.00  0.00    -0.173 NA
HETATM   10  C   UNL     1      -8.016   3.437 -30.699  1.00  0.00     0.101 A 
ENDROOT
BRANCH  10  11
HETATM   11  C   UNL     1      -8.878   4.598 -30.888  1.00  0.00     0.028 A 
HETATM   12  C   UNL     1     -10.225   4.601 -30.497  1.00  0.00     0.078 A 
HETATM   13  C   UNL     1     -11.003   5.751 -30.610  1.00  0.00     0.037 A 
HETATM   14  C   UNL     1     -10.451   6.910 -31.156  1.00  0.00     0.003 A 
HETATM   15  C   UNL     1      -9.124   6.915 -31.585  1.00  0.00     0.001 A 
HETATM   16  C   UNL     1      -8.341   5.765 -31.449  1.00  0.00     0.017 A 
BRANCH  12  17
HETATM   17  O   UNL     1     -10.859   3.479 -30.029  1.00  0.00    -0.360 OA
HETATM   18  H   UNL     1     -11.775   3.747 -29.831  1.00  0.00     0.217 HD
ENDBRANCH  12  17
ENDBRANCH  10  11
BRANCH   6  19
HETATM   19  C   UNL     1      -9.025   1.888 -33.472  1.00  0.00    -0.031 A 
HETATM   20  C   UNL     1      -9.690   2.750 -34.363  1.00  0.00     0.011 A 
HETATM   21  C   UNL     1     -11.012   2.505 -34.747  1.00  0.00     0.024 A 
HETATM   22  C   UNL     1     -11.685   1.399 -34.238  1.00  0.00     0.034 A 
HETATM   23 CL   UNL     1     -13.311   1.095 -34.714  1.00  0.00    -0.084 Cl
HETATM   24  C   UNL     1     -11.052   0.536 -33.349  1.00  0.00     0.024 A 
HETATM   25  C   UNL     1      -9.729   0.780 -32.967  1.00  0.00     0.011 A 
ENDBRANCH   6  19
BRANCH   1  26
HETATM   26  C   UNL     1      -6.336   0.274 -34.307  1.00  0.00     0.129 C 
BRANCH  26  27
HETATM   27  C   UNL     1      -7.353  -0.800 -34.704  1.00  0.00     0.046 C 
BRANCH  27  28
HETATM   28  C   UNL     1      -7.002  -2.181 -34.162  1.00  0.00     0.169 C 
BRANCH  28  29
HETATM   29  O   UNL     1      -5.586  -2.328 -34.156  1.00  0.00    -0.387 OA
BRANCH  29  30
HETATM   30  C   UNL     1      -5.118  -3.467 -34.883  1.00  0.00     0.113 C 
HETATM   31  C   UNL     1      -6.249  -4.460 -35.138  1.00  0.00     0.039 C 
HETATM   32  C   UNL     1      -4.023  -4.112 -34.044  1.00  0.00     0.039 C 
ENDBRANCH  29  30
ENDBRANCH  28  29
ENDBRANCH  27  28
ENDBRANCH  26  27
ENDBRANCH   1  26
TORSDOF 8
ENDMDL
MODEL 5
REMARK VINA RESULT:      -7.9      3.133      4.647
REMARK  8 active torsions:
REMARK  status: ('A' for Active; 'I' for Inactive)
REMARK    1  A    between atoms: C_2  and  O_3 
REMARK    2  A    between atoms: O_3  and  C_4 
REMARK    3  A    between atoms: C_4  and  C_5 
REMARK    4  A    between atoms: C_5  and  C_6 
REMARK    5  A    between atoms: C_6  and  N_7 
REMARK    6  A    between atoms: C_12  and  C_13 
REMARK    7  A    between atoms: C_23  and  C_24 
REMARK    8  A    between atoms: C_25  and  O_26 
ROOT
HETATM    1  N   UNL     1      -6.789   5.186 -30.694  1.00  0.00    -0.334 N 
HETATM    2  C   UNL     1      -6.829   4.495 -29.474  1.00  0.00     0.273 A 
HETATM    3  O   UNL     1      -6.917   4.935 -28.344  1.00  0.00    -0.266 OA
HETATM    4  C   UNL     1      -6.755   3.137 -29.865  1.00  0.00     0.129 A 
HETATM    5  C   UNL     1      -6.671   2.980 -31.216  1.00  0.00     0.034 A 
HETATM    6  C   UNL     1      -6.680   4.297 -31.888  1.00  0.00     0.159 A 
HETATM    7  N   UNL     1      -6.734   1.918 -29.306  1.00  0.00    -0.272 N 
HETATM    8  H   UNL     1      -6.764   1.660 -28.324  1.00  0.00     0.189 HD
HETATM    9  N   UNL     1      -6.671   0.943 -30.248  1.00  0.00    -0.173 NA
HETATM   10  C   UNL     1      -6.636   1.596 -31.434  1.00  0.00     0.101 A 
ENDROOT
BRANCH  10  11
HETATM   11  C   UNL     1      -6.575   0.879 -32.702  1.00  0.00     0.028 A 
HETATM   12  C   UNL     1      -5.907  -0.347 -32.837  1.00  0.00     0.078 A 
HETATM   13  C   UNL     1      -5.937  -1.053 -34.038  1.00  0.00     0.037 A 
HETATM   14  C   UNL     1      -6.607  -0.519 -35.139  1.00  0.00     0.003 A 
HETATM   15  C   UNL     1      -7.246   0.716 -35.034  1.00  0.00     0.001 A 
HETATM   16  C   UNL     1      -7.232   1.410 -33.822  1.00  0.00     0.017 A 
BRANCH  12  17
HETATM   17  O   UNL     1      -5.160  -0.894 -31.827  1.00  0.00    -0.360 OA
HETATM   18  H   UNL     1      -5.704  -1.603 -31.438  1.00  0.00     0.217 HD
ENDBRANCH  12  17
ENDBRANCH  10  11
BRANCH   6  19
HETATM   19  C   UNL     1      -5.391   4.433 -32.660  1.00  0.00    -0.031 A 
HETATM   20  C   UNL     1      -5.423   5.003 -33.945  1.00  0.00     0.011 A 
HETATM   21  C   UNL     1      -4.251   5.161 -34.691  1.00  0.00     0.024 A 
HETATM   22  C   UNL     1      -3.033   4.745 -34.160  1.00  0.00     0.034 A 
HETATM   23 CL   UNL     1      -1.590   4.944 -35.075  1.00  0.00    -0.084 Cl
HETATM   24  C   UNL     1      -2.977   4.171 -32.893  1.00  0.00     0.024 A 
HETATM   25  C   UNL     1      -4.149   4.016 -32.148  1.00  0.00     0.011 A 
ENDBRANCH   6  19
BRANCH   1  26
HETATM   26  C   UNL     1      -6.879   6.633 -30.795  1.00  0.00     0.129 C 
BRANCH  26  27
HETATM   27  C   UNL     1      -5.612   7.364 -30.343  1.00  0.00     0.046 C 
BRANCH  27  28
HETATM   28  C   UNL     1      -4.837   7.984 -31.500  1.00  0.00     0.169 C 
BRANCH  28  29
HETATM   29  O   UNL     1      -3.573   7.336 -31.609  1.00  0.00    -0.387 OA
BRANCH  29  30
HETATM   30  C   UNL     1      -2.470   8.236 -31.738  1.00  0.00     0.113 C 
HETATM   31  C   UNL     1      -1.407   7.674 -32.677  1.00  0.00     0.039 C 
HETATM   32  C   UNL     1      -1.893   8.437 -30.342  1.00  0.00     0.039 C 
ENDBRANCH  29  30
ENDBRANCH  28  29
ENDBRANCH  27  28
ENDBRANCH  26  27
ENDBRANCH   1  26
TORSDOF 8
ENDMDL
MODEL 6
REMARK VINA RESULT:      -7.7     16.304     17.679
REMARK  8 active torsions:
REMARK  status: ('A' for Active; 'I' for Inactive)
REMARK    1  A    between atoms: C_2  and  O_3 
REMARK    2  A    between atoms: O_3  and  C_4 
REMARK    3  A    between atoms: C_4  and  C_5 
REMARK    4  A    between atoms: C_5  and  C_6 
REMARK    5  A    between atoms: C_6  and  N_7 
REMARK    6  A    between atoms: C_12  and  C_13 
REMARK    7  A    between atoms: C_23  and  C_24 
REMARK    8  A    between atoms: C_25  and  O_26 
ROOT
HETATM    1  N   UNL     1      -3.823 -12.727 -37.962  1.00  0.00    -0.334 N 
HETATM    2  C   UNL     1      -4.057 -13.264 -36.687  1.00  0.00     0.273 A 
HETATM    3  O   UNL     1      -3.279 -13.430 -35.768  1.00  0.00    -0.266 OA
HETATM    4  C   UNL     1      -5.440 -13.563 -36.708  1.00  0.00     0.129 A 
HETATM    5  C   UNL     1      -6.031 -13.248 -37.894  1.00  0.00     0.034 A 
HETATM    6  C   UNL     1      -5.037 -12.678 -38.828  1.00  0.00     0.159 A 
HETATM    7  N   UNL     1      -6.380 -14.083 -35.904  1.00  0.00    -0.272 N 
HETATM    8  H   UNL     1      -6.292 -14.438 -34.957  1.00  0.00     0.189 HD
HETATM    9  N   UNL     1      -7.596 -14.095 -36.508  1.00  0.00    -0.173 NA
HETATM   10  C   UNL     1      -7.385 -13.575 -37.741  1.00  0.00     0.101 A 
ENDROOT
BRANCH  10  11
HETATM   11  C   UNL     1      -8.472 -13.413 -38.700  1.00  0.00     0.028 A 
HETATM   12  C   UNL     1      -9.323 -14.470 -39.051  1.00  0.00     0.078 A 
HETATM   13  C   UNL     1     -10.406 -14.268 -39.904  1.00  0.00     0.037 A 
HETATM   14  C   UNL     1     -10.630 -13.004 -40.451  1.00  0.00     0.003 A 
HETATM   15  C   UNL     1      -9.773 -11.949 -40.141  1.00  0.00     0.001 A 
HETATM   16  C   UNL     1      -8.701 -12.151 -39.268  1.00  0.00     0.017 A 
BRANCH  12  17
HETATM   17  O   UNL     1      -9.118 -15.755 -38.620  1.00  0.00    -0.360 OA
HETATM   18  H   UNL     1      -8.154 -15.891 -38.616  1.00  0.00     0.217 HD
ENDBRANCH  12  17
ENDBRANCH  10  11
BRANCH   6  19
HETATM   19  C   UNL     1      -4.979 -13.568 -40.046  1.00  0.00    -0.031 A 
HETATM   20  C   UNL     1      -4.605 -14.914 -39.889  1.00  0.00     0.011 A 
HETATM   21  C   UNL     1      -4.551 -15.777 -40.987  1.00  0.00     0.024 A 
HETATM   22  C   UNL     1      -4.866 -15.301 -42.256  1.00  0.00     0.034 A 
HETATM   23 CL   UNL     1      -4.805 -16.365 -43.608  1.00  0.00    -0.084 Cl
HETATM   24  C   UNL     1      -5.231 -13.970 -42.439  1.00  0.00     0.024 A 
HETATM   25  C   UNL     1      -5.287 -13.108 -41.339  1.00  0.00     0.011 A 
ENDBRANCH   6  19
BRANCH   1  26
HETATM   26  C   UNL     1      -2.526 -12.232 -38.393  1.00  0.00     0.129 C 
BRANCH  26  27
HETATM   27  C   UNL     1      -1.454 -13.320 -38.500  1.00  0.00     0.046 C 
BRANCH  27  28
HETATM   28  C   UNL     1      -1.189 -13.756 -39.937  1.00  0.00     0.169 C 
BRANCH  28  29
HETATM   29  O   UNL     1       0.168 -14.172 -40.049  1.00  0.00    -0.387 OA
BRANCH  29  30
HETATM   30  C   UNL     1       0.598 -15.037 -38.995  1.00  0.00     0.113 C 
HETATM   31  C   UNL     1       2.075 -14.825 -38.675  1.00  0.00     0.039 C 
HETATM   32  C   UNL     1       0.355 -16.466 -39.464  1.00  0.00     0.039 C 
ENDBRANCH  29  30
ENDBRANCH  28  29
ENDBRANCH  27  28
ENDBRANCH  26  27
ENDBRANCH   1  26
TORSDOF 8
ENDMDL
MODEL 7
REMARK VINA RESULT:      -7.6     16.655     19.085
REMARK  8 active torsions:
REMARK  status: ('A' for Active; 'I' for Inactive)
REMARK    1  A    between atoms: C_2  and  O_3 
REMARK    2  A    between atoms: O_3  and  C_4 
REMARK    3  A    between atoms: C_4  and  C_5 
REMARK    4  A    between atoms: C_5  and  C_6 
REMARK    5  A    between atoms: C_6  and  N_7 
REMARK    6  A    between atoms: C_12  and  C_13 
REMARK    7  A    between atoms: C_23  and  C_24 
REMARK    8  A    between atoms: C_25  and  O_26 
ROOT
HETATM    1  N   UNL     1      -6.399 -15.163 -38.373  1.00  0.00    -0.334 N 
HETATM    2  C   UNL     1      -6.574 -14.008 -37.596  1.00  0.00     0.273 A 
HETATM    3  O   UNL     1      -7.586 -13.573 -37.082  1.00  0.00    -0.266 OA
HETATM    4  C   UNL     1      -5.272 -13.457 -37.532  1.00  0.00     0.129 A 
HETATM    5  C   UNL     1      -4.352 -14.196 -38.214  1.00  0.00     0.034 A 
HETATM    6  C   UNL     1      -4.995 -15.375 -38.832  1.00  0.00     0.159 A 
HETATM    7  N   UNL     1      -4.639 -12.400 -37.001  1.00  0.00    -0.272 N 
HETATM    8  H   UNL     1      -5.016 -11.638 -36.446  1.00  0.00     0.189 HD
HETATM    9  N   UNL     1      -3.312 -12.425 -37.280  1.00  0.00    -0.173 NA
HETATM   10  C   UNL     1      -3.127 -13.540 -38.029  1.00  0.00     0.101 A 
ENDROOT
BRANCH  10  11
HETATM   11  C   UNL     1      -1.809 -13.922 -38.522  1.00  0.00     0.028 A 
HETATM   12  C   UNL     1      -0.811 -14.425 -37.675  1.00  0.00     0.078 A 
HETATM   13  C   UNL     1       0.410 -14.863 -38.185  1.00  0.00     0.037 A 
HETATM   14  C   UNL     1       0.664 -14.766 -39.553  1.00  0.00     0.003 A 
HETATM   15  C   UNL     1      -0.303 -14.234 -40.406  1.00  0.00     0.001 A 
HETATM   16  C   UNL     1      -1.534 -13.816 -39.893  1.00  0.00     0.017 A 
BRANCH  12  17
HETATM   17  O   UNL     1      -0.956 -14.474 -36.314  1.00  0.00    -0.360 OA
HETATM   18  H   UNL     1      -0.134 -14.866 -35.966  1.00  0.00     0.217 HD
ENDBRANCH  12  17
ENDBRANCH  10  11
BRANCH   6  19
HETATM   19  C   UNL     1      -4.798 -15.282 -40.326  1.00  0.00    -0.031 A 
HETATM   20  C   UNL     1      -5.174 -14.101 -40.990  1.00  0.00     0.011 A 
HETATM   21  C   UNL     1      -4.997 -13.967 -42.370  1.00  0.00     0.024 A 
HETATM   22  C   UNL     1      -4.448 -15.015 -43.102  1.00  0.00     0.034 A 
HETATM   23 CL   UNL     1      -4.226 -14.848 -44.800  1.00  0.00    -0.084 Cl
HETATM   24  C   UNL     1      -4.076 -16.197 -42.468  1.00  0.00     0.024 A 
HETATM   25  C   UNL     1      -4.251 -16.330 -41.087  1.00  0.00     0.011 A 
ENDBRANCH   6  19
BRANCH   1  26
HETATM   26  C   UNL     1      -7.477 -16.089 -38.680  1.00  0.00     0.129 C 
BRANCH  26  27
HETATM   27  C   UNL     1      -8.262 -15.726 -39.943  1.00  0.00     0.046 C 
BRANCH  27  28
HETATM   28  C   UNL     1      -9.700 -15.311 -39.651  1.00  0.00     0.169 C 
BRANCH  28  29
HETATM   29  O   UNL     1      -9.715 -13.941 -39.261  1.00  0.00    -0.387 OA
BRANCH  29  30
HETATM   30  C   UNL     1      -9.596 -13.027 -40.355  1.00  0.00     0.113 C 
HETATM   31  C   UNL     1      -8.298 -12.231 -40.269  1.00  0.00     0.039 C 
HETATM   32  C   UNL     1     -10.798 -12.094 -40.287  1.00  0.00     0.039 C 
ENDBRANCH  29  30
ENDBRANCH  28  29
ENDBRANCH  27  28
ENDBRANCH  26  27
ENDBRANCH   1  26
TORSDOF 8
ENDMDL
MODEL 8
REMARK VINA RESULT:      -7.5      2.859      6.073
REMARK  8 active torsions:
REMARK  status: ('A' for Active; 'I' for Inactive)
REMARK    1  A    between atoms: C_2  and  O_3 
REMARK    2  A    between atoms: O_3  and  C_4 
REMARK    3  A    between atoms: C_4  and  C_5 
REMARK    4  A    between atoms: C_5  and  C_6 
REMARK    5  A    between atoms: C_6  and  N_7 
REMARK    6  A    between atoms: C_12  and  C_13 
REMARK    7  A    between atoms: C_23  and  C_24 
REMARK    8  A    between atoms: C_25  and  O_26 
ROOT
HETATM    1  N   UNL     1      -7.397   4.777 -31.808  1.00  0.00    -0.334 N 
HETATM    2  C   UNL     1      -7.585   4.505 -30.445  1.00  0.00     0.273 A 
HETATM    3  O   UNL     1      -8.133   5.178 -29.595  1.00  0.00    -0.266 OA
HETATM    4  C   UNL     1      -6.991   3.230 -30.282  1.00  0.00     0.129 A 
HETATM    5  C   UNL     1      -6.467   2.739 -31.440  1.00  0.00     0.034 A 
HETATM    6  C   UNL     1      -6.675   3.699 -32.546  1.00  0.00     0.159 A 
HETATM    7  N   UNL     1      -6.768   2.329 -29.314  1.00  0.00    -0.272 N 
HETATM    8  H   UNL     1      -7.008   2.371 -28.328  1.00  0.00     0.189 HD
HETATM    9  N   UNL     1      -6.136   1.229 -29.798  1.00  0.00    -0.173 NA
HETATM   10  C   UNL     1      -5.951   1.477 -31.117  1.00  0.00     0.101 A 
ENDROOT
BRANCH  10  11
HETATM   11  C   UNL     1      -5.303   0.509 -31.995  1.00  0.00     0.028 A 
HETATM   12  C   UNL     1      -6.032  -0.333 -32.846  1.00  0.00     0.078 A 
HETATM   13  C   UNL     1      -5.386  -1.188 -33.737  1.00  0.00     0.037 A 
HETATM   14  C   UNL     1      -3.992  -1.240 -33.759  1.00  0.00     0.003 A 
HETATM   15  C   UNL     1      -3.251  -0.436 -32.893  1.00  0.00     0.001 A 
HETATM   16  C   UNL     1      -3.903   0.435 -32.017  1.00  0.00     0.017 A 
BRANCH  12  17
HETATM   17  O   UNL     1      -7.401  -0.398 -32.824  1.00  0.00    -0.360 OA
HETATM   18  H   UNL     1      -7.648  -1.150 -33.392  1.00  0.00     0.217 HD
ENDBRANCH  12  17
ENDBRANCH  10  11
BRANCH   6  19
HETATM   19  C   UNL     1      -5.320   4.096 -33.077  1.00  0.00    -0.031 A 
HETATM   20  C   UNL     1      -5.223   4.603 -34.386  1.00  0.00     0.011 A 
HETATM   21  C   UNL     1      -3.989   4.996 -34.913  1.00  0.00     0.024 A 
HETATM   22  C   UNL     1      -2.838   4.881 -34.140  1.00  0.00     0.034 A 
HETATM   23 CL   UNL     1      -1.321   5.370 -34.788  1.00  0.00    -0.084 Cl
HETATM   24  C   UNL     1      -2.908   4.375 -32.845  1.00  0.00     0.024 A 
HETATM   25  C   UNL     1      -4.142   3.984 -32.317  1.00  0.00     0.011 A 
ENDBRANCH   6  19
BRANCH   1  26
HETATM   26  C   UNL     1      -7.887   5.983 -32.456  1.00  0.00     0.129 C 
BRANCH  26  27
HETATM   27  C   UNL     1      -8.812   5.711 -33.645  1.00  0.00     0.046 C 
BRANCH  27  28
HETATM   28  C   UNL     1     -10.029   4.871 -33.274  1.00  0.00     0.169 C 
BRANCH  28  29
HETATM   29  O   UNL     1     -10.093   3.744 -34.143  1.00  0.00    -0.387 OA
BRANCH  29  30
HETATM   30  C   UNL     1     -10.597   2.560 -33.519  1.00  0.00     0.113 C 
HETATM   31  C   UNL     1     -10.168   2.482 -32.057  1.00  0.00     0.039 C 
HETATM   32  C   UNL     1     -10.043   1.375 -34.300  1.00  0.00     0.039 C 
ENDBRANCH  29  30
ENDBRANCH  28  29
ENDBRANCH  27  28
ENDBRANCH  26  27
ENDBRANCH   1  26
TORSDOF 8
ENDMDL
MODEL 9
REMARK VINA RESULT:      -7.4      3.045      7.390
REMARK  8 active torsions:
REMARK  status: ('A' for Active; 'I' for Inactive)
REMARK    1  A    between atoms: C_2  and  O_3 
REMARK    2  A    between atoms: O_3  and  C_4 
REMARK    3  A    between atoms: C_4  and  C_5 
REMARK    4  A    between atoms: C_5  and  C_6 
REMARK    5  A    between atoms: C_6  and  N_7 
REMARK    6  A    between atoms: C_12  and  C_13 
REMARK    7  A    between atoms: C_23  and  C_24 
REMARK    8  A    between atoms: C_25  and  O_26 
ROOT
HETATM    1  N   UNL     1      -6.620   1.082 -32.774  1.00  0.00    -0.334 N 
HETATM    2  C   UNL     1      -5.887   0.299 -31.870  1.00  0.00     0.273 A 
HETATM    3  O   UNL     1      -6.186  -0.758 -31.349  1.00  0.00    -0.266 OA
HETATM    4  C   UNL     1      -4.684   1.026 -31.708  1.00  0.00     0.129 A 
HETATM    5  C   UNL     1      -4.658   2.174 -32.442  1.00  0.00     0.034 A 
HETATM    6  C   UNL     1      -5.916   2.326 -33.203  1.00  0.00     0.159 A 
HETATM    7  N   UNL     1      -3.528   0.943 -31.033  1.00  0.00    -0.272 N 
HETATM    8  H   UNL     1      -3.214   0.230 -30.381  1.00  0.00     0.189 HD
HETATM    9  N   UNL     1      -2.711   1.989 -31.319  1.00  0.00    -0.173 NA
HETATM   10  C   UNL     1      -3.406   2.753 -32.195  1.00  0.00     0.101 A 
ENDROOT
BRANCH  10  11
HETATM   11  C   UNL     1      -2.848   3.981 -32.750  1.00  0.00     0.028 A 
HETATM   12  C   UNL     1      -1.845   4.710 -32.095  1.00  0.00     0.078 A 
HETATM   13  C   UNL     1      -1.269   5.832 -32.688  1.00  0.00     0.037 A 
HETATM   14  C   UNL     1      -1.721   6.265 -33.935  1.00  0.00     0.003 A 
HETATM   15  C   UNL     1      -2.743   5.574 -34.585  1.00  0.00     0.001 A 
HETATM   16  C   UNL     1      -3.302   4.437 -33.996  1.00  0.00     0.017 A 
BRANCH  12  17
HETATM   17  O   UNL     1      -1.408   4.394 -30.836  1.00  0.00    -0.360 OA
HETATM   18  H   UNL     1      -2.208   4.289 -30.288  1.00  0.00     0.217 HD
ENDBRANCH  12  17
ENDBRANCH  10  11
BRANCH   6  19
HETATM   19  C   UNL     1      -6.577   3.609 -32.759  1.00  0.00    -0.031 A 
HETATM   20  C   UNL     1      -6.997   4.532 -33.734  1.00  0.00     0.011 A 
HETATM   21  C   UNL     1      -7.624   5.726 -33.368  1.00  0.00     0.024 A 
HETATM   22  C   UNL     1      -7.834   6.013 -32.023  1.00  0.00     0.034 A 
HETATM   23 CL   UNL     1      -8.611   7.481 -31.573  1.00  0.00    -0.084 Cl
HETATM   24  C   UNL     1      -7.420   5.119 -31.039  1.00  0.00     0.024 A 
HETATM   25  C   UNL     1      -6.794   3.924 -31.406  1.00  0.00     0.011 A 
ENDBRANCH   6  19
BRANCH   1  26
HETATM   26  C   UNL     1      -7.931   0.705 -33.275  1.00  0.00     0.129 C 
BRANCH  26  27
HETATM   27  C   UNL     1      -9.071   0.983 -32.292  1.00  0.00     0.046 C 
BRANCH  27  28
HETATM   28  C   UNL     1     -10.218   1.770 -32.916  1.00  0.00     0.169 C 
BRANCH  28  29
HETATM   29  O   UNL     1     -10.013   3.157 -32.668  1.00  0.00    -0.387 OA
BRANCH  29  30
HETATM   30  C   UNL     1     -11.153   3.822 -32.117  1.00  0.00     0.113 C 
HETATM   31  C   UNL     1     -11.406   5.154 -32.815  1.00  0.00     0.039 C 
HETATM   32  C   UNL     1     -10.868   4.042 -30.636  1.00  0.00     0.039 C 
ENDBRANCH  29  30
ENDBRANCH  28  29
ENDBRANCH  27  28
ENDBRANCH  26  27
ENDBRANCH   1  26
TORSDOF 8
ENDMDL
MODEL 10
REMARK VINA RESULT:      -7.4      3.219      6.045
REMARK  8 active torsions:
REMARK  status: ('A' for Active; 'I' for Inactive)
REMARK    1  A    between atoms: C_2  and  O_3 
REMARK    2  A    between atoms: O_3  and  C_4 
REMARK    3  A    between atoms: C_4  and  C_5 
REMARK    4  A    between atoms: C_5  and  C_6 
REMARK    5  A    between atoms: C_6  and  N_7 
REMARK    6  A    between atoms: C_12  and  C_13 
REMARK    7  A    between atoms: C_23  and  C_24 
REMARK    8  A    between atoms: C_25  and  O_26 
ROOT
HETATM    1  N   UNL     1      -7.288   4.742 -31.645  1.00  0.00    -0.334 N 
HETATM    2  C   UNL     1      -7.431   4.403 -30.292  1.00  0.00     0.273 A 
HETATM    3  O   UNL     1      -7.912   5.053 -29.383  1.00  0.00    -0.266 OA
HETATM    4  C   UNL     1      -6.891   3.097 -30.222  1.00  0.00     0.129 A 
HETATM    5  C   UNL     1      -6.439   2.648 -31.427  1.00  0.00     0.034 A 
HETATM    6  C   UNL     1      -6.648   3.674 -32.470  1.00  0.00     0.159 A 
HETATM    7  N   UNL     1      -6.668   2.135 -29.314  1.00  0.00    -0.272 N 
HETATM    8  H   UNL     1      -6.865   2.134 -28.318  1.00  0.00     0.189 HD
HETATM    9  N   UNL     1      -6.109   1.037 -29.883  1.00  0.00    -0.173 NA
HETATM   10  C   UNL     1      -5.968   1.348 -31.194  1.00  0.00     0.101 A 
ENDROOT
BRANCH  10  11
HETATM   11  C   UNL     1      -5.402   0.403 -32.149  1.00  0.00     0.028 A 
HETATM   12  C   UNL     1      -4.134  -0.169 -31.974  1.00  0.00     0.078 A 
HETATM   13  C   UNL     1      -3.653  -1.134 -32.856  1.00  0.00     0.037 A 
HETATM   14  C   UNL     1      -4.424  -1.513 -33.955  1.00  0.00     0.003 A 
HETATM   15  C   UNL     1      -5.672  -0.928 -34.166  1.00  0.00     0.001 A 
HETATM   16  C   UNL     1      -6.160   0.023 -33.267  1.00  0.00     0.017 A 
BRANCH  12  17
HETATM   17  O   UNL     1      -3.287   0.212 -30.966  1.00  0.00    -0.360 OA
HETATM   18  H   UNL     1      -2.836  -0.598 -30.668  1.00  0.00     0.217 HD
ENDBRANCH  12  17
ENDBRANCH  10  11
BRANCH   6  19
HETATM   19  C   UNL     1      -5.299   4.041 -33.039  1.00  0.00    -0.031 A 
HETATM   20  C   UNL     1      -5.236   4.643 -34.308  1.00  0.00     0.011 A 
HETATM   21  C   UNL     1      -4.009   5.011 -34.868  1.00  0.00     0.024 A 
HETATM   22  C   UNL     1      -2.831   4.776 -34.165  1.00  0.00     0.034 A 
HETATM   23 CL   UNL     1      -1.321   5.234 -34.852  1.00  0.00    -0.084 Cl
HETATM   24  C   UNL     1      -2.867   4.175 -32.911  1.00  0.00     0.024 A 
HETATM   25  C   UNL     1      -4.095   3.809 -32.351  1.00  0.00     0.011 A 
ENDBRANCH   6  19
BRANCH   1  26
HETATM   26  C   UNL     1      -7.749   6.001 -32.206  1.00  0.00     0.129 C 
BRANCH  26  27
HETATM   27  C   UNL     1      -9.265   6.070 -32.406  1.00  0.00     0.046 C 
BRANCH  27  28
HETATM   28  C   UNL     1      -9.766   5.123 -33.491  1.00  0.00     0.169 C 
BRANCH  28  29
HETATM   29  O   UNL     1      -9.288   5.575 -34.754  1.00  0.00    -0.387 OA
BRANCH  29  30
HETATM   30  C   UNL     1     -10.322   5.814 -35.713  1.00  0.00     0.113 C 
HETATM   31  C   UNL     1     -10.667   7.298 -35.794  1.00  0.00     0.039 C 
HETATM   32  C   UNL     1     -11.536   5.009 -35.269  1.00  0.00     0.039 C 
ENDBRANCH  29  30
ENDBRANCH  28  29
ENDBRANCH  27  28
ENDBRANCH  26  27
ENDBRANCH   1  26
TORSDOF 8
ENDMDL
