MODEL 1
REMARK VINA RESULT:      -7.3      0.000      0.000
REMARK  3 active torsions:
REMARK  status: ('A' for Active; 'I' for Inactive)
REMARK       I    between atoms: C_2  and  N_3 
REMARK    1  A    between atoms: N_3  and  C_4 
REMARK    2  A    between atoms: C_7  and  N_8 
REMARK       I    between atoms: N_8  and  C_9 
REMARK    3  A    between atoms: C_9  and  C_10 
ROOT
HETATM    1  C   UNL     1     -10.486   2.535 -32.999  1.00  0.00     0.052 A 
HETATM    2  C   UNL     1     -10.369   1.772 -34.154  1.00  0.00     0.148 A 
HETATM    3  N   UNL     1      -9.530   0.710 -34.286  1.00  0.00    -0.241 NA
HETATM    4  C   UNL     1      -8.760   0.382 -33.229  1.00  0.00     0.130 A 
HETATM    5  C   UNL     1      -8.806   1.085 -32.036  1.00  0.00     0.053 A 
HETATM    6  C   UNL     1      -9.680   2.170 -31.923  1.00  0.00     0.035 A 
ENDROOT
BRANCH   4   7
HETATM    7  N   UNL     1      -7.941  -0.722 -33.468  1.00  0.00    -0.307 N 
HETATM    8  C   UNL     1      -6.880  -0.834 -34.330  1.00  0.00     0.259 C 
HETATM    9  O   UNL     1      -6.480   0.071 -35.059  1.00  0.00    -0.267 OA
HETATM   10  H   UNL     1      -8.233  -1.522 -32.921  1.00  0.00     0.170 HD
BRANCH   8  11
HETATM   11  C   UNL     1      -6.143  -2.146 -34.366  1.00  0.00     0.054 A 
HETATM   12  C   UNL     1      -4.798  -2.363 -34.024  1.00  0.00     0.049 A 
HETATM   13 CL   UNL     1      -3.721  -1.140 -33.446  1.00  0.00    -0.083 Cl
HETATM   14  C   UNL     1      -4.244  -3.652 -34.117  1.00  0.00     0.025 A 
HETATM   15  C   UNL     1      -5.016  -4.733 -34.540  1.00  0.00     0.002 A 
HETATM   16  C   UNL     1      -6.349  -4.537 -34.872  1.00  0.00     0.001 A 
HETATM   17  C   UNL     1      -6.904  -3.258 -34.785  1.00  0.00     0.019 A 
ENDBRANCH   8  11
ENDBRANCH   4   7
BRANCH   1  18
HETATM   18  N   UNL     1     -11.353   3.634 -32.829  1.00  0.00    -0.326 N 
HETATM   19  C   UNL     1     -12.728   3.588 -32.698  1.00  0.00     0.218 C 
HETATM   20  C   UNL     1     -13.329   4.959 -32.522  1.00  0.00     0.117 C 
HETATM   21  O   UNL     1     -13.430   2.584 -32.727  1.00  0.00    -0.274 OA
HETATM   22  H   UNL     1     -10.919   4.548 -32.804  1.00  0.00     0.169 HD
ENDBRANCH   1  18
TORSDOF 3
ENDMDL
MODEL 2
REMARK VINA RESULT:      -7.0      5.351      6.366
REMARK  3 active torsions:
REMARK  status: ('A' for Active; 'I' for Inactive)
REMARK       I    between atoms: C_2  and  N_3 
REMARK    1  A    between atoms: N_3  and  C_4 
REMARK    2  A    between atoms: C_7  and  N_8 
REMARK       I    between atoms: N_8  and  C_9 
REMARK    3  A    between atoms: C_9  and  C_10 
ROOT
HETATM    1  C   UNL     1      -3.444   4.719 -31.164  1.00  0.00     0.052 A 
HETATM    2  C   UNL     1      -2.632   3.731 -31.707  1.00  0.00     0.148 A 
HETATM    3  N   UNL     1      -3.099   2.589 -32.277  1.00  0.00    -0.241 NA
HETATM    4  C   UNL     1      -4.434   2.402 -32.312  1.00  0.00     0.130 A 
HETATM    5  C   UNL     1      -5.322   3.332 -31.794  1.00  0.00     0.053 A 
HETATM    6  C   UNL     1      -4.818   4.501 -31.217  1.00  0.00     0.035 A 
ENDROOT
BRANCH   4   7
HETATM    7  N   UNL     1      -4.807   1.203 -32.921  1.00  0.00    -0.307 N 
HETATM    8  C   UNL     1      -4.861  -0.055 -32.378  1.00  0.00     0.259 C 
HETATM    9  O   UNL     1      -4.568  -0.322 -31.214  1.00  0.00    -0.267 OA
HETATM   10  H   UNL     1      -5.032   1.341 -33.898  1.00  0.00     0.170 HD
BRANCH   8  11
HETATM   11  C   UNL     1      -5.333  -1.179 -33.262  1.00  0.00     0.054 A 
HETATM   12  C   UNL     1      -6.650  -1.413 -33.689  1.00  0.00     0.049 A 
HETATM   13 CL   UNL     1      -8.003  -0.407 -33.304  1.00  0.00    -0.083 Cl
HETATM   14  C   UNL     1      -6.941  -2.516 -34.511  1.00  0.00     0.025 A 
HETATM   15  C   UNL     1      -5.933  -3.388 -34.921  1.00  0.00     0.002 A 
HETATM   16  C   UNL     1      -4.625  -3.164 -34.515  1.00  0.00     0.001 A 
HETATM   17  C   UNL     1      -4.330  -2.072 -33.695  1.00  0.00     0.019 A 
ENDBRANCH   8  11
ENDBRANCH   4   7
BRANCH   1  18
HETATM   18  N   UNL     1      -2.989   5.917 -30.575  1.00  0.00    -0.326 N 
HETATM   19  C   UNL     1      -2.676   7.093 -31.232  1.00  0.00     0.218 C 
HETATM   20  C   UNL     1      -2.233   8.175 -30.281  1.00  0.00     0.117 C 
HETATM   21  O   UNL     1      -2.722   7.287 -32.440  1.00  0.00    -0.274 OA
HETATM   22  H   UNL     1      -2.881   5.910 -29.569  1.00  0.00     0.169 HD
ENDBRANCH   1  18
TORSDOF 3
ENDMDL
MODEL 3
REMARK VINA RESULT:      -7.0     13.997     15.254
REMARK  3 active torsions:
REMARK  status: ('A' for Active; 'I' for Inactive)
REMARK       I    between atoms: C_2  and  N_3 
REMARK    1  A    between atoms: N_3  and  C_4 
REMARK    2  A    between atoms: C_7  and  N_8 
REMARK       I    between atoms: N_8  and  C_9 
REMARK    3  A    between atoms: C_9  and  C_10 
ROOT
HETATM    1  C   UNL     1      -7.261 -12.321 -40.122  1.00  0.00     0.052 A 
HETATM    2  C   UNL     1      -6.811 -12.563 -38.831  1.00  0.00     0.148 A 
HETATM    3  N   UNL     1      -5.578 -13.052 -38.531  1.00  0.00    -0.241 NA
HETATM    4  C   UNL     1      -4.744 -13.325 -39.555  1.00  0.00     0.130 A 
HETATM    5  C   UNL     1      -5.106 -13.118 -40.876  1.00  0.00     0.053 A 
HETATM    6  C   UNL     1      -6.376 -12.609 -41.158  1.00  0.00     0.035 A 
ENDROOT
BRANCH   4   7
HETATM    7  N   UNL     1      -3.506 -13.817 -39.139  1.00  0.00    -0.307 N 
HETATM    8  C   UNL     1      -2.481 -13.149 -38.518  1.00  0.00     0.259 C 
HETATM    9  O   UNL     1      -2.506 -11.956 -38.228  1.00  0.00    -0.267 OA
HETATM   10  H   UNL     1      -3.400 -14.795 -39.376  1.00  0.00     0.170 HD
BRANCH   8  11
HETATM   11  C   UNL     1      -1.255 -13.940 -38.148  1.00  0.00     0.054 A 
HETATM   12  C   UNL     1      -1.065 -14.698 -36.981  1.00  0.00     0.049 A 
HETATM   13 CL   UNL     1      -2.251 -14.903 -35.739  1.00  0.00    -0.083 Cl
HETATM   14  C   UNL     1       0.146 -15.379 -36.769  1.00  0.00     0.025 A 
HETATM   15  C   UNL     1       1.173 -15.322 -37.710  1.00  0.00     0.002 A 
HETATM   16  C   UNL     1       0.998 -14.585 -38.873  1.00  0.00     0.001 A 
HETATM   17  C   UNL     1      -0.203 -13.902 -39.088  1.00  0.00     0.019 A 
ENDBRANCH   8  11
ENDBRANCH   4   7
BRANCH   1  18
HETATM   18  N   UNL     1      -8.529 -11.805 -40.463  1.00  0.00    -0.326 N 
HETATM   19  C   UNL     1      -9.748 -12.208 -39.951  1.00  0.00     0.218 C 
HETATM   20  C   UNL     1     -10.896 -11.426 -40.537  1.00  0.00     0.117 C 
HETATM   21  O   UNL     1      -9.936 -13.095 -39.129  1.00  0.00    -0.274 OA
HETATM   22  H   UNL     1      -8.542 -11.066 -41.154  1.00  0.00     0.169 HD
ENDBRANCH   1  18
TORSDOF 3
ENDMDL
MODEL 4
REMARK VINA RESULT:      -6.9      2.683      2.955
REMARK  3 active torsions:
REMARK  status: ('A' for Active; 'I' for Inactive)
REMARK       I    between atoms: C_2  and  N_3 
REMARK    1  A    between atoms: N_3  and  C_4 
REMARK    2  A    between atoms: C_7  and  N_8 
REMARK       I    between atoms: N_8  and  C_9 
REMARK    3  A    between atoms: C_9  and  C_10 
ROOT
HETATM    1  C   UNL     1      -8.124   2.877 -30.522  1.00  0.00     0.052 A 
HETATM    2  C   UNL     1      -8.837   2.046 -31.378  1.00  0.00     0.148 A 
HETATM    3  N   UNL     1      -8.333   0.912 -31.935  1.00  0.00    -0.241 NA
HETATM    4  C   UNL     1      -7.060   0.578 -31.642  1.00  0.00     0.130 A 
HETATM    5  C   UNL     1      -6.272   1.347 -30.800  1.00  0.00     0.053 A 
HETATM    6  C   UNL     1      -6.814   2.505 -30.235  1.00  0.00     0.035 A 
ENDROOT
BRANCH   4   7
HETATM    7  N   UNL     1      -6.644  -0.601 -32.260  1.00  0.00    -0.307 N 
HETATM    8  C   UNL     1      -6.278  -0.803 -33.566  1.00  0.00     0.259 C 
HETATM    9  O   UNL     1      -6.268   0.074 -34.427  1.00  0.00    -0.267 OA
HETATM   10  H   UNL     1      -6.659  -1.381 -31.614  1.00  0.00     0.170 HD
BRANCH   8  11
HETATM   11  C   UNL     1      -5.837  -2.187 -33.963  1.00  0.00     0.054 A 
HETATM   12  C   UNL     1      -4.608  -2.795 -33.661  1.00  0.00     0.049 A 
HETATM   13 CL   UNL     1      -3.355  -2.064 -32.719  1.00  0.00    -0.083 Cl
HETATM   14  C   UNL     1      -4.334  -4.098 -34.111  1.00  0.00     0.025 A 
HETATM   15  C   UNL     1      -5.274  -4.810 -34.854  1.00  0.00     0.002 A 
HETATM   16  C   UNL     1      -6.497  -4.227 -35.153  1.00  0.00     0.001 A 
HETATM   17  C   UNL     1      -6.774  -2.930 -34.712  1.00  0.00     0.019 A 
ENDBRANCH   8  11
ENDBRANCH   4   7
BRANCH   1  18
HETATM   18  N   UNL     1      -8.622   4.051 -29.922  1.00  0.00    -0.326 N 
HETATM   19  C   UNL     1      -8.471   5.344 -30.388  1.00  0.00     0.218 C 
HETATM   20  C   UNL     1      -9.147   6.353 -29.496  1.00  0.00     0.117 C 
HETATM   21  O   UNL     1      -7.861   5.690 -31.392  1.00  0.00    -0.274 OA
HETATM   22  H   UNL     1      -9.141   3.931 -29.062  1.00  0.00     0.169 HD
ENDBRANCH   1  18
TORSDOF 3
ENDMDL
MODEL 5
REMARK VINA RESULT:      -6.9      6.669      8.763
REMARK  3 active torsions:
REMARK  status: ('A' for Active; 'I' for Inactive)
REMARK       I    between atoms: C_2  and  N_3 
REMARK    1  A    between atoms: N_3  and  C_4 
REMARK    2  A    between atoms: C_7  and  N_8 
REMARK       I    between atoms: N_8  and  C_9 
REMARK    3  A    between atoms: C_9  and  C_10 
ROOT
HETATM    1  C   UNL     1      -5.040  -0.006 -32.529  1.00  0.00     0.052 A 
HETATM    2  C   UNL     1      -3.705  -0.002 -32.141  1.00  0.00     0.148 A 
HETATM    3  N   UNL     1      -3.035   1.104 -31.723  1.00  0.00    -0.241 NA
HETATM    4  C   UNL     1      -3.708   2.272 -31.688  1.00  0.00     0.130 A 
HETATM    5  C   UNL     1      -5.040   2.367 -32.057  1.00  0.00     0.053 A 
HETATM    6  C   UNL     1      -5.709   1.215 -32.479  1.00  0.00     0.035 A 
ENDROOT
BRANCH   4   7
HETATM    7  N   UNL     1      -2.931   3.341 -31.240  1.00  0.00    -0.307 N 
HETATM    8  C   UNL     1      -2.292   4.305 -31.978  1.00  0.00     0.259 C 
HETATM    9  O   UNL     1      -2.309   4.366 -33.205  1.00  0.00    -0.267 OA
HETATM   10  H   UNL     1      -2.845   3.338 -30.232  1.00  0.00     0.170 HD
BRANCH   8  11
HETATM   11  C   UNL     1      -1.539   5.373 -31.229  1.00  0.00     0.054 A 
HETATM   12  C   UNL     1      -2.090   6.365 -30.401  1.00  0.00     0.049 A 
HETATM   13 CL   UNL     1      -3.775   6.523 -30.045  1.00  0.00    -0.083 Cl
HETATM   14  C   UNL     1      -1.255   7.305 -29.772  1.00  0.00     0.025 A 
HETATM   15  C   UNL     1       0.127   7.267 -29.951  1.00  0.00     0.002 A 
HETATM   16  C   UNL     1       0.687   6.287 -30.759  1.00  0.00     0.001 A 
HETATM   17  C   UNL     1      -0.137   5.352 -31.390  1.00  0.00     0.019 A 
ENDBRANCH   8  11
ENDBRANCH   4   7
BRANCH   1  18
HETATM   18  N   UNL     1      -5.763  -1.137 -32.957  1.00  0.00    -0.326 N 
HETATM   19  C   UNL     1      -6.357  -1.318 -34.192  1.00  0.00     0.218 C 
HETATM   20  C   UNL     1      -7.038  -2.658 -34.305  1.00  0.00     0.117 C 
HETATM   21  O   UNL     1      -6.373  -0.516 -35.117  1.00  0.00    -0.274 OA
HETATM   22  H   UNL     1      -5.855  -1.891 -32.288  1.00  0.00     0.169 HD
ENDBRANCH   1  18
TORSDOF 3
ENDMDL
MODEL 6
REMARK VINA RESULT:      -6.8     14.737     17.113
REMARK  3 active torsions:
REMARK  status: ('A' for Active; 'I' for Inactive)
REMARK       I    between atoms: C_2  and  N_3 
REMARK    1  A    between atoms: N_3  and  C_4 
REMARK    2  A    between atoms: C_7  and  N_8 
REMARK       I    between atoms: N_8  and  C_9 
REMARK    3  A    between atoms: C_9  and  C_10 
ROOT
HETATM    1  C   UNL     1      -1.894 -14.002 -38.515  1.00  0.00     0.052 A 
HETATM    2  C   UNL     1      -2.736 -15.011 -38.965  1.00  0.00     0.148 A 
HETATM    3  N   UNL     1      -4.068 -14.851 -39.188  1.00  0.00    -0.241 NA
HETATM    4  C   UNL     1      -4.604 -13.637 -38.950  1.00  0.00     0.130 A 
HETATM    5  C   UNL     1      -3.844 -12.570 -38.498  1.00  0.00     0.053 A 
HETATM    6  C   UNL     1      -2.476 -12.759 -38.282  1.00  0.00     0.035 A 
ENDROOT
BRANCH   4   7
HETATM    7  N   UNL     1      -5.973 -13.579 -39.214  1.00  0.00    -0.307 N 
HETATM    8  C   UNL     1      -6.609 -13.297 -40.397  1.00  0.00     0.259 C 
HETATM    9  O   UNL     1      -6.031 -13.036 -41.450  1.00  0.00    -0.267 OA
HETATM   10  H   UNL     1      -6.517 -13.753 -38.378  1.00  0.00     0.170 HD
BRANCH   8  11
HETATM   11  C   UNL     1      -8.114 -13.334 -40.408  1.00  0.00     0.054 A 
HETATM   12  C   UNL     1      -8.924 -14.455 -40.646  1.00  0.00     0.049 A 
HETATM   13 CL   UNL     1      -8.330 -16.053 -40.940  1.00  0.00    -0.083 Cl
HETATM   14  C   UNL     1     -10.325 -14.332 -40.633  1.00  0.00     0.025 A 
HETATM   15  C   UNL     1     -10.932 -13.104 -40.377  1.00  0.00     0.002 A 
HETATM   16  C   UNL     1     -10.145 -11.987 -40.130  1.00  0.00     0.001 A 
HETATM   17  C   UNL     1      -8.752 -12.103 -40.146  1.00  0.00     0.019 A 
ENDBRANCH   8  11
ENDBRANCH   4   7
BRANCH   1  18
HETATM   18  N   UNL     1      -0.510 -14.136 -38.285  1.00  0.00    -0.326 N 
HETATM   19  C   UNL     1       0.467 -14.361 -39.236  1.00  0.00     0.218 C 
HETATM   20  C   UNL     1       1.845 -14.438 -38.630  1.00  0.00     0.117 C 
HETATM   21  O   UNL     1       0.293 -14.504 -40.440  1.00  0.00    -0.274 OA
HETATM   22  H   UNL     1      -0.205 -14.060 -37.323  1.00  0.00     0.169 HD
ENDBRANCH   1  18
TORSDOF 3
ENDMDL
MODEL 7
REMARK VINA RESULT:      -6.8     14.182     15.649
REMARK  3 active torsions:
REMARK  status: ('A' for Active; 'I' for Inactive)
REMARK       I    between atoms: C_2  and  N_3 
REMARK    1  A    between atoms: N_3  and  C_4 
REMARK    2  A    between atoms: C_7  and  N_8 
REMARK       I    between atoms: N_8  and  C_9 
REMARK    3  A    between atoms: C_9  and  C_10 
ROOT
HETATM    1  C   UNL     1      -6.004 -14.827 -31.996  1.00  0.00     0.052 A 
HETATM    2  C   UNL     1      -6.909 -15.466 -32.833  1.00  0.00     0.148 A 
HETATM    3  N   UNL     1      -7.297 -14.987 -34.045  1.00  0.00    -0.241 NA
HETATM    4  C   UNL     1      -6.773 -13.814 -34.455  1.00  0.00     0.130 A 
HETATM    5  C   UNL     1      -5.864 -13.103 -33.687  1.00  0.00     0.053 A 
HETATM    6  C   UNL     1      -5.477 -13.620 -32.447  1.00  0.00     0.035 A 
ENDROOT
BRANCH   4   7
HETATM    7  N   UNL     1      -7.233 -13.415 -35.711  1.00  0.00    -0.307 N 
HETATM    8  C   UNL     1      -6.813 -13.828 -36.950  1.00  0.00     0.259 C 
HETATM    9  O   UNL     1      -5.920 -14.650 -37.142  1.00  0.00    -0.267 OA
HETATM   10  H   UNL     1      -7.954 -12.709 -35.632  1.00  0.00     0.170 HD
BRANCH   8  11
HETATM   11  C   UNL     1      -7.511 -13.252 -38.153  1.00  0.00     0.054 A 
HETATM   12  C   UNL     1      -6.921 -12.520 -39.196  1.00  0.00     0.049 A 
HETATM   13 CL   UNL     1      -5.233 -12.167 -39.316  1.00  0.00    -0.083 Cl
HETATM   14  C   UNL     1      -7.710 -12.036 -40.255  1.00  0.00     0.025 A 
HETATM   15  C   UNL     1      -9.081 -12.279 -40.294  1.00  0.00     0.002 A 
HETATM   16  C   UNL     1      -9.678 -13.010 -39.276  1.00  0.00     0.001 A 
HETATM   17  C   UNL     1      -8.901 -13.490 -38.218  1.00  0.00     0.019 A 
ENDBRANCH   8  11
ENDBRANCH   4   7
BRANCH   1  18
HETATM   18  N   UNL     1      -5.575 -15.304 -30.740  1.00  0.00    -0.326 N 
HETATM   19  C   UNL     1      -4.568 -16.221 -30.505  1.00  0.00     0.218 C 
HETATM   20  C   UNL     1      -4.375 -16.489 -29.035  1.00  0.00     0.117 C 
HETATM   21  O   UNL     1      -3.889 -16.790 -31.351  1.00  0.00    -0.274 OA
HETATM   22  H   UNL     1      -6.060 -14.936 -29.931  1.00  0.00     0.169 HD
ENDBRANCH   1  18
TORSDOF 3
ENDMDL
MODEL 8
REMARK VINA RESULT:      -6.8      2.793      7.934
REMARK  3 active torsions:
REMARK  status: ('A' for Active; 'I' for Inactive)
REMARK       I    between atoms: C_2  and  N_3 
REMARK    1  A    between atoms: N_3  and  C_4 
REMARK    2  A    between atoms: C_7  and  N_8 
REMARK       I    between atoms: N_8  and  C_9 
REMARK    3  A    between atoms: C_9  and  C_10 
ROOT
HETATM    1  C   UNL     1      -5.661  -1.938 -33.894  1.00  0.00     0.052 A 
HETATM    2  C   UNL     1      -6.515  -1.742 -34.972  1.00  0.00     0.148 A 
HETATM    3  N   UNL     1      -7.533  -0.841 -34.985  1.00  0.00    -0.241 NA
HETATM    4  C   UNL     1      -7.728  -0.095 -33.879  1.00  0.00     0.130 A 
HETATM    5  C   UNL     1      -6.928  -0.221 -32.754  1.00  0.00     0.053 A 
HETATM    6  C   UNL     1      -5.885  -1.151 -32.767  1.00  0.00     0.035 A 
ENDROOT
BRANCH   4   7
HETATM    7  N   UNL     1      -8.792   0.799 -33.999  1.00  0.00    -0.307 N 
HETATM    8  C   UNL     1     -10.064   0.693 -33.496  1.00  0.00     0.259 C 
HETATM    9  O   UNL     1     -10.471  -0.260 -32.835  1.00  0.00    -0.267 OA
HETATM   10  H   UNL     1      -8.538   1.601 -34.563  1.00  0.00     0.170 HD
BRANCH   8  11
HETATM   11  C   UNL     1     -11.015   1.832 -33.751  1.00  0.00     0.054 A 
HETATM   12  C   UNL     1     -11.160   2.994 -32.977  1.00  0.00     0.049 A 
HETATM   13 CL   UNL     1     -10.221   3.362 -31.572  1.00  0.00    -0.083 Cl
HETATM   14  C   UNL     1     -12.103   3.972 -33.339  1.00  0.00     0.025 A 
HETATM   15  C   UNL     1     -12.901   3.812 -34.470  1.00  0.00     0.002 A 
HETATM   16  C   UNL     1     -12.763   2.673 -35.252  1.00  0.00     0.001 A 
HETATM   17  C   UNL     1     -11.830   1.695 -34.895  1.00  0.00     0.019 A 
ENDBRANCH   8  11
ENDBRANCH   4   7
BRANCH   1  18
HETATM   18  N   UNL     1      -4.593  -2.857 -33.854  1.00  0.00    -0.326 N 
HETATM   19  C   UNL     1      -4.649  -4.202 -34.166  1.00  0.00     0.218 C 
HETATM   20  C   UNL     1      -3.308  -4.876 -34.022  1.00  0.00     0.117 C 
HETATM   21  O   UNL     1      -5.643  -4.829 -34.511  1.00  0.00    -0.274 OA
HETATM   22  H   UNL     1      -3.695  -2.489 -33.565  1.00  0.00     0.169 HD
ENDBRANCH   1  18
TORSDOF 3
ENDMDL
MODEL 9
REMARK VINA RESULT:      -6.6      6.070      6.965
REMARK  3 active torsions:
REMARK  status: ('A' for Active; 'I' for Inactive)
REMARK       I    between atoms: C_2  and  N_3 
REMARK    1  A    between atoms: N_3  and  C_4 
REMARK    2  A    between atoms: C_7  and  N_8 
REMARK       I    between atoms: N_8  and  C_9 
REMARK    3  A    between atoms: C_9  and  C_10 
ROOT
HETATM    1  C   UNL     1      -2.803   5.696 -30.861  1.00  0.00     0.052 A 
HETATM    2  C   UNL     1      -1.961   4.727 -31.393  1.00  0.00     0.148 A 
HETATM    3  N   UNL     1      -2.392   3.563 -31.947  1.00  0.00    -0.241 NA
HETATM    4  C   UNL     1      -3.721   3.332 -31.975  1.00  0.00     0.130 A 
HETATM    5  C   UNL     1      -4.637   4.239 -31.467  1.00  0.00     0.053 A 
HETATM    6  C   UNL     1      -4.170   5.432 -30.907  1.00  0.00     0.035 A 
ENDROOT
BRANCH   4   7
HETATM    7  N   UNL     1      -4.055   2.114 -32.567  1.00  0.00    -0.307 N 
HETATM    8  C   UNL     1      -4.835   1.102 -32.067  1.00  0.00     0.259 C 
HETATM    9  O   UNL     1      -5.377   1.124 -30.964  1.00  0.00    -0.267 OA
HETATM   10  H   UNL     1      -3.615   2.011 -33.472  1.00  0.00     0.170 HD
BRANCH   8  11
HETATM   11  C   UNL     1      -5.061  -0.103 -32.940  1.00  0.00     0.054 A 
HETATM   12  C   UNL     1      -4.310  -1.290 -32.943  1.00  0.00     0.049 A 
HETATM   13 CL   UNL     1      -2.977  -1.612 -31.889  1.00  0.00    -0.083 Cl
HETATM   14  C   UNL     1      -4.639  -2.333 -33.828  1.00  0.00     0.025 A 
HETATM   15  C   UNL     1      -5.713  -2.212 -34.707  1.00  0.00     0.002 A 
HETATM   16  C   UNL     1      -6.470  -1.049 -34.710  1.00  0.00     0.001 A 
HETATM   17  C   UNL     1      -6.147  -0.008 -33.836  1.00  0.00     0.019 A 
ENDBRANCH   8  11
ENDBRANCH   4   7
BRANCH   1  18
HETATM   18  N   UNL     1      -2.387   6.916 -30.290  1.00  0.00    -0.326 N 
HETATM   19  C   UNL     1      -2.329   8.145 -30.920  1.00  0.00     0.218 C 
HETATM   20  C   UNL     1      -1.846   9.234 -29.997  1.00  0.00     0.117 C 
HETATM   21  O   UNL     1      -2.610   8.378 -32.088  1.00  0.00    -0.274 OA
HETATM   22  H   UNL     1      -2.101   6.883 -29.319  1.00  0.00     0.169 HD
ENDBRANCH   1  18
TORSDOF 3
ENDMDL
MODEL 10
REMARK VINA RESULT:      -6.5      3.300      8.109
REMARK  3 active torsions:
REMARK  status: ('A' for Active; 'I' for Inactive)
REMARK       I    between atoms: C_2  and  N_3 
REMARK    1  A    between atoms: N_3  and  C_4 
REMARK    2  A    between atoms: C_7  and  N_8 
REMARK       I    between atoms: N_8  and  C_9 
REMARK    3  A    between atoms: C_9  and  C_10 
ROOT
HETATM    1  C   UNL     1      -5.763  -1.246 -33.341  1.00  0.00     0.052 A 
HETATM    2  C   UNL     1      -6.293  -0.241 -32.540  1.00  0.00     0.148 A 
HETATM    3  N   UNL     1      -7.229   0.652 -32.957  1.00  0.00    -0.241 NA
HETATM    4  C   UNL     1      -7.665   0.560 -34.230  1.00  0.00     0.130 A 
HETATM    5  C   UNL     1      -7.193  -0.407 -35.103  1.00  0.00     0.053 A 
HETATM    6  C   UNL     1      -6.235  -1.318 -34.649  1.00  0.00     0.035 A 
ENDROOT
BRANCH   4   7
HETATM    7  N   UNL     1      -8.625   1.520 -34.553  1.00  0.00    -0.307 N 
HETATM    8  C   UNL     1      -9.914   1.631 -34.097  1.00  0.00     0.259 C 
HETATM    9  O   UNL     1     -10.438   0.858 -33.298  1.00  0.00    -0.267 OA
HETATM   10  H   UNL     1      -8.273   2.178 -35.236  1.00  0.00     0.170 HD
BRANCH   8  11
HETATM   11  C   UNL     1     -10.732   2.795 -34.591  1.00  0.00     0.054 A 
HETATM   12  C   UNL     1     -12.073   2.761 -35.009  1.00  0.00     0.049 A 
HETATM   13 CL   UNL     1     -13.071   1.349 -34.996  1.00  0.00    -0.083 Cl
HETATM   14  C   UNL     1     -12.704   3.935 -35.456  1.00  0.00     0.025 A 
HETATM   15  C   UNL     1     -12.019   5.149 -35.485  1.00  0.00     0.002 A 
HETATM   16  C   UNL     1     -10.697   5.201 -35.066  1.00  0.00     0.001 A 
HETATM   17  C   UNL     1     -10.062   4.036 -34.625  1.00  0.00     0.019 A 
ENDBRANCH   8  11
ENDBRANCH   4   7
BRANCH   1  18
HETATM   18  N   UNL     1      -4.800  -2.191 -32.934  1.00  0.00    -0.326 N 
HETATM   19  C   UNL     1      -3.667  -1.945 -32.182  1.00  0.00     0.218 C 
HETATM   20  C   UNL     1      -2.870  -3.199 -31.926  1.00  0.00     0.117 C 
HETATM   21  O   UNL     1      -3.297  -0.858 -31.757  1.00  0.00    -0.274 OA
HETATM   22  H   UNL     1      -4.958  -3.147 -33.228  1.00  0.00     0.169 HD
ENDBRANCH   1  18
TORSDOF 3
ENDMDL
