MODEL 1
REMARK VINA RESULT:      -8.7      0.000      0.000
REMARK  7 active torsions:
REMARK  status: ('A' for Active; 'I' for Inactive)
REMARK    1  A    between atoms: C_6  and  C_7 
REMARK    2  A    between atoms: N_13  and  C_15 
REMARK    3  A    between atoms: C_15  and  C_16 
REMARK    4  A    between atoms: C_16  and  N_17 
REMARK       I    between atoms: N_17  and  C_18 
REMARK    5  A    between atoms: C_18  and  C_19 
REMARK    6  A    between atoms: C_19  and  N_20 
REMARK    7  A    between atoms: C_19  and  C_27 
ROOT
HETATM    1  C   UNL     1      -5.808   4.416 -29.404  1.00  0.00     0.150 C 
ENDROOT
BRANCH   1   2
HETATM    2  C   UNL     1      -6.250   3.293 -30.370  1.00  0.00     0.255 C 
BRANCH   2   3
HETATM    3  N   UNL     1      -6.532   3.784 -31.779  1.00  0.00    -0.063 N 
HETATM    4  C   UNL     1      -7.917   3.455 -32.348  1.00  0.00     0.272 C 
HETATM    5  C   UNL     1      -8.175   1.946 -32.608  1.00  0.00     0.188 C 
HETATM    6  O   UNL     1      -7.340   1.489 -33.687  1.00  0.00    -0.339 OA
HETATM    7  C   UNL     1      -6.139   1.020 -33.236  1.00  0.00     0.077 A 
HETATM    8  C   UNL     1      -5.156   1.905 -32.781  1.00  0.00     0.001 A 
HETATM    9  C   UNL     1      -5.903  -0.350 -33.303  1.00  0.00     0.037 A 
HETATM   10  C   UNL     1      -3.926   1.383 -32.358  1.00  0.00     0.012 A 
HETATM   11  C   UNL     1      -5.424   3.379 -32.751  1.00  0.00     0.276 C 
HETATM   12  C   UNL     1      -3.693   0.006 -32.399  1.00  0.00     0.001 A 
HETATM   13  C   UNL     1      -4.679  -0.858 -32.873  1.00  0.00     0.003 A 
HETATM   14  H   UNL     1      -6.478   4.811 -31.764  1.00  0.00     0.280 HD
BRANCH   5  15
HETATM   15  C   UNL     1      -9.632   1.737 -32.959  1.00  0.00    -0.020 A 
HETATM   16  C   UNL     1     -10.560   2.754 -33.099  1.00  0.00     0.059 A 
HETATM   17  S   UNL     1     -12.115   2.186 -33.529  1.00  0.00    -0.113 SA
HETATM   18  C   UNL     1     -11.586   0.563 -33.510  1.00  0.00     0.050 A 
HETATM   19  C   UNL     1     -10.249   0.460 -33.195  1.00  0.00     0.017 A 
ENDBRANCH   5  15
ENDBRANCH   2   3
ENDBRANCH   1   2
BRANCH   1  20
HETATM   20  N   UNL     1      -4.499   5.001 -29.713  1.00  0.00    -0.357 N 
HETATM   21  C   UNL     1      -4.385   6.188 -30.421  1.00  0.00     0.253 C 
HETATM   22  O   UNL     1      -5.369   6.702 -30.948  1.00  0.00    -0.271 OA
HETATM   23  H   UNL     1      -3.732   4.733 -29.098  1.00  0.00     0.162 HD
BRANCH  21  24
HETATM   24  C   UNL     1      -2.942   6.787 -30.559  1.00  0.00     0.314 C 
BRANCH  24  25
HETATM   25  N   UNL     1      -1.967   6.423 -29.418  1.00  0.00    -0.050 N 
HETATM   26  H   UNL     1      -2.217   5.469 -29.129  1.00  0.00     0.281 HD
HETATM   27  C   UNL     1      -0.509   6.377 -29.875  1.00  0.00     0.262 C 
HETATM   28  C   UNL     1       0.381   5.908 -28.720  1.00  0.00     0.195 C 
HETATM   29  O   UNL     1       0.231   6.768 -27.588  1.00  0.00    -0.388 OA
HETATM   30  C   UNL     1      -1.110   6.764 -27.088  1.00  0.00     0.195 C 
HETATM   31  C   UNL     1      -2.090   7.279 -28.152  1.00  0.00     0.262 C 
ENDBRANCH  24  25
BRANCH  24  32
HETATM   32  C   UNL     1      -2.331   6.548 -31.919  1.00  0.00    -0.001 A 
HETATM   33  C   UNL     1      -1.915   7.596 -32.737  1.00  0.00     0.126 A 
HETATM   34  N   UNL     1      -1.383   7.427 -33.961  1.00  0.00    -0.272 NA
HETATM   35  C   UNL     1      -1.261   6.164 -34.423  1.00  0.00     0.116 A 
HETATM   36  C   UNL     1      -1.653   5.054 -33.698  1.00  0.00     0.020 A 
HETATM   37  C   UNL     1      -2.197   5.249 -32.431  1.00  0.00     0.012 A 
ENDBRANCH  24  32
ENDBRANCH  21  24
ENDBRANCH   1  20
TORSDOF 7
ENDMDL
MODEL 2
REMARK VINA RESULT:      -8.5      2.719      4.641
REMARK  7 active torsions:
REMARK  status: ('A' for Active; 'I' for Inactive)
REMARK    1  A    between atoms: C_6  and  C_7 
REMARK    2  A    between atoms: N_13  and  C_15 
REMARK    3  A    between atoms: C_15  and  C_16 
REMARK    4  A    between atoms: C_16  and  N_17 
REMARK       I    between atoms: N_17  and  C_18 
REMARK    5  A    between atoms: C_18  and  C_19 
REMARK    6  A    between atoms: C_19  and  N_20 
REMARK    7  A    between atoms: C_19  and  C_27 
ROOT
HETATM    1  C   UNL     1      -5.213   4.241 -34.278  1.00  0.00     0.150 C 
ENDROOT
BRANCH   1   2
HETATM    2  C   UNL     1      -6.425   3.393 -33.830  1.00  0.00     0.255 C 
BRANCH   2   3
HETATM    3  N   UNL     1      -6.147   2.541 -32.603  1.00  0.00    -0.063 N 
HETATM    4  C   UNL     1      -5.657   1.112 -32.865  1.00  0.00     0.272 C 
HETATM    5  C   UNL     1      -6.704   0.174 -33.525  1.00  0.00     0.188 C 
HETATM    6  O   UNL     1      -7.775  -0.088 -32.599  1.00  0.00    -0.339 OA
HETATM    7  C   UNL     1      -8.784   0.825 -32.720  1.00  0.00     0.077 A 
HETATM    8  C   UNL     1      -8.623   2.130 -32.245  1.00  0.00     0.001 A 
HETATM    9  C   UNL     1      -9.991   0.398 -33.267  1.00  0.00     0.037 A 
HETATM   10  C   UNL     1      -9.697   3.024 -32.359  1.00  0.00     0.012 A 
HETATM   11  C   UNL     1      -7.324   2.554 -31.628  1.00  0.00     0.276 C 
HETATM   12  C   UNL     1     -10.901   2.609 -32.932  1.00  0.00     0.001 A 
HETATM   13  C   UNL     1     -11.049   1.298 -33.383  1.00  0.00     0.003 A 
HETATM   14  H   UNL     1      -5.391   2.998 -32.077  1.00  0.00     0.280 HD
BRANCH   5  15
HETATM   15  C   UNL     1      -6.038  -1.125 -33.922  1.00  0.00    -0.020 A 
HETATM   16  C   UNL     1      -4.747  -1.485 -33.573  1.00  0.00     0.059 A 
HETATM   17  S   UNL     1      -4.303  -3.030 -34.156  1.00  0.00    -0.113 SA
HETATM   18  C   UNL     1      -5.819  -3.239 -34.913  1.00  0.00     0.050 A 
HETATM   19  C   UNL     1      -6.648  -2.159 -34.712  1.00  0.00     0.017 A 
ENDBRANCH   5  15
ENDBRANCH   2   3
ENDBRANCH   1   2
BRANCH   1  20
HETATM   20  N   UNL     1      -4.546   4.967 -33.192  1.00  0.00    -0.357 N 
HETATM   21  C   UNL     1      -3.673   6.013 -33.449  1.00  0.00     0.253 C 
HETATM   22  O   UNL     1      -3.309   6.259 -34.597  1.00  0.00    -0.271 OA
HETATM   23  H   UNL     1      -5.009   4.939 -32.284  1.00  0.00     0.162 HD
BRANCH  21  24
HETATM   24  C   UNL     1      -3.140   6.805 -32.204  1.00  0.00     0.314 C 
BRANCH  24  25
HETATM   25  N   UNL     1      -4.149   6.965 -31.046  1.00  0.00    -0.050 N 
HETATM   26  H   UNL     1      -4.409   6.011 -30.766  1.00  0.00     0.281 HD
HETATM   27  C   UNL     1      -3.538   7.634 -29.815  1.00  0.00     0.262 C 
HETATM   28  C   UNL     1      -4.564   7.661 -28.677  1.00  0.00     0.195 C 
HETATM   29  O   UNL     1      -5.752   8.342 -29.088  1.00  0.00    -0.388 OA
HETATM   30  C   UNL     1      -6.390   7.687 -30.189  1.00  0.00     0.195 C 
HETATM   31  C   UNL     1      -5.467   7.656 -31.415  1.00  0.00     0.262 C 
ENDBRANCH  24  25
BRANCH  24  32
HETATM   32  C   UNL     1      -1.800   6.308 -31.718  1.00  0.00    -0.001 A 
HETATM   33  C   UNL     1      -1.625   5.019 -31.221  1.00  0.00     0.126 A 
HETATM   34  N   UNL     1      -0.453   4.544 -30.761  1.00  0.00    -0.272 NA
HETATM   35  C   UNL     1       0.610   5.377 -30.775  1.00  0.00     0.116 A 
HETATM   36  C   UNL     1       0.543   6.679 -31.237  1.00  0.00     0.020 A 
HETATM   37  C   UNL     1      -0.678   7.151 -31.712  1.00  0.00     0.012 A 
ENDBRANCH  24  32
ENDBRANCH  21  24
ENDBRANCH   1  20
TORSDOF 7
ENDMDL
MODEL 3
REMARK VINA RESULT:      -8.3      2.042      3.793
REMARK  7 active torsions:
REMARK  status: ('A' for Active; 'I' for Inactive)
REMARK    1  A    between atoms: C_6  and  C_7 
REMARK    2  A    between atoms: N_13  and  C_15 
REMARK    3  A    between atoms: C_15  and  C_16 
REMARK    4  A    between atoms: C_16  and  N_17 
REMARK       I    between atoms: N_17  and  C_18 
REMARK    5  A    between atoms: C_18  and  C_19 
REMARK    6  A    between atoms: C_19  and  N_20 
REMARK    7  A    between atoms: C_19  and  C_27 
ROOT
HETATM    1  C   UNL     1      -6.632   5.794 -31.489  1.00  0.00     0.150 C 
ENDROOT
BRANCH   1   2
HETATM    2  C   UNL     1      -6.712   4.312 -31.921  1.00  0.00     0.255 C 
BRANCH   2   3
HETATM    3  N   UNL     1      -6.705   3.341 -30.753  1.00  0.00    -0.063 N 
HETATM    4  C   UNL     1      -5.845   2.083 -30.920  1.00  0.00     0.272 C 
HETATM    5  C   UNL     1      -6.346   1.089 -32.003  1.00  0.00     0.188 C 
HETATM    6  O   UNL     1      -7.588   0.495 -31.581  1.00  0.00    -0.339 OA
HETATM    7  C   UNL     1      -8.666   1.219 -32.006  1.00  0.00     0.077 A 
HETATM    8  C   UNL     1      -8.984   2.440 -31.403  1.00  0.00     0.001 A 
HETATM    9  C   UNL     1      -9.467   0.675 -33.005  1.00  0.00     0.037 A 
HETATM   10  C   UNL     1     -10.119   3.133 -31.848  1.00  0.00     0.012 A 
HETATM   11  C   UNL     1      -8.123   2.987 -30.305  1.00  0.00     0.276 C 
HETATM   12  C   UNL     1     -10.912   2.604 -32.869  1.00  0.00     0.001 A 
HETATM   13  C   UNL     1     -10.588   1.376 -33.445  1.00  0.00     0.003 A 
HETATM   14  H   UNL     1      -6.312   3.837 -29.943  1.00  0.00     0.280 HD
BRANCH   5  15
HETATM   15  C   UNL     1      -5.306   0.011 -32.217  1.00  0.00    -0.020 A 
HETATM   16  C   UNL     1      -4.138  -0.111 -31.484  1.00  0.00     0.059 A 
HETATM   17  S   UNL     1      -3.189  -1.453 -31.956  1.00  0.00    -0.113 SA
HETATM   18  C   UNL     1      -4.308  -1.885 -33.171  1.00  0.00     0.050 A 
HETATM   19  C   UNL     1      -5.387  -1.030 -33.205  1.00  0.00     0.017 A 
ENDBRANCH   5  15
ENDBRANCH   2   3
ENDBRANCH   1   2
BRANCH   1  20
HETATM   20  N   UNL     1      -5.281   6.364 -31.523  1.00  0.00    -0.357 N 
HETATM   21  C   UNL     1      -4.366   6.119 -30.510  1.00  0.00     0.253 C 
HETATM   22  O   UNL     1      -4.709   5.548 -29.478  1.00  0.00    -0.271 OA
HETATM   23  H   UNL     1      -4.923   6.614 -32.444  1.00  0.00     0.162 HD
BRANCH  21  24
HETATM   24  C   UNL     1      -2.910   6.660 -30.733  1.00  0.00     0.314 C 
BRANCH  24  25
HETATM   25  N   UNL     1      -1.902   6.314 -29.616  1.00  0.00    -0.050 N 
HETATM   26  H   UNL     1      -2.215   5.418 -29.222  1.00  0.00     0.281 HD
HETATM   27  C   UNL     1      -0.485   6.091 -30.143  1.00  0.00     0.262 C 
HETATM   28  C   UNL     1       0.431   5.650 -28.997  1.00  0.00     0.195 C 
HETATM   29  O   UNL     1       0.427   6.622 -27.948  1.00  0.00    -0.388 OA
HETATM   30  C   UNL     1      -0.876   6.788 -27.379  1.00  0.00     0.195 C 
HETATM   31  C   UNL     1      -1.871   7.291 -28.434  1.00  0.00     0.262 C 
ENDBRANCH  24  25
BRANCH  24  32
HETATM   32  C   UNL     1      -2.364   6.337 -32.103  1.00  0.00    -0.001 A 
HETATM   33  C   UNL     1      -1.930   7.330 -32.978  1.00  0.00     0.126 A 
HETATM   34  N   UNL     1      -1.454   7.086 -34.213  1.00  0.00    -0.272 NA
HETATM   35  C   UNL     1      -1.411   5.802 -34.626  1.00  0.00     0.116 A 
HETATM   36  C   UNL     1      -1.828   4.741 -33.843  1.00  0.00     0.020 A 
HETATM   37  C   UNL     1      -2.313   5.013 -32.566  1.00  0.00     0.012 A 
ENDBRANCH  24  32
ENDBRANCH  21  24
ENDBRANCH   1  20
TORSDOF 7
ENDMDL
MODEL 4
REMARK VINA RESULT:      -8.3      1.880      3.408
REMARK  7 active torsions:
REMARK  status: ('A' for Active; 'I' for Inactive)
REMARK    1  A    between atoms: C_6  and  C_7 
REMARK    2  A    between atoms: N_13  and  C_15 
REMARK    3  A    between atoms: C_15  and  C_16 
REMARK    4  A    between atoms: C_16  and  N_17 
REMARK       I    between atoms: N_17  and  C_18 
REMARK    5  A    between atoms: C_18  and  C_19 
REMARK    6  A    between atoms: C_19  and  N_20 
REMARK    7  A    between atoms: C_19  and  C_27 
ROOT
HETATM    1  C   UNL     1      -5.805   3.206 -29.992  1.00  0.00     0.150 C 
ENDROOT
BRANCH   1   2
HETATM    2  C   UNL     1      -6.475   2.273 -31.027  1.00  0.00     0.255 C 
BRANCH   2   3
HETATM    3  N   UNL     1      -6.763   2.952 -32.355  1.00  0.00    -0.063 N 
HETATM    4  C   UNL     1      -8.236   3.030 -32.773  1.00  0.00     0.272 C 
HETATM    5  C   UNL     1      -8.895   1.663 -33.102  1.00  0.00     0.188 C 
HETATM    6  O   UNL     1      -8.316   1.120 -34.303  1.00  0.00    -0.339 OA
HETATM    7  C   UNL     1      -7.235   0.330 -34.033  1.00  0.00     0.077 A 
HETATM    8  C   UNL     1      -6.019   0.897 -33.642  1.00  0.00     0.001 A 
HETATM    9  C   UNL     1      -7.365  -1.044 -34.222  1.00  0.00     0.037 A 
HETATM   10  C   UNL     1      -4.927   0.051 -33.407  1.00  0.00     0.012 A 
HETATM   11  C   UNL     1      -5.897   2.383 -33.480  1.00  0.00     0.276 C 
HETATM   12  C   UNL     1      -5.058  -1.330 -33.569  1.00  0.00     0.001 A 
HETATM   13  C   UNL     1      -6.275  -1.876 -33.978  1.00  0.00     0.003 A 
HETATM   14  H   UNL     1      -6.447   3.927 -32.277  1.00  0.00     0.280 HD
BRANCH   5  15
HETATM   15  C   UNL     1     -10.384   1.853 -33.288  1.00  0.00    -0.020 A 
HETATM   16  C   UNL     1     -11.030   3.078 -33.259  1.00  0.00     0.059 A 
HETATM   17  S   UNL     1     -12.713   2.952 -33.531  1.00  0.00    -0.113 SA
HETATM   18  C   UNL     1     -12.619   1.253 -33.666  1.00  0.00     0.050 A 
HETATM   19  C   UNL     1     -11.329   0.795 -33.519  1.00  0.00     0.017 A 
ENDBRANCH   5  15
ENDBRANCH   2   3
ENDBRANCH   1   2
BRANCH   1  20
HETATM   20  N   UNL     1      -4.581   3.859 -30.468  1.00  0.00    -0.357 N 
HETATM   21  C   UNL     1      -4.579   5.186 -30.872  1.00  0.00     0.253 C 
HETATM   22  O   UNL     1      -5.632   5.808 -30.992  1.00  0.00    -0.271 OA
HETATM   23  H   UNL     1      -3.703   3.452 -30.151  1.00  0.00     0.162 HD
BRANCH  21  24
HETATM   24  C   UNL     1      -3.183   5.812 -31.218  1.00  0.00     0.314 C 
BRANCH  24  25
HETATM   25  N   UNL     1      -2.857   5.898 -32.725  1.00  0.00    -0.050 N 
HETATM   26  H   UNL     1      -2.979   6.885 -32.983  1.00  0.00     0.281 HD
HETATM   27  C   UNL     1      -1.405   5.537 -33.040  1.00  0.00     0.262 C 
HETATM   28  C   UNL     1      -1.131   5.749 -34.533  1.00  0.00     0.195 C 
HETATM   29  O   UNL     1      -2.030   4.969 -35.324  1.00  0.00    -0.388 OA
HETATM   30  C   UNL     1      -3.394   5.346 -35.109  1.00  0.00     0.195 C 
HETATM   31  C   UNL     1      -3.800   5.116 -33.647  1.00  0.00     0.262 C 
ENDBRANCH  24  25
BRANCH  24  32
HETATM   32  C   UNL     1      -2.932   7.122 -30.512  1.00  0.00    -0.001 A 
HETATM   33  C   UNL     1      -3.107   8.349 -31.148  1.00  0.00     0.126 A 
HETATM   34  N   UNL     1      -2.877   9.538 -30.560  1.00  0.00    -0.272 NA
HETATM   35  C   UNL     1      -2.439   9.532 -29.283  1.00  0.00     0.116 A 
HETATM   36  C   UNL     1      -2.221   8.371 -28.564  1.00  0.00     0.020 A 
HETATM   37  C   UNL     1      -2.469   7.150 -29.188  1.00  0.00     0.012 A 
ENDBRANCH  24  32
ENDBRANCH  21  24
ENDBRANCH   1  20
TORSDOF 7
ENDMDL
MODEL 5
REMARK VINA RESULT:      -8.2      1.782      2.174
REMARK  7 active torsions:
REMARK  status: ('A' for Active; 'I' for Inactive)
REMARK    1  A    between atoms: C_6  and  C_7 
REMARK    2  A    between atoms: N_13  and  C_15 
REMARK    3  A    between atoms: C_15  and  C_16 
REMARK    4  A    between atoms: C_16  and  N_17 
REMARK       I    between atoms: N_17  and  C_18 
REMARK    5  A    between atoms: C_18  and  C_19 
REMARK    6  A    between atoms: C_19  and  N_20 
REMARK    7  A    between atoms: C_19  and  C_27 
ROOT
HETATM    1  C   UNL     1      -5.975   2.222 -29.795  1.00  0.00     0.150 C 
ENDROOT
BRANCH   1   2
HETATM    2  C   UNL     1      -6.515   1.427 -31.006  1.00  0.00     0.255 C 
BRANCH   2   3
HETATM    3  N   UNL     1      -6.662   2.266 -32.264  1.00  0.00    -0.063 N 
HETATM    4  C   UNL     1      -8.083   2.410 -32.822  1.00  0.00     0.272 C 
HETATM    5  C   UNL     1      -8.699   1.101 -33.385  1.00  0.00     0.188 C 
HETATM    6  O   UNL     1      -7.994   0.704 -34.576  1.00  0.00    -0.339 OA
HETATM    7  C   UNL     1      -6.946  -0.124 -34.293  1.00  0.00     0.077 A 
HETATM    8  C   UNL     1      -5.780   0.379 -33.708  1.00  0.00     0.001 A 
HETATM    9  C   UNL     1      -7.050  -1.463 -34.663  1.00  0.00     0.037 A 
HETATM   10  C   UNL     1      -4.716  -0.501 -33.466  1.00  0.00     0.012 A 
HETATM   11  C   UNL     1      -5.681   1.832 -33.352  1.00  0.00     0.276 C 
HETATM   12  C   UNL     1      -4.825  -1.850 -33.811  1.00  0.00     0.001 A 
HETATM   13  C   UNL     1      -5.989  -2.329 -34.410  1.00  0.00     0.003 A 
HETATM   14  H   UNL     1      -6.360   3.222 -32.032  1.00  0.00     0.280 HD
BRANCH   5  15
HETATM   15  C   UNL     1     -10.160   1.327 -33.702  1.00  0.00    -0.020 A 
HETATM   16  C   UNL     1     -10.661   2.445 -34.348  1.00  0.00     0.059 A 
HETATM   17  S   UNL     1     -12.354   2.382 -34.580  1.00  0.00    -0.113 SA
HETATM   18  C   UNL     1     -12.459   0.869 -33.796  1.00  0.00     0.050 A 
HETATM   19  C   UNL     1     -11.226   0.418 -33.379  1.00  0.00     0.017 A 
ENDBRANCH   5  15
ENDBRANCH   2   3
ENDBRANCH   1   2
BRANCH   1  20
HETATM   20  N   UNL     1      -5.107   3.349 -30.149  1.00  0.00    -0.357 N 
HETATM   21  C   UNL     1      -5.614   4.629 -30.318  1.00  0.00     0.253 C 
HETATM   22  O   UNL     1      -6.826   4.827 -30.333  1.00  0.00    -0.271 OA
HETATM   23  H   UNL     1      -4.122   3.251 -29.903  1.00  0.00     0.162 HD
BRANCH  21  24
HETATM   24  C   UNL     1      -4.567   5.774 -30.548  1.00  0.00     0.314 C 
BRANCH  24  25
HETATM   25  N   UNL     1      -3.901   6.322 -29.267  1.00  0.00    -0.050 N 
HETATM   26  H   UNL     1      -3.118   5.687 -29.064  1.00  0.00     0.281 HD
HETATM   27  C   UNL     1      -3.299   7.714 -29.460  1.00  0.00     0.262 C 
HETATM   28  C   UNL     1      -2.566   8.143 -28.184  1.00  0.00     0.195 C 
HETATM   29  O   UNL     1      -3.455   8.125 -27.065  1.00  0.00    -0.388 OA
HETATM   30  C   UNL     1      -3.968   6.813 -26.811  1.00  0.00     0.195 C 
HETATM   31  C   UNL     1      -4.779   6.303 -28.010  1.00  0.00     0.262 C 
ENDBRANCH  24  25
BRANCH  24  32
HETATM   32  C   UNL     1      -3.550   5.439 -31.613  1.00  0.00    -0.001 A 
HETATM   33  C   UNL     1      -2.270   4.991 -31.296  1.00  0.00     0.126 A 
HETATM   34  N   UNL     1      -1.329   4.700 -32.214  1.00  0.00    -0.272 NA
HETATM   35  C   UNL     1      -1.649   4.867 -33.515  1.00  0.00     0.116 A 
HETATM   36  C   UNL     1      -2.886   5.317 -33.937  1.00  0.00     0.020 A 
HETATM   37  C   UNL     1      -3.848   5.609 -32.973  1.00  0.00     0.012 A 
ENDBRANCH  24  32
ENDBRANCH  21  24
ENDBRANCH   1  20
TORSDOF 7
ENDMDL
MODEL 6
REMARK VINA RESULT:      -8.2      3.953      9.029
REMARK  7 active torsions:
REMARK  status: ('A' for Active; 'I' for Inactive)
REMARK    1  A    between atoms: C_6  and  C_7 
REMARK    2  A    between atoms: N_13  and  C_15 
REMARK    3  A    between atoms: C_15  and  C_16 
REMARK    4  A    between atoms: C_16  and  N_17 
REMARK       I    between atoms: N_17  and  C_18 
REMARK    5  A    between atoms: C_18  and  C_19 
REMARK    6  A    between atoms: C_19  and  N_20 
REMARK    7  A    between atoms: C_19  and  C_27 
ROOT
HETATM    1  C   UNL     1      -8.928   0.833 -34.427  1.00  0.00     0.150 C 
ENDROOT
BRANCH   1   2
HETATM    2  C   UNL     1      -7.779   1.796 -34.051  1.00  0.00     0.255 C 
BRANCH   2   3
HETATM    3  N   UNL     1      -7.492   1.842 -32.560  1.00  0.00    -0.063 N 
HETATM    4  C   UNL     1      -6.389   2.806 -32.110  1.00  0.00     0.272 C 
HETATM    5  C   UNL     1      -4.958   2.423 -32.576  1.00  0.00     0.188 C 
HETATM    6  O   UNL     1      -4.534   1.219 -31.908  1.00  0.00    -0.339 OA
HETATM    7  C   UNL     1      -4.869   0.102 -32.618  1.00  0.00     0.077 A 
HETATM    8  C   UNL     1      -6.196  -0.334 -32.675  1.00  0.00     0.001 A 
HETATM    9  C   UNL     1      -3.844  -0.620 -33.225  1.00  0.00     0.037 A 
HETATM   10  C   UNL     1      -6.490  -1.505 -33.387  1.00  0.00     0.012 A 
HETATM   11  C   UNL     1      -7.276   0.443 -31.983  1.00  0.00     0.276 C 
HETATM   12  C   UNL     1      -5.469  -2.219 -34.020  1.00  0.00     0.001 A 
HETATM   13  C   UNL     1      -4.149  -1.778 -33.937  1.00  0.00     0.003 A 
HETATM   14  H   UNL     1      -8.349   2.167 -32.092  1.00  0.00     0.280 HD
BRANCH   5  15
HETATM   15  C   UNL     1      -4.004   3.552 -32.254  1.00  0.00    -0.020 A 
HETATM   16  C   UNL     1      -4.233   4.526 -31.297  1.00  0.00     0.059 A 
HETATM   17  S   UNL     1      -2.946   5.644 -31.159  1.00  0.00    -0.113 SA
HETATM   18  C   UNL     1      -2.066   4.866 -32.398  1.00  0.00     0.050 A 
HETATM   19  C   UNL     1      -2.736   3.770 -32.895  1.00  0.00     0.017 A 
ENDBRANCH   5  15
ENDBRANCH   2   3
ENDBRANCH   1   2
BRANCH   1  20
HETATM   20  N   UNL     1     -10.146   1.498 -34.901  1.00  0.00    -0.357 N 
HETATM   21  C   UNL     1     -10.923   2.275 -34.056  1.00  0.00     0.253 C 
HETATM   22  O   UNL     1     -10.702   2.301 -32.847  1.00  0.00    -0.271 OA
HETATM   23  H   UNL     1     -10.196   1.680 -35.903  1.00  0.00     0.162 HD
BRANCH  21  24
HETATM   24  C   UNL     1     -12.116   3.052 -34.714  1.00  0.00     0.314 C 
BRANCH  24  25
HETATM   25  N   UNL     1     -13.455   2.973 -33.949  1.00  0.00    -0.050 N 
HETATM   26  H   UNL     1     -14.119   3.545 -34.486  1.00  0.00     0.281 HD
HETATM   27  C   UNL     1     -14.030   1.558 -33.902  1.00  0.00     0.262 C 
HETATM   28  C   UNL     1     -15.403   1.578 -33.223  1.00  0.00     0.195 C 
HETATM   29  O   UNL     1     -15.305   2.130 -31.908  1.00  0.00    -0.388 OA
HETATM   30  C   UNL     1     -14.847   3.486 -31.930  1.00  0.00     0.195 C 
HETATM   31  C   UNL     1     -13.442   3.577 -32.539  1.00  0.00     0.262 C 
ENDBRANCH  24  25
BRANCH  24  32
HETATM   32  C   UNL     1     -11.762   4.472 -35.085  1.00  0.00    -0.001 A 
HETATM   33  C   UNL     1     -10.441   4.906 -35.170  1.00  0.00     0.126 A 
HETATM   34  N   UNL     1     -10.084   6.166 -35.479  1.00  0.00    -0.272 NA
HETATM   35  C   UNL     1     -11.070   7.060 -35.705  1.00  0.00     0.116 A 
HETATM   36  C   UNL     1     -12.413   6.738 -35.635  1.00  0.00     0.020 A 
HETATM   37  C   UNL     1     -12.763   5.427 -35.318  1.00  0.00     0.012 A 
ENDBRANCH  24  32
ENDBRANCH  21  24
ENDBRANCH   1  20
TORSDOF 7
ENDMDL
MODEL 7
REMARK VINA RESULT:      -8.1      4.355      7.941
REMARK  7 active torsions:
REMARK  status: ('A' for Active; 'I' for Inactive)
REMARK    1  A    between atoms: C_6  and  C_7 
REMARK    2  A    between atoms: N_13  and  C_15 
REMARK    3  A    between atoms: C_15  and  C_16 
REMARK    4  A    between atoms: C_16  and  N_17 
REMARK       I    between atoms: N_17  and  C_18 
REMARK    5  A    between atoms: C_18  and  C_19 
REMARK    6  A    between atoms: C_19  and  N_20 
REMARK    7  A    between atoms: C_19  and  C_27 
ROOT
HETATM    1  C   UNL     1      -9.507   1.172 -32.993  1.00  0.00     0.150 C 
ENDROOT
BRANCH   1   2
HETATM    2  C   UNL     1     -10.672   0.974 -33.990  1.00  0.00     0.255 C 
BRANCH   2   3
HETATM    3  N   UNL     1     -10.871   2.151 -34.928  1.00  0.00    -0.063 N 
HETATM    4  C   UNL     1     -10.386   3.514 -34.422  1.00  0.00     0.272 C 
HETATM    5  C   UNL     1     -11.182   4.084 -33.217  1.00  0.00     0.188 C 
HETATM    6  O   UNL     1     -12.517   4.426 -33.633  1.00  0.00    -0.339 OA
HETATM    7  C   UNL     1     -13.381   3.380 -33.477  1.00  0.00     0.077 A 
HETATM    8  C   UNL     1     -13.335   2.285 -34.345  1.00  0.00     0.001 A 
HETATM    9  C   UNL     1     -14.343   3.469 -32.475  1.00  0.00     0.037 A 
HETATM   10  C   UNL     1     -14.263   1.248 -34.169  1.00  0.00     0.012 A 
HETATM   11  C   UNL     1     -12.311   2.230 -35.438  1.00  0.00     0.276 C 
HETATM   12  C   UNL     1     -15.214   1.320 -33.148  1.00  0.00     0.001 A 
HETATM   13  C   UNL     1     -15.255   2.430 -32.305  1.00  0.00     0.003 A 
HETATM   14  H   UNL     1     -10.324   1.963 -35.778  1.00  0.00     0.280 HD
BRANCH   5  15
HETATM   15  C   UNL     1     -10.478   5.312 -32.683  1.00  0.00    -0.020 A 
HETATM   16  C   UNL     1      -9.106   5.500 -32.695  1.00  0.00     0.059 A 
HETATM   17  S   UNL     1      -8.631   7.007 -32.043  1.00  0.00    -0.113 SA
HETATM   18  C   UNL     1     -10.250   7.431 -31.703  1.00  0.00     0.050 A 
HETATM   19  C   UNL     1     -11.132   6.447 -32.092  1.00  0.00     0.017 A 
ENDBRANCH   5  15
ENDBRANCH   2   3
ENDBRANCH   1   2
BRANCH   1  20
HETATM   20  N   UNL     1      -8.178   0.908 -33.553  1.00  0.00    -0.357 N 
HETATM   21  C   UNL     1      -7.251   0.125 -32.882  1.00  0.00     0.253 C 
HETATM   22  O   UNL     1      -7.457  -0.241 -31.728  1.00  0.00    -0.271 OA
HETATM   23  H   UNL     1      -8.094   0.990 -34.566  1.00  0.00     0.162 HD
BRANCH  21  24
HETATM   24  C   UNL     1      -5.924  -0.206 -33.650  1.00  0.00     0.314 C 
BRANCH  24  25
HETATM   25  N   UNL     1      -4.631   0.309 -32.980  1.00  0.00    -0.050 N 
HETATM   26  H   UNL     1      -3.874   0.120 -33.649  1.00  0.00     0.281 HD
HETATM   27  C   UNL     1      -4.645   1.819 -32.745  1.00  0.00     0.262 C 
HETATM   28  C   UNL     1      -3.293   2.267 -32.179  1.00  0.00     0.195 C 
HETATM   29  O   UNL     1      -2.999   1.568 -30.968  1.00  0.00    -0.388 OA
HETATM   30  C   UNL     1      -2.898   0.156 -31.177  1.00  0.00     0.195 C 
HETATM   31  C   UNL     1      -4.226  -0.416 -31.691  1.00  0.00     0.262 C 
ENDBRANCH  24  25
BRANCH  24  32
HETATM   32  C   UNL     1      -5.815  -1.660 -34.041  1.00  0.00    -0.001 A 
HETATM   33  C   UNL     1      -4.589  -2.318 -34.105  1.00  0.00     0.126 A 
HETATM   34  N   UNL     1      -4.446  -3.607 -34.466  1.00  0.00    -0.272 NA
HETATM   35  C   UNL     1      -5.562  -4.292 -34.797  1.00  0.00     0.116 A 
HETATM   36  C   UNL     1      -6.826  -3.732 -34.779  1.00  0.00     0.020 A 
HETATM   37  C   UNL     1      -6.953  -2.398 -34.398  1.00  0.00     0.012 A 
ENDBRANCH  24  32
ENDBRANCH  21  24
ENDBRANCH   1  20
TORSDOF 7
ENDMDL
MODEL 8
REMARK VINA RESULT:      -8.0      2.347      3.450
REMARK  7 active torsions:
REMARK  status: ('A' for Active; 'I' for Inactive)
REMARK    1  A    between atoms: C_6  and  C_7 
REMARK    2  A    between atoms: N_13  and  C_15 
REMARK    3  A    between atoms: C_15  and  C_16 
REMARK    4  A    between atoms: C_16  and  N_17 
REMARK       I    between atoms: N_17  and  C_18 
REMARK    5  A    between atoms: C_18  and  C_19 
REMARK    6  A    between atoms: C_19  and  N_20 
REMARK    7  A    between atoms: C_19  and  C_27 
ROOT
HETATM    1  C   UNL     1      -5.178   1.643 -30.324  1.00  0.00     0.150 C 
ENDROOT
BRANCH   1   2
HETATM    2  C   UNL     1      -6.500   1.299 -31.047  1.00  0.00     0.255 C 
BRANCH   2   3
HETATM    3  N   UNL     1      -6.741   2.131 -32.294  1.00  0.00    -0.063 N 
HETATM    4  C   UNL     1      -8.201   2.292 -32.732  1.00  0.00     0.272 C 
HETATM    5  C   UNL     1      -8.881   0.987 -33.230  1.00  0.00     0.188 C 
HETATM    6  O   UNL     1      -8.285   0.571 -34.472  1.00  0.00    -0.339 OA
HETATM    7  C   UNL     1      -7.229  -0.270 -34.272  1.00  0.00     0.077 A 
HETATM    8  C   UNL     1      -6.011   0.220 -33.792  1.00  0.00     0.001 A 
HETATM    9  C   UNL     1      -7.383  -1.609 -34.620  1.00  0.00     0.037 A 
HETATM   10  C   UNL     1      -4.942  -0.674 -33.632  1.00  0.00     0.012 A 
HETATM   11  C   UNL     1      -5.861   1.674 -33.457  1.00  0.00     0.276 C 
HETATM   12  C   UNL     1      -5.099  -2.024 -33.955  1.00  0.00     0.001 A 
HETATM   13  C   UNL     1      -6.316  -2.490 -34.449  1.00  0.00     0.003 A 
HETATM   14  H   UNL     1      -6.407   3.084 -32.098  1.00  0.00     0.280 HD
BRANCH   5  15
HETATM   15  C   UNL     1     -10.361   1.233 -33.425  1.00  0.00    -0.020 A 
HETATM   16  C   UNL     1     -11.327   0.240 -33.441  1.00  0.00     0.059 A 
HETATM   17  S   UNL     1     -12.910   0.852 -33.654  1.00  0.00    -0.113 SA
HETATM   18  C   UNL     1     -12.334   2.455 -33.758  1.00  0.00     0.050 A 
HETATM   19  C   UNL     1     -10.966   2.522 -33.620  1.00  0.00     0.017 A 
ENDBRANCH   5  15
ENDBRANCH   2   3
ENDBRANCH   1   2
BRANCH   1  20
HETATM   20  N   UNL     1      -4.806   3.060 -30.381  1.00  0.00    -0.357 N 
HETATM   21  C   UNL     1      -3.720   3.494 -31.126  1.00  0.00     0.253 C 
HETATM   22  O   UNL     1      -2.943   2.688 -31.632  1.00  0.00    -0.271 OA
HETATM   23  H   UNL     1      -5.551   3.727 -30.184  1.00  0.00     0.162 HD
BRANCH  21  24
HETATM   24  C   UNL     1      -3.514   5.046 -31.228  1.00  0.00     0.314 C 
BRANCH  24  25
HETATM   25  N   UNL     1      -2.322   5.495 -32.101  1.00  0.00    -0.050 N 
HETATM   26  H   UNL     1      -1.583   4.797 -31.950  1.00  0.00     0.281 HD
HETATM   27  C   UNL     1      -2.642   5.478 -33.596  1.00  0.00     0.262 C 
HETATM   28  C   UNL     1      -1.385   5.831 -34.399  1.00  0.00     0.195 C 
HETATM   29  O   UNL     1      -0.878   7.107 -34.003  1.00  0.00    -0.388 OA
HETATM   30  C   UNL     1      -0.492   7.125 -32.625  1.00  0.00     0.195 C 
HETATM   31  C   UNL     1      -1.697   6.842 -31.717  1.00  0.00     0.262 C 
ENDBRANCH  24  25
BRANCH  24  32
HETATM   32  C   UNL     1      -4.781   5.788 -31.580  1.00  0.00    -0.001 A 
HETATM   33  C   UNL     1      -5.189   6.924 -30.885  1.00  0.00     0.126 A 
HETATM   34  N   UNL     1      -6.319   7.603 -31.155  1.00  0.00    -0.272 NA
HETATM   35  C   UNL     1      -7.105   7.141 -32.151  1.00  0.00     0.116 A 
HETATM   36  C   UNL     1      -6.800   6.017 -32.895  1.00  0.00     0.020 A 
HETATM   37  C   UNL     1      -5.624   5.330 -32.604  1.00  0.00     0.012 A 
ENDBRANCH  24  32
ENDBRANCH  21  24
ENDBRANCH   1  20
TORSDOF 7
ENDMDL
MODEL 9
REMARK VINA RESULT:      -7.9      2.525      7.803
REMARK  7 active torsions:
REMARK  status: ('A' for Active; 'I' for Inactive)
REMARK    1  A    between atoms: C_6  and  C_7 
REMARK    2  A    between atoms: N_13  and  C_15 
REMARK    3  A    between atoms: C_15  and  C_16 
REMARK    4  A    between atoms: C_16  and  N_17 
REMARK       I    between atoms: N_17  and  C_18 
REMARK    5  A    between atoms: C_18  and  C_19 
REMARK    6  A    between atoms: C_19  and  N_20 
REMARK    7  A    between atoms: C_19  and  C_27 
ROOT
HETATM    1  C   UNL     1      -6.374   5.618 -28.520  1.00  0.00     0.150 C 
ENDROOT
BRANCH   1   2
HETATM    2  C   UNL     1      -4.891   6.052 -28.487  1.00  0.00     0.255 C 
BRANCH   2   3
HETATM    3  N   UNL     1      -4.591   7.246 -29.376  1.00  0.00    -0.063 N 
HETATM    4  C   UNL     1      -4.312   6.941 -30.852  1.00  0.00     0.272 C 
HETATM    5  C   UNL     1      -2.998   6.158 -31.120  1.00  0.00     0.188 C 
HETATM    6  O   UNL     1      -1.864   6.991 -30.812  1.00  0.00    -0.339 OA
HETATM    7  C   UNL     1      -1.470   6.850 -29.512  1.00  0.00     0.077 A 
HETATM    8  C   UNL     1      -2.226   7.406 -28.476  1.00  0.00     0.001 A 
HETATM    9  C   UNL     1      -0.267   6.196 -29.260  1.00  0.00     0.037 A 
HETATM   10  C   UNL     1      -1.767   7.267 -27.159  1.00  0.00     0.012 A 
HETATM   11  C   UNL     1      -3.500   8.136 -28.779  1.00  0.00     0.276 C 
HETATM   12  C   UNL     1      -0.574   6.589 -26.897  1.00  0.00     0.001 A 
HETATM   13  C   UNL     1       0.176   6.057 -27.946  1.00  0.00     0.003 A 
HETATM   14  H   UNL     1      -5.424   7.850 -29.373  1.00  0.00     0.280 HD
BRANCH   5  15
HETATM   15  C   UNL     1      -2.949   5.738 -32.573  1.00  0.00    -0.020 A 
HETATM   16  C   UNL     1      -4.033   5.758 -33.434  1.00  0.00     0.059 A 
HETATM   17  S   UNL     1      -3.638   5.247 -35.017  1.00  0.00    -0.113 SA
HETATM   18  C   UNL     1      -2.014   4.961 -34.578  1.00  0.00     0.050 A 
HETATM   19  C   UNL     1      -1.777   5.262 -33.255  1.00  0.00     0.017 A 
ENDBRANCH   5  15
ENDBRANCH   2   3
ENDBRANCH   1   2
BRANCH   1  20
HETATM   20  N   UNL     1      -6.591   4.233 -28.953  1.00  0.00    -0.357 N 
HETATM   21  C   UNL     1      -6.940   3.928 -30.259  1.00  0.00     0.253 C 
HETATM   22  O   UNL     1      -7.233   4.818 -31.055  1.00  0.00    -0.271 OA
HETATM   23  H   UNL     1      -6.129   3.513 -28.398  1.00  0.00     0.162 HD
BRANCH  21  24
HETATM   24  C   UNL     1      -6.998   2.406 -30.634  1.00  0.00     0.314 C 
BRANCH  24  25
HETATM   25  N   UNL     1      -8.000   2.041 -31.751  1.00  0.00    -0.050 N 
HETATM   26  H   UNL     1      -8.716   2.779 -31.738  1.00  0.00     0.281 HD
HETATM   27  C   UNL     1      -7.371   2.064 -33.144  1.00  0.00     0.262 C 
HETATM   28  C   UNL     1      -8.446   1.798 -34.203  1.00  0.00     0.195 C 
HETATM   29  O   UNL     1      -9.093   0.547 -33.958  1.00  0.00    -0.388 OA
HETATM   30  C   UNL     1      -9.762   0.529 -32.693  1.00  0.00     0.195 C 
HETATM   31  C   UNL     1      -8.763   0.727 -31.545  1.00  0.00     0.262 C 
ENDBRANCH  24  25
BRANCH  24  32
HETATM   32  C   UNL     1      -5.634   1.808 -30.883  1.00  0.00    -0.001 A 
HETATM   33  C   UNL     1      -5.352   0.473 -30.606  1.00  0.00     0.126 A 
HETATM   34  N   UNL     1      -4.146  -0.094 -30.796  1.00  0.00    -0.272 NA
HETATM   35  C   UNL     1      -3.154   0.687 -31.273  1.00  0.00     0.116 A 
HETATM   36  C   UNL     1      -3.324   2.027 -31.571  1.00  0.00     0.020 A 
HETATM   37  C   UNL     1      -4.580   2.595 -31.371  1.00  0.00     0.012 A 
ENDBRANCH  24  32
ENDBRANCH  21  24
ENDBRANCH   1  20
TORSDOF 7
ENDMDL
MODEL 10
REMARK VINA RESULT:      -7.7      2.603      4.806
REMARK  7 active torsions:
REMARK  status: ('A' for Active; 'I' for Inactive)
REMARK    1  A    between atoms: C_6  and  C_7 
REMARK    2  A    between atoms: N_13  and  C_15 
REMARK    3  A    between atoms: C_15  and  C_16 
REMARK    4  A    between atoms: C_16  and  N_17 
REMARK       I    between atoms: N_17  and  C_18 
REMARK    5  A    between atoms: C_18  and  C_19 
REMARK    6  A    between atoms: C_19  and  N_20 
REMARK    7  A    between atoms: C_19  and  C_27 
ROOT
HETATM    1  C   UNL     1      -3.000   3.994 -31.943  1.00  0.00     0.150 C 
ENDROOT
BRANCH   1   2
HETATM    2  C   UNL     1      -4.304   3.163 -31.962  1.00  0.00     0.255 C 
BRANCH   2   3
HETATM    3  N   UNL     1      -4.243   1.922 -31.089  1.00  0.00    -0.063 N 
HETATM    4  C   UNL     1      -4.308   0.575 -31.817  1.00  0.00     0.272 C 
HETATM    5  C   UNL     1      -5.668   0.269 -32.502  1.00  0.00     0.188 C 
HETATM    6  O   UNL     1      -6.683   0.068 -31.502  1.00  0.00    -0.339 OA
HETATM    7  C   UNL     1      -7.314   1.235 -31.179  1.00  0.00     0.077 A 
HETATM    8  C   UNL     1      -6.668   2.203 -30.404  1.00  0.00     0.001 A 
HETATM    9  C   UNL     1      -8.635   1.401 -31.589  1.00  0.00     0.037 A 
HETATM   10  C   UNL     1      -7.366   3.371 -30.069  1.00  0.00     0.012 A 
HETATM   11  C   UNL     1      -5.257   1.984 -29.947  1.00  0.00     0.276 C 
HETATM   12  C   UNL     1      -8.682   3.554 -30.499  1.00  0.00     0.001 A 
HETATM   13  C   UNL     1      -9.316   2.570 -31.256  1.00  0.00     0.003 A 
HETATM   14  H   UNL     1      -3.334   1.930 -30.606  1.00  0.00     0.280 HD
BRANCH   5  15
HETATM   15  C   UNL     1      -5.533  -0.973 -33.356  1.00  0.00    -0.020 A 
HETATM   16  C   UNL     1      -6.593  -1.637 -33.950  1.00  0.00     0.059 A 
HETATM   17  S   UNL     1      -6.102  -2.991 -34.873  1.00  0.00    -0.113 SA
HETATM   18  C   UNL     1      -4.462  -2.734 -34.475  1.00  0.00     0.050 A 
HETATM   19  C   UNL     1      -4.294  -1.632 -33.666  1.00  0.00     0.017 A 
ENDBRANCH   5  15
ENDBRANCH   2   3
ENDBRANCH   1   2
BRANCH   1  20
HETATM   20  N   UNL     1      -2.878   4.905 -30.800  1.00  0.00    -0.357 N 
HETATM   21  C   UNL     1      -2.436   6.209 -30.958  1.00  0.00     0.253 C 
HETATM   22  O   UNL     1      -1.983   6.593 -32.034  1.00  0.00    -0.271 OA
HETATM   23  H   UNL     1      -3.459   4.689 -29.991  1.00  0.00     0.162 HD
BRANCH  21  24
HETATM   24  C   UNL     1      -2.490   7.127 -29.688  1.00  0.00     0.314 C 
BRANCH  24  25
HETATM   25  N   UNL     1      -3.634   6.815 -28.699  1.00  0.00    -0.050 N 
HETATM   26  H   UNL     1      -3.480   5.847 -28.388  1.00  0.00     0.281 HD
HETATM   27  C   UNL     1      -3.592   7.690 -27.446  1.00  0.00     0.262 C 
HETATM   28  C   UNL     1      -4.688   7.250 -26.470  1.00  0.00     0.195 C 
HETATM   29  O   UNL     1      -5.972   7.318 -27.093  1.00  0.00    -0.388 OA
HETATM   30  C   UNL     1      -6.065   6.442 -28.222  1.00  0.00     0.195 C 
HETATM   31  C   UNL     1      -5.044   6.832 -29.300  1.00  0.00     0.262 C 
ENDBRANCH  24  25
BRANCH  24  32
HETATM   32  C   UNL     1      -1.157   7.246 -28.988  1.00  0.00    -0.001 A 
HETATM   33  C   UNL     1      -0.458   6.129 -28.536  1.00  0.00     0.126 A 
HETATM   34  N   UNL     1       0.722   6.192 -27.893  1.00  0.00    -0.272 NA
HETATM   35  C   UNL     1       1.247   7.415 -27.664  1.00  0.00     0.116 A 
HETATM   36  C   UNL     1       0.631   8.588 -28.060  1.00  0.00     0.020 A 
HETATM   37  C   UNL     1      -0.588   8.502 -28.729  1.00  0.00     0.012 A 
ENDBRANCH  24  32
ENDBRANCH  21  24
ENDBRANCH   1  20
TORSDOF 7
ENDMDL
