MODEL 1
REMARK VINA RESULT:      -9.2      0.000      0.000
REMARK  5 active torsions:
REMARK  status: ('A' for Active; 'I' for Inactive)
REMARK    1  A    between atoms: C_5  and  N_6 
REMARK       I    between atoms: N_6  and  C_7 
REMARK       I    between atoms: C_7  and  N_8 
REMARK    2  A    between atoms: N_8  and  C_9 
REMARK    3  A    between atoms: C_12  and  C_13 
REMARK    4  A    between atoms: C_13  and  C_14 
REMARK       I    between atoms: C_14  and  N_15 
REMARK    5  A    between atoms: N_15  and  C_16 
ROOT
HETATM    1  C   UNL     1      -3.873   2.932 -32.155  1.00  0.00     0.174 A 
HETATM    2  S   UNL     1      -2.614   4.024 -32.493  1.00  0.00    -0.062 SA
HETATM    3  C   UNL     1      -3.759   5.091 -33.200  1.00  0.00     0.081 A 
HETATM    4  C   UNL     1      -5.027   4.542 -33.132  1.00  0.00     0.052 A 
HETATM    5  N   UNL     1      -5.079   3.283 -32.534  1.00  0.00    -0.228 NA
ENDROOT
BRANCH   1   6
HETATM    6  N   UNL     1      -3.502   1.799 -31.498  1.00  0.00    -0.287 N 
HETATM    7  C   UNL     1      -3.836   0.517 -31.843  1.00  0.00     0.326 C 
HETATM    8  N   UNL     1      -4.493   0.354 -33.034  1.00  0.00    -0.309 N 
HETATM    9  O   UNL     1      -3.526  -0.380 -31.061  1.00  0.00    -0.247 OA
HETATM   10  H   UNL     1      -4.526   1.183 -33.619  1.00  0.00     0.170 HD
HETATM   11  H   UNL     1      -2.998   1.895 -30.629  1.00  0.00     0.172 HD
BRANCH   8  12
HETATM   12  C   UNL     1      -5.047  -0.820 -33.578  1.00  0.00     0.036 A 
HETATM   13  C   UNL     1      -6.396  -0.971 -33.894  1.00  0.00     0.030 A 
HETATM   14  C   UNL     1      -6.863  -2.166 -34.456  1.00  0.00     0.009 A 
HETATM   15  C   UNL     1      -5.986  -3.223 -34.718  1.00  0.00    -0.062 A 
HETATM   16  C   UNL     1      -6.505  -4.510 -35.289  1.00  0.00     0.048 C 
HETATM   17  C   UNL     1      -4.635  -3.074 -34.395  1.00  0.00     0.009 A 
HETATM   18  C   UNL     1      -4.169  -1.881 -33.834  1.00  0.00     0.030 A 
ENDBRANCH   8  12
ENDBRANCH   1   6
BRANCH   4  19
HETATM   19  C   UNL     1      -6.301   5.150 -33.631  1.00  0.00     0.163 C 
BRANCH  19  20
HETATM   20  C   UNL     1      -7.565   4.416 -33.194  1.00  0.00     0.227 C 
HETATM   21  N   UNL     1      -7.726   3.157 -33.743  1.00  0.00    -0.327 N 
HETATM   22  H   UNL     1      -6.927   2.798 -34.264  1.00  0.00     0.169 HD
HETATM   23  O   UNL     1      -8.377   4.985 -32.465  1.00  0.00    -0.273 OA
BRANCH  21  24
HETATM   24  C   UNL     1      -8.829   2.289 -33.632  1.00  0.00     0.036 A 
HETATM   25  C   UNL     1      -9.977   2.376 -34.424  1.00  0.00     0.056 A 
HETATM   26  C   UNL     1     -11.011   1.447 -34.263  1.00  0.00     0.074 A 
HETATM   27 CL   UNL     1     -12.412   1.559 -35.258  1.00  0.00    -0.081 Cl
HETATM   28  C   UNL     1     -10.903   0.438 -33.310  1.00  0.00     0.138 A 
HETATM   29  F   UNL     1     -11.883  -0.461 -33.145  1.00  0.00    -0.204 F 
HETATM   30  C   UNL     1      -9.769   0.344 -32.512  1.00  0.00     0.046 A 
HETATM   31  C   UNL     1      -8.735   1.268 -32.674  1.00  0.00     0.032 A 
ENDBRANCH  21  24
ENDBRANCH  19  20
ENDBRANCH   4  19
TORSDOF 5
ENDMDL
MODEL 2
REMARK VINA RESULT:      -9.2      4.982      7.109
REMARK  5 active torsions:
REMARK  status: ('A' for Active; 'I' for Inactive)
REMARK    1  A    between atoms: C_5  and  N_6 
REMARK       I    between atoms: N_6  and  C_7 
REMARK       I    between atoms: C_7  and  N_8 
REMARK    2  A    between atoms: N_8  and  C_9 
REMARK    3  A    between atoms: C_12  and  C_13 
REMARK    4  A    between atoms: C_13  and  C_14 
REMARK       I    between atoms: C_14  and  N_15 
REMARK    5  A    between atoms: N_15  and  C_16 
ROOT
HETATM    1  C   UNL     1      -5.574   3.337 -32.332  1.00  0.00     0.174 A 
HETATM    2  S   UNL     1      -6.984   4.225 -32.670  1.00  0.00    -0.062 SA
HETATM    3  C   UNL     1      -6.094   5.165 -33.799  1.00  0.00     0.081 A 
HETATM    4  C   UNL     1      -4.779   4.737 -33.842  1.00  0.00     0.052 A 
HETATM    5  N   UNL     1      -4.486   3.683 -32.977  1.00  0.00    -0.228 NA
ENDROOT
BRANCH   1   6
HETATM    6  N   UNL     1      -5.723   2.327 -31.430  1.00  0.00    -0.287 N 
HETATM    7  C   UNL     1      -5.773   0.989 -31.713  1.00  0.00     0.326 C 
HETATM    8  N   UNL     1      -5.515   0.627 -33.009  1.00  0.00    -0.309 N 
HETATM    9  O   UNL     1      -6.045   0.223 -30.790  1.00  0.00    -0.247 OA
HETATM   10  H   UNL     1      -5.157   1.373 -33.596  1.00  0.00     0.170 HD
HETATM   11  H   UNL     1      -5.892   2.571 -30.465  1.00  0.00     0.172 HD
BRANCH   8  12
HETATM   12  C   UNL     1      -5.605  -0.648 -33.599  1.00  0.00     0.036 A 
HETATM   13  C   UNL     1      -4.518  -1.503 -33.774  1.00  0.00     0.030 A 
HETATM   14  C   UNL     1      -4.697  -2.768 -34.347  1.00  0.00     0.009 A 
HETATM   15  C   UNL     1      -5.966  -3.200 -34.745  1.00  0.00    -0.062 A 
HETATM   16  C   UNL     1      -6.139  -4.543 -35.389  1.00  0.00     0.048 C 
HETATM   17  C   UNL     1      -7.055  -2.340 -34.576  1.00  0.00     0.009 A 
HETATM   18  C   UNL     1      -6.875  -1.076 -34.003  1.00  0.00     0.030 A 
ENDBRANCH   8  12
ENDBRANCH   1   6
BRANCH   4  19
HETATM   19  C   UNL     1      -3.680   5.289 -34.696  1.00  0.00     0.163 C 
BRANCH  19  20
HETATM   20  C   UNL     1      -2.650   6.122 -33.938  1.00  0.00     0.227 C 
HETATM   21  N   UNL     1      -2.320   5.640 -32.684  1.00  0.00    -0.327 N 
HETATM   22  H   UNL     1      -2.685   4.717 -32.457  1.00  0.00     0.169 HD
HETATM   23  O   UNL     1      -2.239   7.173 -34.428  1.00  0.00    -0.273 OA
BRANCH  21  24
HETATM   24  C   UNL     1      -1.502   6.237 -31.706  1.00  0.00     0.036 A 
HETATM   25  C   UNL     1      -1.924   7.258 -30.849  1.00  0.00     0.056 A 
HETATM   26  C   UNL     1      -1.049   7.768 -29.884  1.00  0.00     0.074 A 
HETATM   27 CL   UNL     1      -1.590   9.015 -28.827  1.00  0.00    -0.081 Cl
HETATM   28  C   UNL     1       0.245   7.266 -29.778  1.00  0.00     0.138 A 
HETATM   29  F   UNL     1       1.094   7.743 -28.857  1.00  0.00    -0.204 F 
HETATM   30  C   UNL     1       0.679   6.256 -30.626  1.00  0.00     0.046 A 
HETATM   31  C   UNL     1      -0.194   5.743 -31.589  1.00  0.00     0.032 A 
ENDBRANCH  21  24
ENDBRANCH  19  20
ENDBRANCH   4  19
TORSDOF 5
ENDMDL
MODEL 3
REMARK VINA RESULT:      -8.9      4.463      8.246
REMARK  5 active torsions:
REMARK  status: ('A' for Active; 'I' for Inactive)
REMARK    1  A    between atoms: C_5  and  N_6 
REMARK       I    between atoms: N_6  and  C_7 
REMARK       I    between atoms: C_7  and  N_8 
REMARK    2  A    between atoms: N_8  and  C_9 
REMARK    3  A    between atoms: C_12  and  C_13 
REMARK    4  A    between atoms: C_13  and  C_14 
REMARK       I    between atoms: C_14  and  N_15 
REMARK    5  A    between atoms: N_15  and  C_16 
ROOT
HETATM    1  C   UNL     1      -3.389   5.136 -33.228  1.00  0.00     0.174 A 
HETATM    2  S   UNL     1      -5.017   4.962 -33.687  1.00  0.00    -0.062 SA
HETATM    3  C   UNL     1      -5.042   3.420 -32.932  1.00  0.00     0.081 A 
HETATM    4  C   UNL     1      -3.804   3.140 -32.380  1.00  0.00     0.052 A 
HETATM    5  N   UNL     1      -2.849   4.138 -32.568  1.00  0.00    -0.228 NA
ENDROOT
BRANCH   1   6
HETATM    6  N   UNL     1      -2.807   6.317 -33.576  1.00  0.00    -0.287 N 
HETATM    7  C   UNL     1      -2.072   7.131 -32.756  1.00  0.00     0.326 C 
HETATM    8  N   UNL     1      -1.785   6.644 -31.508  1.00  0.00    -0.309 N 
HETATM    9  O   UNL     1      -1.734   8.226 -33.200  1.00  0.00    -0.247 OA
HETATM   10  H   UNL     1      -2.010   5.664 -31.371  1.00  0.00     0.170 HD
HETATM   11  H   UNL     1      -2.987   6.683 -34.500  1.00  0.00     0.172 HD
BRANCH   8  12
HETATM   12  C   UNL     1      -1.152   7.299 -30.435  1.00  0.00     0.036 A 
HETATM   13  C   UNL     1      -1.753   8.294 -29.666  1.00  0.00     0.030 A 
HETATM   14  C   UNL     1      -1.062   8.879 -28.598  1.00  0.00     0.009 A 
HETATM   15  C   UNL     1       0.237   8.471 -28.278  1.00  0.00    -0.062 A 
HETATM   16  C   UNL     1       0.979   9.130 -27.154  1.00  0.00     0.048 C 
HETATM   17  C   UNL     1       0.842   7.478 -29.054  1.00  0.00     0.009 A 
HETATM   18  C   UNL     1       0.151   6.895 -30.120  1.00  0.00     0.030 A 
ENDBRANCH   8  12
ENDBRANCH   1   6
BRANCH   4  19
HETATM   19  C   UNL     1      -3.409   1.904 -31.633  1.00  0.00     0.163 C 
BRANCH  19  20
HETATM   20  C   UNL     1      -4.303   0.695 -31.895  1.00  0.00     0.227 C 
HETATM   21  N   UNL     1      -4.038   0.020 -33.073  1.00  0.00    -0.327 N 
HETATM   22  H   UNL     1      -3.195   0.310 -33.567  1.00  0.00     0.169 HD
HETATM   23  O   UNL     1      -5.220   0.437 -31.117  1.00  0.00    -0.273 OA
BRANCH  21  24
HETATM   24  C   UNL     1      -4.752  -1.048 -33.649  1.00  0.00     0.036 A 
HETATM   25  C   UNL     1      -4.289  -2.366 -33.693  1.00  0.00     0.056 A 
HETATM   26  C   UNL     1      -5.085  -3.368 -34.258  1.00  0.00     0.074 A 
HETATM   27 CL   UNL     1      -4.506  -4.990 -34.292  1.00  0.00    -0.081 Cl
HETATM   28  C   UNL     1      -6.336  -3.056 -34.783  1.00  0.00     0.138 A 
HETATM   29  F   UNL     1      -7.111  -4.007 -35.325  1.00  0.00    -0.204 F 
HETATM   30  C   UNL     1      -6.806  -1.750 -34.749  1.00  0.00     0.046 A 
HETATM   31  C   UNL     1      -6.014  -0.748 -34.184  1.00  0.00     0.032 A 
ENDBRANCH  21  24
ENDBRANCH  19  20
ENDBRANCH   4  19
TORSDOF 5
ENDMDL
MODEL 4
REMARK VINA RESULT:      -8.8      5.526      7.630
REMARK  5 active torsions:
REMARK  status: ('A' for Active; 'I' for Inactive)
REMARK    1  A    between atoms: C_5  and  N_6 
REMARK       I    between atoms: N_6  and  C_7 
REMARK       I    between atoms: C_7  and  N_8 
REMARK    2  A    between atoms: N_8  and  C_9 
REMARK    3  A    between atoms: C_12  and  C_13 
REMARK    4  A    between atoms: C_13  and  C_14 
REMARK       I    between atoms: C_14  and  N_15 
REMARK    5  A    between atoms: N_15  and  C_16 
ROOT
HETATM    1  C   UNL     1      -4.859   3.599 -32.656  1.00  0.00     0.174 A 
HETATM    2  S   UNL     1      -5.755   4.484 -33.799  1.00  0.00    -0.062 SA
HETATM    3  C   UNL     1      -4.291   5.161 -34.389  1.00  0.00     0.081 A 
HETATM    4  C   UNL     1      -3.215   4.667 -33.673  1.00  0.00     0.052 A 
HETATM    5  N   UNL     1      -3.558   3.770 -32.662  1.00  0.00    -0.228 NA
ENDROOT
BRANCH   1   6
HETATM    6  N   UNL     1      -5.588   2.775 -31.854  1.00  0.00    -0.287 N 
HETATM    7  C   UNL     1      -5.844   1.448 -32.075  1.00  0.00     0.326 C 
HETATM    8  N   UNL     1      -5.195   0.867 -33.132  1.00  0.00    -0.309 N 
HETATM    9  O   UNL     1      -6.633   0.889 -31.315  1.00  0.00    -0.247 OA
HETATM   10  H   UNL     1      -4.466   1.437 -33.549  1.00  0.00     0.170 HD
HETATM   11  H   UNL     1      -6.057   3.179 -31.056  1.00  0.00     0.172 HD
BRANCH   8  12
HETATM   12  C   UNL     1      -5.351  -0.432 -33.650  1.00  0.00     0.036 A 
HETATM   13  C   UNL     1      -4.358  -1.410 -33.614  1.00  0.00     0.030 A 
HETATM   14  C   UNL     1      -4.603  -2.688 -34.130  1.00  0.00     0.009 A 
HETATM   15  C   UNL     1      -5.848  -3.011 -34.681  1.00  0.00    -0.062 A 
HETATM   16  C   UNL     1      -6.085  -4.373 -35.262  1.00  0.00     0.048 C 
HETATM   17  C   UNL     1      -6.840  -2.028 -34.724  1.00  0.00     0.009 A 
HETATM   18  C   UNL     1      -6.595  -0.752 -34.208  1.00  0.00     0.030 A 
ENDBRANCH   8  12
ENDBRANCH   1   6
BRANCH   4  19
HETATM   19  C   UNL     1      -1.770   5.002 -33.873  1.00  0.00     0.163 C 
BRANCH  19  20
HETATM   20  C   UNL     1      -1.266   6.159 -33.016  1.00  0.00     0.227 C 
HETATM   21  N   UNL     1      -1.574   6.065 -31.671  1.00  0.00    -0.327 N 
HETATM   22  H   UNL     1      -1.976   5.178 -31.372  1.00  0.00     0.169 HD
HETATM   23  O   UNL     1      -0.700   7.111 -33.552  1.00  0.00    -0.273 OA
BRANCH  21  24
HETATM   24  C   UNL     1      -1.356   7.015 -30.655  1.00  0.00     0.036 A 
HETATM   25  C   UNL     1      -0.194   7.082 -29.881  1.00  0.00     0.056 A 
HETATM   26  C   UNL     1      -0.054   8.082 -28.914  1.00  0.00     0.074 A 
HETATM   27 CL   UNL     1       1.391   8.159 -27.979  1.00  0.00    -0.081 Cl
HETATM   28  C   UNL     1      -1.072   9.011 -28.715  1.00  0.00     0.138 A 
HETATM   29  F   UNL     1      -0.951   9.978 -27.794  1.00  0.00    -0.204 F 
HETATM   30  C   UNL     1      -2.234   8.953 -29.474  1.00  0.00     0.046 A 
HETATM   31  C   UNL     1      -2.375   7.956 -30.441  1.00  0.00     0.032 A 
ENDBRANCH  21  24
ENDBRANCH  19  20
ENDBRANCH   4  19
TORSDOF 5
ENDMDL
MODEL 5
REMARK VINA RESULT:      -8.3      4.060      5.732
REMARK  5 active torsions:
REMARK  status: ('A' for Active; 'I' for Inactive)
REMARK    1  A    between atoms: C_5  and  N_6 
REMARK       I    between atoms: N_6  and  C_7 
REMARK       I    between atoms: C_7  and  N_8 
REMARK    2  A    between atoms: N_8  and  C_9 
REMARK    3  A    between atoms: C_12  and  C_13 
REMARK    4  A    between atoms: C_13  and  C_14 
REMARK       I    between atoms: C_14  and  N_15 
REMARK    5  A    between atoms: N_15  and  C_16 
ROOT
HETATM    1  C   UNL     1     -11.113   2.523 -33.880  1.00  0.00     0.174 A 
HETATM    2  S   UNL     1     -12.207   2.776 -35.157  1.00  0.00    -0.062 SA
HETATM    3  C   UNL     1     -11.478   4.303 -35.450  1.00  0.00     0.081 A 
HETATM    4  C   UNL     1     -10.447   4.518 -34.552  1.00  0.00     0.052 A 
HETATM    5  N   UNL     1     -10.252   3.483 -33.638  1.00  0.00    -0.228 NA
ENDROOT
BRANCH   1   6
HETATM    6  N   UNL     1     -11.227   1.325 -33.243  1.00  0.00    -0.287 N 
HETATM    7  C   UNL     1     -10.248   0.375 -33.123  1.00  0.00     0.326 C 
HETATM    8  N   UNL     1      -9.000   0.722 -33.571  1.00  0.00    -0.309 N 
HETATM    9  O   UNL     1     -10.564  -0.706 -32.631  1.00  0.00    -0.247 OA
HETATM   10  H   UNL     1      -8.888   1.704 -33.801  1.00  0.00     0.170 HD
HETATM   11  H   UNL     1     -12.133   1.059 -32.886  1.00  0.00     0.172 HD
BRANCH   8  12
HETATM   12  C   UNL     1      -7.849  -0.082 -33.672  1.00  0.00     0.036 A 
HETATM   13  C   UNL     1      -7.448  -0.724 -34.842  1.00  0.00     0.030 A 
HETATM   14  C   UNL     1      -6.274  -1.487 -34.864  1.00  0.00     0.009 A 
HETATM   15  C   UNL     1      -5.479  -1.611 -33.720  1.00  0.00    -0.062 A 
HETATM   16  C   UNL     1      -4.243  -2.459 -33.749  1.00  0.00     0.048 C 
HETATM   17  C   UNL     1      -5.886  -0.973 -32.545  1.00  0.00     0.009 A 
HETATM   18  C   UNL     1      -7.059  -0.211 -32.523  1.00  0.00     0.030 A 
ENDBRANCH   8  12
ENDBRANCH   1   6
BRANCH   4  19
HETATM   19  C   UNL     1      -9.559   5.721 -34.470  1.00  0.00     0.163 C 
BRANCH  19  20
HETATM   20  C   UNL     1      -8.349   5.552 -33.557  1.00  0.00     0.227 C 
HETATM   21  N   UNL     1      -7.434   4.602 -33.973  1.00  0.00    -0.327 N 
HETATM   22  H   UNL     1      -7.589   4.219 -34.905  1.00  0.00     0.169 HD
HETATM   23  O   UNL     1      -8.287   6.188 -32.506  1.00  0.00    -0.273 OA
BRANCH  21  24
HETATM   24  C   UNL     1      -6.290   4.135 -33.298  1.00  0.00     0.036 A 
HETATM   25  C   UNL     1      -4.979   4.403 -33.701  1.00  0.00     0.056 A 
HETATM   26  C   UNL     1      -3.903   3.921 -32.948  1.00  0.00     0.074 A 
HETATM   27 CL   UNL     1      -2.294   4.273 -33.450  1.00  0.00    -0.081 Cl
HETATM   28  C   UNL     1      -4.134   3.170 -31.798  1.00  0.00     0.138 A 
HETATM   29  F   UNL     1      -3.113   2.705 -31.064  1.00  0.00    -0.204 F 
HETATM   30  C   UNL     1      -5.432   2.892 -31.390  1.00  0.00     0.046 A 
HETATM   31  C   UNL     1      -6.507   3.373 -32.139  1.00  0.00     0.032 A 
ENDBRANCH  21  24
ENDBRANCH  19  20
ENDBRANCH   4  19
TORSDOF 5
ENDMDL
MODEL 6
REMARK VINA RESULT:      -8.3      2.704      5.921
REMARK  5 active torsions:
REMARK  status: ('A' for Active; 'I' for Inactive)
REMARK    1  A    between atoms: C_5  and  N_6 
REMARK       I    between atoms: N_6  and  C_7 
REMARK       I    between atoms: C_7  and  N_8 
REMARK    2  A    between atoms: N_8  and  C_9 
REMARK    3  A    between atoms: C_12  and  C_13 
REMARK    4  A    between atoms: C_13  and  C_14 
REMARK       I    between atoms: C_14  and  N_15 
REMARK    5  A    between atoms: N_15  and  C_16 
ROOT
HETATM    1  C   UNL     1      -6.160   4.808 -32.505  1.00  0.00     0.174 A 
HETATM    2  S   UNL     1      -6.006   5.761 -31.106  1.00  0.00    -0.062 SA
HETATM    3  C   UNL     1      -4.847   4.647 -30.502  1.00  0.00     0.081 A 
HETATM    4  C   UNL     1      -4.656   3.620 -31.409  1.00  0.00     0.052 A 
HETATM    5  N   UNL     1      -5.432   3.718 -32.564  1.00  0.00    -0.228 NA
ENDROOT
BRANCH   1   6
HETATM    6  N   UNL     1      -7.019   5.289 -33.447  1.00  0.00    -0.287 N 
HETATM    7  C   UNL     1      -8.236   4.757 -33.780  1.00  0.00     0.326 C 
HETATM    8  N   UNL     1      -8.688   3.726 -33.000  1.00  0.00    -0.309 N 
HETATM    9  O   UNL     1      -8.820   5.242 -34.747  1.00  0.00    -0.247 OA
HETATM   10  H   UNL     1      -8.149   3.563 -32.155  1.00  0.00     0.170 HD
HETATM   11  H   UNL     1      -6.714   6.063 -34.019  1.00  0.00     0.172 HD
BRANCH   8  12
HETATM   12  C   UNL     1      -9.836   2.931 -33.176  1.00  0.00     0.036 A 
HETATM   13  C   UNL     1     -11.139   3.391 -32.995  1.00  0.00     0.030 A 
HETATM   14  C   UNL     1     -12.228   2.541 -33.216  1.00  0.00     0.009 A 
HETATM   15  C   UNL     1     -12.032   1.219 -33.631  1.00  0.00    -0.062 A 
HETATM   16  C   UNL     1     -13.207   0.309 -33.830  1.00  0.00     0.048 C 
HETATM   17  C   UNL     1     -10.725   0.755 -33.806  1.00  0.00     0.009 A 
HETATM   18  C   UNL     1      -9.637   1.606 -33.585  1.00  0.00     0.030 A 
ENDBRANCH   8  12
ENDBRANCH   1   6
BRANCH   4  19
HETATM   19  C   UNL     1      -3.731   2.452 -31.266  1.00  0.00     0.163 C 
BRANCH  19  20
HETATM   20  C   UNL     1      -4.380   1.097 -31.531  1.00  0.00     0.227 C 
HETATM   21  N   UNL     1      -4.346   0.684 -32.851  1.00  0.00    -0.327 N 
HETATM   22  H   UNL     1      -3.776   1.252 -33.477  1.00  0.00     0.169 HD
HETATM   23  O   UNL     1      -4.939   0.500 -30.613  1.00  0.00    -0.273 OA
BRANCH  21  24
HETATM   24  C   UNL     1      -4.954  -0.447 -33.429  1.00  0.00     0.036 A 
HETATM   25  C   UNL     1      -4.328  -1.689 -33.567  1.00  0.00     0.056 A 
HETATM   26  C   UNL     1      -5.024  -2.765 -34.126  1.00  0.00     0.074 A 
HETATM   27 CL   UNL     1      -4.243  -4.293 -34.274  1.00  0.00    -0.081 Cl
HETATM   28  C   UNL     1      -6.339  -2.603 -34.553  1.00  0.00     0.138 A 
HETATM   29  F   UNL     1      -7.020  -3.626 -35.089  1.00  0.00    -0.204 F 
HETATM   30  C   UNL     1      -6.972  -1.373 -34.427  1.00  0.00     0.046 A 
HETATM   31  C   UNL     1      -6.279  -0.297 -33.867  1.00  0.00     0.032 A 
ENDBRANCH  21  24
ENDBRANCH  19  20
ENDBRANCH   4  19
TORSDOF 5
ENDMDL
MODEL 7
REMARK VINA RESULT:      -8.0      4.408      6.305
REMARK  5 active torsions:
REMARK  status: ('A' for Active; 'I' for Inactive)
REMARK    1  A    between atoms: C_5  and  N_6 
REMARK       I    between atoms: N_6  and  C_7 
REMARK       I    between atoms: C_7  and  N_8 
REMARK    2  A    between atoms: N_8  and  C_9 
REMARK    3  A    between atoms: C_12  and  C_13 
REMARK    4  A    between atoms: C_13  and  C_14 
REMARK       I    between atoms: C_14  and  N_15 
REMARK    5  A    between atoms: N_15  and  C_16 
ROOT
HETATM    1  C   UNL     1      -9.762   3.130 -32.033  1.00  0.00     0.174 A 
HETATM    2  S   UNL     1     -10.425   4.173 -33.202  1.00  0.00    -0.062 SA
HETATM    3  C   UNL     1      -9.415   5.433 -32.616  1.00  0.00     0.081 A 
HETATM    4  C   UNL     1      -8.640   4.973 -31.566  1.00  0.00     0.052 A 
HETATM    5  N   UNL     1      -8.858   3.638 -31.229  1.00  0.00    -0.228 NA
ENDROOT
BRANCH   1   6
HETATM    6  N   UNL     1     -10.226   1.850 -32.063  1.00  0.00    -0.287 N 
HETATM    7  C   UNL     1      -9.507   0.736 -32.407  1.00  0.00     0.326 C 
HETATM    8  N   UNL     1      -8.164   0.913 -32.610  1.00  0.00    -0.309 N 
HETATM    9  O   UNL     1     -10.120  -0.325 -32.509  1.00  0.00    -0.247 OA
HETATM   10  H   UNL     1      -7.807   1.820 -32.330  1.00  0.00     0.170 HD
HETATM   11  H   UNL     1     -11.209   1.695 -31.895  1.00  0.00     0.172 HD
BRANCH   8  12
HETATM   12  C   UNL     1      -7.217  -0.020 -33.073  1.00  0.00     0.036 A 
HETATM   13  C   UNL     1      -6.069  -0.380 -32.368  1.00  0.00     0.030 A 
HETATM   14  C   UNL     1      -5.189  -1.336 -32.888  1.00  0.00     0.009 A 
HETATM   15  C   UNL     1      -5.448  -1.954 -34.116  1.00  0.00    -0.062 A 
HETATM   16  C   UNL     1      -4.479  -2.951 -34.678  1.00  0.00     0.048 C 
HETATM   17  C   UNL     1      -6.595  -1.588 -34.826  1.00  0.00     0.009 A 
HETATM   18  C   UNL     1      -7.474  -0.632 -34.305  1.00  0.00     0.030 A 
ENDBRANCH   8  12
ENDBRANCH   1   6
BRANCH   4  19
HETATM   19  C   UNL     1      -7.630   5.753 -30.783  1.00  0.00     0.163 C 
BRANCH  19  20
HETATM   20  C   UNL     1      -6.183   5.510 -31.198  1.00  0.00     0.227 C 
HETATM   21  N   UNL     1      -5.809   6.113 -32.386  1.00  0.00    -0.327 N 
HETATM   22  H   UNL     1      -6.486   6.763 -32.782  1.00  0.00     0.169 HD
HETATM   23  O   UNL     1      -5.474   4.763 -30.525  1.00  0.00    -0.273 OA
BRANCH  21  24
HETATM   24  C   UNL     1      -4.595   5.984 -33.088  1.00  0.00     0.036 A 
HETATM   25  C   UNL     1      -3.377   6.510 -32.651  1.00  0.00     0.056 A 
HETATM   26  C   UNL     1      -2.215   6.304 -33.401  1.00  0.00     0.074 A 
HETATM   27 CL   UNL     1      -0.720   6.947 -32.840  1.00  0.00    -0.081 Cl
HETATM   28  C   UNL     1      -2.269   5.578 -34.589  1.00  0.00     0.138 A 
HETATM   29  F   UNL     1      -1.163   5.369 -35.318  1.00  0.00    -0.204 F 
HETATM   30  C   UNL     1      -3.474   5.053 -35.038  1.00  0.00     0.046 A 
HETATM   31  C   UNL     1      -4.635   5.257 -34.288  1.00  0.00     0.032 A 
ENDBRANCH  21  24
ENDBRANCH  19  20
ENDBRANCH   4  19
TORSDOF 5
ENDMDL
MODEL 8
REMARK VINA RESULT:      -7.9     15.472     17.066
REMARK  5 active torsions:
REMARK  status: ('A' for Active; 'I' for Inactive)
REMARK    1  A    between atoms: C_5  and  N_6 
REMARK       I    between atoms: N_6  and  C_7 
REMARK       I    between atoms: C_7  and  N_8 
REMARK    2  A    between atoms: N_8  and  C_9 
REMARK    3  A    between atoms: C_12  and  C_13 
REMARK    4  A    between atoms: C_13  and  C_14 
REMARK       I    between atoms: C_14  and  N_15 
REMARK    5  A    between atoms: N_15  and  C_16 
ROOT
HETATM    1  C   UNL     1      -4.216 -14.656 -34.833  1.00  0.00     0.174 A 
HETATM    2  S   UNL     1      -3.684 -16.187 -34.319  1.00  0.00    -0.062 SA
HETATM    3  C   UNL     1      -2.242 -15.965 -35.224  1.00  0.00     0.081 A 
HETATM    4  C   UNL     1      -2.262 -14.736 -35.859  1.00  0.00     0.052 A 
HETATM    5  N   UNL     1      -3.419 -13.990 -35.635  1.00  0.00    -0.228 NA
ENDROOT
BRANCH   1   6
HETATM    6  N   UNL     1      -5.422 -14.260 -34.338  1.00  0.00    -0.287 N 
HETATM    7  C   UNL     1      -6.542 -13.969 -35.070  1.00  0.00     0.326 C 
HETATM    8  N   UNL     1      -6.480 -14.230 -36.414  1.00  0.00    -0.309 N 
HETATM    9  O   UNL     1      -7.505 -13.498 -34.470  1.00  0.00    -0.247 OA
HETATM   10  H   UNL     1      -5.667 -14.761 -36.708  1.00  0.00     0.170 HD
HETATM   11  H   UNL     1      -5.495 -14.084 -33.347  1.00  0.00     0.172 HD
BRANCH   8  12
HETATM   12  C   UNL     1      -7.428 -13.931 -37.410  1.00  0.00     0.036 A 
HETATM   13  C   UNL     1      -8.360 -14.846 -37.899  1.00  0.00     0.030 A 
HETATM   14  C   UNL     1      -9.287 -14.460 -38.874  1.00  0.00     0.009 A 
HETATM   15  C   UNL     1      -9.304 -13.152 -39.368  1.00  0.00    -0.062 A 
HETATM   16  C   UNL     1     -10.280 -12.761 -40.438  1.00  0.00     0.048 C 
HETATM   17  C   UNL     1      -8.365 -12.237 -38.883  1.00  0.00     0.009 A 
HETATM   18  C   UNL     1      -7.439 -12.623 -37.909  1.00  0.00     0.030 A 
ENDBRANCH   8  12
ENDBRANCH   1   6
BRANCH   4  19
HETATM   19  C   UNL     1      -1.199 -14.159 -36.740  1.00  0.00     0.163 C 
BRANCH  19  20
HETATM   20  C   UNL     1      -1.693 -13.698 -38.108  1.00  0.00     0.227 C 
HETATM   21  N   UNL     1      -2.714 -14.461 -38.645  1.00  0.00    -0.327 N 
HETATM   22  H   UNL     1      -3.122 -15.155 -38.020  1.00  0.00     0.169 HD
HETATM   23  O   UNL     1      -1.134 -12.759 -38.672  1.00  0.00    -0.273 OA
BRANCH  21  24
HETATM   24  C   UNL     1      -3.297 -14.366 -39.923  1.00  0.00     0.036 A 
HETATM   25  C   UNL     1      -4.535 -13.769 -40.177  1.00  0.00     0.056 A 
HETATM   26  C   UNL     1      -5.020 -13.693 -41.487  1.00  0.00     0.074 A 
HETATM   27 CL   UNL     1      -6.540 -12.940 -41.785  1.00  0.00    -0.081 Cl
HETATM   28  C   UNL     1      -4.275 -14.217 -42.540  1.00  0.00     0.138 A 
HETATM   29  F   UNL     1      -4.725 -14.150 -43.802  1.00  0.00    -0.204 F 
HETATM   30  C   UNL     1      -3.046 -14.818 -42.301  1.00  0.00     0.046 A 
HETATM   31  C   UNL     1      -2.559 -14.893 -40.994  1.00  0.00     0.032 A 
ENDBRANCH  21  24
ENDBRANCH  19  20
ENDBRANCH   4  19
TORSDOF 5
ENDMDL
MODEL 9
REMARK VINA RESULT:      -7.9      2.610      4.590
REMARK  5 active torsions:
REMARK  status: ('A' for Active; 'I' for Inactive)
REMARK    1  A    between atoms: C_5  and  N_6 
REMARK       I    between atoms: N_6  and  C_7 
REMARK       I    between atoms: C_7  and  N_8 
REMARK    2  A    between atoms: N_8  and  C_9 
REMARK    3  A    between atoms: C_12  and  C_13 
REMARK    4  A    between atoms: C_13  and  C_14 
REMARK       I    between atoms: C_14  and  N_15 
REMARK    5  A    between atoms: N_15  and  C_16 
ROOT
HETATM    1  C   UNL     1      -4.266  -0.607 -32.975  1.00  0.00     0.174 A 
HETATM    2  S   UNL     1      -3.258  -1.529 -31.962  1.00  0.00    -0.062 SA
HETATM    3  C   UNL     1      -2.797  -0.088 -31.148  1.00  0.00     0.081 A 
HETATM    4  C   UNL     1      -3.443   1.001 -31.705  1.00  0.00     0.052 A 
HETATM    5  N   UNL     1      -4.284   0.689 -32.773  1.00  0.00    -0.228 NA
ENDROOT
BRANCH   1   6
HETATM    6  N   UNL     1      -4.978  -1.318 -33.893  1.00  0.00    -0.287 N 
HETATM    7  C   UNL     1      -6.309  -1.168 -34.177  1.00  0.00     0.326 C 
HETATM    8  N   UNL     1      -6.949  -0.116 -33.577  1.00  0.00    -0.309 N 
HETATM    9  O   UNL     1      -6.821  -1.985 -34.939  1.00  0.00    -0.247 OA
HETATM   10  H   UNL     1      -6.337   0.542 -33.106  1.00  0.00     0.170 HD
HETATM   11  H   UNL     1      -4.519  -2.084 -34.363  1.00  0.00     0.172 HD
BRANCH   8  12
HETATM   12  C   UNL     1      -8.319   0.206 -33.600  1.00  0.00     0.036 A 
HETATM   13  C   UNL     1      -9.258  -0.315 -32.712  1.00  0.00     0.030 A 
HETATM   14  C   UNL     1     -10.600   0.077 -32.787  1.00  0.00     0.009 A 
HETATM   15  C   UNL     1     -11.021   1.004 -33.746  1.00  0.00    -0.062 A 
HETATM   16  C   UNL     1     -12.467   1.390 -33.838  1.00  0.00     0.048 C 
HETATM   17  C   UNL     1     -10.081   1.522 -34.642  1.00  0.00     0.009 A 
HETATM   18  C   UNL     1      -8.741   1.129 -34.566  1.00  0.00     0.030 A 
ENDBRANCH   8  12
ENDBRANCH   1   6
BRANCH   4  19
HETATM   19  C   UNL     1      -3.320   2.433 -31.286  1.00  0.00     0.163 C 
BRANCH  19  20
HETATM   20  C   UNL     1      -4.564   3.277 -31.547  1.00  0.00     0.227 C 
HETATM   21  N   UNL     1      -5.763   2.650 -31.260  1.00  0.00    -0.327 N 
HETATM   22  H   UNL     1      -5.688   1.755 -30.778  1.00  0.00     0.169 HD
HETATM   23  O   UNL     1      -4.446   4.395 -32.046  1.00  0.00    -0.273 OA
BRANCH  21  24
HETATM   24  C   UNL     1      -7.071   3.112 -31.500  1.00  0.00     0.036 A 
HETATM   25  C   UNL     1      -7.428   3.930 -32.576  1.00  0.00     0.056 A 
HETATM   26  C   UNL     1      -8.761   4.314 -32.751  1.00  0.00     0.074 A 
HETATM   27 CL   UNL     1      -9.186   5.311 -34.090  1.00  0.00    -0.081 Cl
HETATM   28  C   UNL     1      -9.736   3.888 -31.853  1.00  0.00     0.138 A 
HETATM   29  F   UNL     1     -11.019   4.245 -32.009  1.00  0.00    -0.204 F 
HETATM   30  C   UNL     1      -9.394   3.079 -30.777  1.00  0.00     0.046 A 
HETATM   31  C   UNL     1      -8.064   2.693 -30.602  1.00  0.00     0.032 A 
ENDBRANCH  21  24
ENDBRANCH  19  20
ENDBRANCH   4  19
TORSDOF 5
ENDMDL
MODEL 10
REMARK VINA RESULT:      -7.9     15.558     17.268
REMARK  5 active torsions:
REMARK  status: ('A' for Active; 'I' for Inactive)
REMARK    1  A    between atoms: C_5  and  N_6 
REMARK       I    between atoms: N_6  and  C_7 
REMARK       I    between atoms: C_7  and  N_8 
REMARK    2  A    between atoms: N_8  and  C_9 
REMARK    3  A    between atoms: C_12  and  C_13 
REMARK    4  A    between atoms: C_13  and  C_14 
REMARK       I    between atoms: C_14  and  N_15 
REMARK    5  A    between atoms: N_15  and  C_16 
ROOT
HETATM    1  C   UNL     1      -2.592 -15.153 -41.868  1.00  0.00     0.174 A 
HETATM    2  S   UNL     1      -1.549 -16.481 -41.666  1.00  0.00    -0.062 SA
HETATM    3  C   UNL     1      -0.781 -15.652 -40.373  1.00  0.00     0.081 A 
HETATM    4  C   UNL     1      -1.372 -14.415 -40.182  1.00  0.00     0.052 A 
HETATM    5  N   UNL     1      -2.415 -14.132 -41.064  1.00  0.00    -0.228 NA
ENDROOT
BRANCH   1   6
HETATM    6  N   UNL     1      -3.533 -15.293 -42.842  1.00  0.00    -0.287 N 
HETATM    7  C   UNL     1      -4.865 -14.995 -42.731  1.00  0.00     0.326 C 
HETATM    8  N   UNL     1      -5.259 -14.374 -41.575  1.00  0.00    -0.309 N 
HETATM    9  O   UNL     1      -5.597 -15.309 -43.667  1.00  0.00    -0.247 OA
HETATM   10  H   UNL     1      -4.499 -14.053 -40.984  1.00  0.00     0.170 HD
HETATM   11  H   UNL     1      -3.259 -15.728 -43.711  1.00  0.00     0.172 HD
BRANCH   8  12
HETATM   12  C   UNL     1      -6.562 -14.056 -41.150  1.00  0.00     0.036 A 
HETATM   13  C   UNL     1      -7.559 -15.003 -40.918  1.00  0.00     0.030 A 
HETATM   14  C   UNL     1      -8.825 -14.605 -40.472  1.00  0.00     0.009 A 
HETATM   15  C   UNL     1      -9.110 -13.255 -40.241  1.00  0.00    -0.062 A 
HETATM   16  C   UNL     1     -10.480 -12.839 -39.796  1.00  0.00     0.048 C 
HETATM   17  C   UNL     1      -8.113 -12.305 -40.480  1.00  0.00     0.009 A 
HETATM   18  C   UNL     1      -6.849 -12.704 -40.926  1.00  0.00     0.030 A 
ENDBRANCH   8  12
ENDBRANCH   1   6
BRANCH   4  19
HETATM   19  C   UNL     1      -1.002 -13.388 -39.158  1.00  0.00     0.163 C 
BRANCH  19  20
HETATM   20  C   UNL     1      -2.168 -12.897 -38.306  1.00  0.00     0.227 C 
HETATM   21  N   UNL     1      -2.947 -13.898 -37.754  1.00  0.00    -0.327 N 
HETATM   22  H   UNL     1      -2.585 -14.845 -37.855  1.00  0.00     0.169 HD
HETATM   23  O   UNL     1      -2.390 -11.691 -38.216  1.00  0.00    -0.273 OA
BRANCH  21  24
HETATM   24  C   UNL     1      -4.146 -13.772 -37.027  1.00  0.00     0.036 A 
HETATM   25  C   UNL     1      -4.207 -13.563 -35.647  1.00  0.00     0.056 A 
HETATM   26  C   UNL     1      -5.446 -13.418 -35.014  1.00  0.00     0.074 A 
HETATM   27 CL   UNL     1      -5.503 -13.146 -33.315  1.00  0.00    -0.081 Cl
HETATM   28  C   UNL     1      -6.623 -13.487 -35.756  1.00  0.00     0.138 A 
HETATM   29  F   UNL     1      -7.818 -13.348 -35.165  1.00  0.00    -0.204 F 
HETATM   30  C   UNL     1      -6.577 -13.700 -37.128  1.00  0.00     0.046 A 
HETATM   31  C   UNL     1      -5.340 -13.843 -37.761  1.00  0.00     0.032 A 
ENDBRANCH  21  24
ENDBRANCH  19  20
ENDBRANCH   4  19
TORSDOF 5
ENDMDL
