MODEL 1
REMARK VINA RESULT:      -8.8      0.000      0.000
REMARK  10 active torsions:
REMARK  status: ('A' for Active; 'I' for Inactive)
REMARK    1  A    between atoms: N_2  and  C_4 
REMARK    2  A    between atoms: C_4  and  C_5 
REMARK    3  A    between atoms: N_6  and  C_7 
REMARK    4  A    between atoms: C_11  and  N_12 
REMARK    5  A    between atoms: C_15  and  C_16 
REMARK       I    between atoms: C_16  and  N_17 
REMARK    6  A    between atoms: N_17  and  N_18 
REMARK    7  A    between atoms: C_19  and  C_20 
REMARK    8  A    between atoms: C_22  and  O_23 
REMARK    9  A    between atoms: O_23  and  C_24 
REMARK   10  A    between atoms: C_24  and  C_25 
ROOT
HETATM    1  C   UNL     1      -3.852   0.952 -31.771  1.00  0.00     0.293 C 
HETATM    2  N   UNL     1      -3.085   1.830 -32.510  1.00  0.00    -0.242 N 
HETATM    3  O   UNL     1      -4.441   1.215 -30.721  1.00  0.00    -0.264 OA
HETATM    4  H   UNL     1      -2.619   1.527 -33.361  1.00  0.00     0.192 HD
ENDROOT
BRANCH   1   5
HETATM    5  C   UNL     1      -3.926  -0.399 -32.310  1.00  0.00     0.170 A 
HETATM    6  C   UNL     1      -4.805  -0.838 -33.293  1.00  0.00     0.096 A 
HETATM    7  N   UNL     1      -4.560  -2.208 -33.388  1.00  0.00    -0.215 N 
HETATM    8  N   UNL     1      -3.502  -2.509 -32.583  1.00  0.00     0.012 NA
HETATM    9  N   UNL     1      -3.134  -1.431 -31.911  1.00  0.00    -0.152 NA
BRANCH   6  10
HETATM   10  C   UNL     1      -5.739  -0.045 -34.132  1.00  0.00     0.295 C 
BRANCH  10  11
HETATM   11  N   UNL     1      -7.193  -0.219 -33.772  1.00  0.00    -0.073 N 
HETATM   12  C   UNL     1      -8.142   0.318 -34.797  1.00  0.00     0.269 C 
HETATM   13  H   UNL     1      -7.341  -1.247 -33.694  1.00  0.00     0.279 HD
HETATM   14  C   UNL     1      -7.499   0.310 -32.401  1.00  0.00     0.269 C 
ENDBRANCH  10  11
ENDBRANCH   6  10
BRANCH   7  15
HETATM   15  C   UNL     1      -5.259  -3.202 -34.113  1.00  0.00     0.225 A 
HETATM   16  N   UNL     1      -6.479  -2.951 -34.593  1.00  0.00    -0.081 NA
HETATM   17  O   UNL     1      -6.849  -4.149 -35.209  1.00  0.00    -0.103 OA
HETATM   18  N   UNL     1      -5.858  -5.109 -35.072  1.00  0.00    -0.083 NA
HETATM   19  C   UNL     1      -4.874  -4.525 -34.391  1.00  0.00     0.201 A 
BRANCH  19  20
HETATM   20  N   UNL     1      -3.725  -5.129 -34.049  1.00  0.00    -0.379 N 
HETATM   21  H   UNL     1      -2.996  -5.266 -34.743  1.00  0.00     0.158 HD
HETATM   22  H   UNL     1      -3.597  -5.655 -33.187  1.00  0.00     0.158 HD
ENDBRANCH  19  20
ENDBRANCH   7  15
ENDBRANCH   1   5
BRANCH   2  23
HETATM   23  N   UNL     1      -3.008   3.130 -32.111  1.00  0.00    -0.184 NA
HETATM   24  C   UNL     1      -2.418   3.952 -32.919  1.00  0.00     0.150 C 
BRANCH  24  25
HETATM   25  C   UNL     1      -2.306   5.390 -32.593  1.00  0.00    -0.014 A 
HETATM   26  C   UNL     1      -2.760   5.851 -31.354  1.00  0.00     0.049 A 
HETATM   27  C   UNL     1      -2.631   7.204 -31.023  1.00  0.00     0.070 A 
HETATM   28  C   UNL     1      -2.072   8.091 -31.946  1.00  0.00     0.037 A 
HETATM   29  C   UNL     1      -1.626   7.629 -33.186  1.00  0.00     0.004 A 
HETATM   30  C   UNL     1      -1.739   6.280 -33.510  1.00  0.00     0.013 A 
BRANCH  27  31
HETATM   31  O   UNL     1      -3.108   7.548 -29.786  1.00  0.00    -0.346 OA
BRANCH  31  32
HETATM   32  C   UNL     1      -2.486   6.898 -28.674  1.00  0.00     0.219 C 
BRANCH  32  33
HETATM   33  C   UNL     1      -1.264   7.672 -28.253  1.00  0.00     0.026 A 
HETATM   34  C   UNL     1       0.041   7.274 -28.575  1.00  0.00     0.045 A 
HETATM   35 CL   UNL     1       0.360   5.843 -29.491  1.00  0.00    -0.084 Cl
HETATM   36  C   UNL     1       1.143   8.045 -28.179  1.00  0.00     0.024 A 
HETATM   37  C   UNL     1       0.956   9.228 -27.463  1.00  0.00     0.005 A 
HETATM   38  C   UNL     1      -0.334   9.639 -27.143  1.00  0.00     0.043 A 
HETATM   39  C   UNL     1      -1.422   8.863 -27.536  1.00  0.00     0.126 A 
HETATM   40  F   UNL     1      -2.653   9.297 -27.224  1.00  0.00    -0.205 F 
ENDBRANCH  32  33
ENDBRANCH  31  32
ENDBRANCH  27  31
ENDBRANCH  24  25
ENDBRANCH   2  23
TORSDOF 10
ENDMDL
MODEL 2
REMARK VINA RESULT:      -8.7      4.114      5.788
REMARK  10 active torsions:
REMARK  status: ('A' for Active; 'I' for Inactive)
REMARK    1  A    between atoms: N_2  and  C_4 
REMARK    2  A    between atoms: C_4  and  C_5 
REMARK    3  A    between atoms: N_6  and  C_7 
REMARK    4  A    between atoms: C_11  and  N_12 
REMARK    5  A    between atoms: C_15  and  C_16 
REMARK       I    between atoms: C_16  and  N_17 
REMARK    6  A    between atoms: N_17  and  N_18 
REMARK    7  A    between atoms: C_19  and  C_20 
REMARK    8  A    between atoms: C_22  and  O_23 
REMARK    9  A    between atoms: O_23  and  C_24 
REMARK   10  A    between atoms: C_24  and  C_25 
ROOT
HETATM    1  C   UNL     1      -7.634   1.479 -33.974  1.00  0.00     0.293 C 
HETATM    2  N   UNL     1      -7.056   2.279 -33.008  1.00  0.00    -0.242 N 
HETATM    3  O   UNL     1      -7.095   1.105 -35.017  1.00  0.00    -0.264 OA
HETATM    4  H   UNL     1      -7.578   2.555 -32.179  1.00  0.00     0.192 HD
ENDROOT
BRANCH   1   5
HETATM    5  C   UNL     1      -9.008   1.083 -33.700  1.00  0.00     0.170 A 
HETATM    6  C   UNL     1     -10.148   1.802 -34.041  1.00  0.00     0.096 A 
HETATM    7  N   UNL     1     -11.196   1.072 -33.481  1.00  0.00    -0.215 N 
HETATM    8  N   UNL     1     -10.684  -0.075 -32.954  1.00  0.00     0.012 NA
HETATM    9  N   UNL     1      -9.365  -0.061 -33.058  1.00  0.00    -0.152 NA
BRANCH   6  10
HETATM   10  C   UNL     1     -10.266   3.020 -34.882  1.00  0.00     0.295 C 
BRANCH  10  11
HETATM   11  N   UNL     1     -10.421   4.300 -34.098  1.00  0.00    -0.073 N 
HETATM   12  C   UNL     1     -11.421   5.251 -34.677  1.00  0.00     0.269 C 
HETATM   13  H   UNL     1     -10.751   4.011 -33.153  1.00  0.00     0.279 HD
HETATM   14  C   UNL     1      -9.100   4.967 -33.846  1.00  0.00     0.269 C 
ENDBRANCH  10  11
ENDBRANCH   6  10
BRANCH   7  15
HETATM   15  C   UNL     1     -12.568   1.400 -33.374  1.00  0.00     0.225 A 
HETATM   16  N   UNL     1     -12.940   2.633 -33.023  1.00  0.00    -0.081 NA
HETATM   17  O   UNL     1     -14.335   2.568 -32.998  1.00  0.00    -0.103 OA
HETATM   18  N   UNL     1     -14.782   1.293 -33.311  1.00  0.00    -0.083 NA
HETATM   19  C   UNL     1     -13.689   0.568 -33.542  1.00  0.00     0.201 A 
BRANCH  19  20
HETATM   20  N   UNL     1     -13.697  -0.732 -33.877  1.00  0.00    -0.379 N 
HETATM   21  H   UNL     1     -13.443  -1.015 -34.819  1.00  0.00     0.158 HD
HETATM   22  H   UNL     1     -14.141  -1.457 -33.318  1.00  0.00     0.158 HD
ENDBRANCH  19  20
ENDBRANCH   7  15
ENDBRANCH   1   5
BRANCH   2  23
HETATM   23  N   UNL     1      -5.755   2.649 -33.154  1.00  0.00    -0.184 NA
HETATM   24  C   UNL     1      -5.530   3.900 -33.405  1.00  0.00     0.150 C 
BRANCH  24  25
HETATM   25  C   UNL     1      -4.151   4.410 -33.553  1.00  0.00    -0.014 A 
HETATM   26  C   UNL     1      -3.238   4.238 -32.509  1.00  0.00     0.049 A 
HETATM   27  C   UNL     1      -1.922   4.689 -32.649  1.00  0.00     0.070 A 
HETATM   28  C   UNL     1      -1.535   5.335 -33.827  1.00  0.00     0.037 A 
HETATM   29  C   UNL     1      -2.450   5.512 -34.866  1.00  0.00     0.004 A 
HETATM   30  C   UNL     1      -3.757   5.048 -34.733  1.00  0.00     0.013 A 
BRANCH  27  31
HETATM   31  O   UNL     1      -1.113   4.470 -31.566  1.00  0.00    -0.346 OA
BRANCH  31  32
HETATM   32  C   UNL     1       0.028   5.325 -31.456  1.00  0.00     0.219 C 
BRANCH  32  33
HETATM   33  C   UNL     1      -0.074   6.148 -30.197  1.00  0.00     0.026 A 
HETATM   34  C   UNL     1      -0.772   7.362 -30.133  1.00  0.00     0.045 A 
HETATM   35 CL   UNL     1      -1.579   8.025 -31.510  1.00  0.00    -0.084 Cl
HETATM   36  C   UNL     1      -0.857   8.075 -28.930  1.00  0.00     0.024 A 
HETATM   37  C   UNL     1      -0.253   7.582 -27.772  1.00  0.00     0.005 A 
HETATM   38  C   UNL     1       0.436   6.375 -27.820  1.00  0.00     0.043 A 
HETATM   39  C   UNL     1       0.519   5.675 -29.022  1.00  0.00     0.126 A 
HETATM   40  F   UNL     1       1.178   4.507 -29.029  1.00  0.00    -0.205 F 
ENDBRANCH  32  33
ENDBRANCH  31  32
ENDBRANCH  27  31
ENDBRANCH  24  25
ENDBRANCH   2  23
TORSDOF 10
ENDMDL
MODEL 3
REMARK VINA RESULT:      -8.7      4.507     10.910
REMARK  10 active torsions:
REMARK  status: ('A' for Active; 'I' for Inactive)
REMARK    1  A    between atoms: N_2  and  C_4 
REMARK    2  A    between atoms: C_4  and  C_5 
REMARK    3  A    between atoms: N_6  and  C_7 
REMARK    4  A    between atoms: C_11  and  N_12 
REMARK    5  A    between atoms: C_15  and  C_16 
REMARK       I    between atoms: C_16  and  N_17 
REMARK    6  A    between atoms: N_17  and  N_18 
REMARK    7  A    between atoms: C_19  and  C_20 
REMARK    8  A    between atoms: C_22  and  O_23 
REMARK    9  A    between atoms: O_23  and  C_24 
REMARK   10  A    between atoms: C_24  and  C_25 
ROOT
HETATM    1  C   UNL     1      -2.692   4.211 -32.269  1.00  0.00     0.293 C 
HETATM    2  N   UNL     1      -3.602   3.361 -31.674  1.00  0.00    -0.242 N 
HETATM    3  O   UNL     1      -2.541   4.372 -33.482  1.00  0.00    -0.264 OA
HETATM    4  H   UNL     1      -3.652   3.277 -30.661  1.00  0.00     0.192 HD
ENDROOT
BRANCH   1   5
HETATM    5  C   UNL     1      -1.846   4.950 -31.342  1.00  0.00     0.170 A 
HETATM    6  C   UNL     1      -2.243   6.021 -30.551  1.00  0.00     0.096 A 
HETATM    7  N   UNL     1      -1.069   6.444 -29.929  1.00  0.00    -0.215 N 
HETATM    8  N   UNL     1      -0.074   5.573 -30.256  1.00  0.00     0.012 NA
HETATM    9  N   UNL     1      -0.529   4.688 -31.128  1.00  0.00    -0.152 NA
BRANCH   6  10
HETATM   10  C   UNL     1      -3.609   6.561 -30.328  1.00  0.00     0.295 C 
BRANCH  10  11
HETATM   11  N   UNL     1      -4.299   6.007 -29.106  1.00  0.00    -0.073 N 
HETATM   12  C   UNL     1      -5.612   5.349 -29.395  1.00  0.00     0.269 C 
HETATM   13  H   UNL     1      -3.650   5.290 -28.718  1.00  0.00     0.279 HD
HETATM   14  C   UNL     1      -4.420   7.033 -28.017  1.00  0.00     0.269 C 
ENDBRANCH  10  11
ENDBRANCH   6  10
BRANCH   7  15
HETATM   15  C   UNL     1      -0.833   7.588 -29.129  1.00  0.00     0.225 A 
HETATM   16  N   UNL     1      -1.469   8.732 -29.387  1.00  0.00    -0.081 NA
HETATM   17  O   UNL     1      -0.969   9.618 -28.430  1.00  0.00    -0.103 OA
HETATM   18  N   UNL     1      -0.023   9.001 -27.625  1.00  0.00    -0.083 NA
HETATM   19  C   UNL     1       0.065   7.746 -28.059  1.00  0.00     0.201 A 
BRANCH  19  20
HETATM   20  N   UNL     1       0.881   6.816 -27.536  1.00  0.00    -0.379 N 
HETATM   21  H   UNL     1       0.767   6.526 -26.569  1.00  0.00     0.158 HD
HETATM   22  H   UNL     1       1.751   6.519 -27.971  1.00  0.00     0.158 HD
ENDBRANCH  19  20
ENDBRANCH   7  15
ENDBRANCH   1   5
BRANCH   2  23
HETATM   23  N   UNL     1      -4.473   2.674 -32.463  1.00  0.00    -0.184 NA
HETATM   24  C   UNL     1      -5.709   2.649 -32.079  1.00  0.00     0.150 C 
BRANCH  24  25
HETATM   25  C   UNL     1      -6.740   1.954 -32.880  1.00  0.00    -0.014 A 
HETATM   26  C   UNL     1      -6.594   0.593 -33.157  1.00  0.00     0.049 A 
HETATM   27  C   UNL     1      -7.578  -0.081 -33.888  1.00  0.00     0.070 A 
HETATM   28  C   UNL     1      -8.691   0.621 -34.359  1.00  0.00     0.037 A 
HETATM   29  C   UNL     1      -8.831   1.982 -34.087  1.00  0.00     0.004 A 
HETATM   30  C   UNL     1      -7.859   2.651 -33.346  1.00  0.00     0.013 A 
BRANCH  27  31
HETATM   31  O   UNL     1      -7.335  -1.412 -34.102  1.00  0.00    -0.346 OA
BRANCH  31  32
HETATM   32  C   UNL     1      -6.339  -1.715 -35.083  1.00  0.00     0.219 C 
BRANCH  32  33
HETATM   33  C   UNL     1      -5.470  -2.844 -34.593  1.00  0.00     0.026 A 
HETATM   34  C   UNL     1      -4.334  -2.643 -33.797  1.00  0.00     0.045 A 
HETATM   35 CL   UNL     1      -3.828  -1.062 -33.309  1.00  0.00    -0.084 Cl
HETATM   36  C   UNL     1      -3.574  -3.730 -33.347  1.00  0.00     0.024 A 
HETATM   37  C   UNL     1      -3.942  -5.035 -33.678  1.00  0.00     0.005 A 
HETATM   38  C   UNL     1      -5.072  -5.250 -34.461  1.00  0.00     0.043 A 
HETATM   39  C   UNL     1      -5.818  -4.162 -34.908  1.00  0.00     0.126 A 
HETATM   40  F   UNL     1      -6.910  -4.405 -35.648  1.00  0.00    -0.205 F 
ENDBRANCH  32  33
ENDBRANCH  31  32
ENDBRANCH  27  31
ENDBRANCH  24  25
ENDBRANCH   2  23
TORSDOF 10
ENDMDL
MODEL 4
REMARK VINA RESULT:      -8.6      4.952     11.069
REMARK  10 active torsions:
REMARK  status: ('A' for Active; 'I' for Inactive)
REMARK    1  A    between atoms: N_2  and  C_4 
REMARK    2  A    between atoms: C_4  and  C_5 
REMARK    3  A    between atoms: N_6  and  C_7 
REMARK    4  A    between atoms: C_11  and  N_12 
REMARK    5  A    between atoms: C_15  and  C_16 
REMARK       I    between atoms: C_16  and  N_17 
REMARK    6  A    between atoms: N_17  and  N_18 
REMARK    7  A    between atoms: C_19  and  C_20 
REMARK    8  A    between atoms: C_22  and  O_23 
REMARK    9  A    between atoms: O_23  and  C_24 
REMARK   10  A    between atoms: C_24  and  C_25 
ROOT
HETATM    1  C   UNL     1      -4.995   5.952 -30.822  1.00  0.00     0.293 C 
HETATM    2  N   UNL     1      -5.127   4.578 -30.838  1.00  0.00    -0.242 N 
HETATM    3  O   UNL     1      -5.552   6.740 -31.588  1.00  0.00    -0.264 OA
HETATM    4  H   UNL     1      -4.619   3.997 -30.175  1.00  0.00     0.192 HD
ENDROOT
BRANCH   1   5
HETATM    5  C   UNL     1      -4.093   6.469 -29.802  1.00  0.00     0.170 A 
HETATM    6  C   UNL     1      -2.735   6.719 -29.964  1.00  0.00     0.096 A 
HETATM    7  N   UNL     1      -2.300   7.098 -28.694  1.00  0.00    -0.215 N 
HETATM    8  N   UNL     1      -3.388   7.180 -27.877  1.00  0.00     0.012 NA
HETATM    9  N   UNL     1      -4.465   6.776 -28.530  1.00  0.00    -0.152 NA
BRANCH   6  10
HETATM   10  C   UNL     1      -1.922   6.687 -31.206  1.00  0.00     0.295 C 
BRANCH  10  11
HETATM   11  N   UNL     1      -1.270   5.355 -31.483  1.00  0.00    -0.073 N 
HETATM   12  C   UNL     1       0.195   5.321 -31.181  1.00  0.00     0.269 C 
HETATM   13  H   UNL     1      -1.751   4.672 -30.860  1.00  0.00     0.279 HD
HETATM   14  C   UNL     1      -1.562   4.866 -32.872  1.00  0.00     0.269 C 
ENDBRANCH  10  11
ENDBRANCH   6  10
BRANCH   7  15
HETATM   15  C   UNL     1      -0.986   7.324 -28.220  1.00  0.00     0.225 A 
HETATM   16  N   UNL     1      -0.209   8.238 -28.804  1.00  0.00    -0.081 NA
HETATM   17  O   UNL     1       0.993   8.157 -28.097  1.00  0.00    -0.103 OA
HETATM   18  N   UNL     1       0.930   7.182 -27.113  1.00  0.00    -0.083 NA
HETATM   19  C   UNL     1      -0.294   6.663 -27.190  1.00  0.00     0.201 A 
BRANCH  19  20
HETATM   20  N   UNL     1      -0.754   5.680 -26.400  1.00  0.00    -0.379 N 
HETATM   21  H   UNL     1      -0.781   5.808 -25.392  1.00  0.00     0.158 HD
HETATM   22  H   UNL     1      -0.888   4.720 -26.712  1.00  0.00     0.158 HD
ENDBRANCH  19  20
ENDBRANCH   7  15
ENDBRANCH   1   5
BRANCH   2  23
HETATM   23  N   UNL     1      -5.995   4.013 -31.721  1.00  0.00    -0.184 NA
HETATM   24  C   UNL     1      -6.161   2.731 -31.633  1.00  0.00     0.150 C 
BRANCH  24  25
HETATM   25  C   UNL     1      -7.102   2.023 -32.527  1.00  0.00    -0.014 A 
HETATM   26  C   UNL     1      -6.870   0.684 -32.849  1.00  0.00     0.049 A 
HETATM   27  C   UNL     1      -7.770  -0.005 -33.669  1.00  0.00     0.070 A 
HETATM   28  C   UNL     1      -8.886   0.662 -34.182  1.00  0.00     0.037 A 
HETATM   29  C   UNL     1      -9.112   2.002 -33.864  1.00  0.00     0.004 A 
HETATM   30  C   UNL     1      -8.225   2.684 -33.035  1.00  0.00     0.013 A 
BRANCH  27  31
HETATM   31  O   UNL     1      -7.446  -1.311 -33.921  1.00  0.00    -0.346 OA
BRANCH  31  32
HETATM   32  C   UNL     1      -6.456  -1.525 -34.931  1.00  0.00     0.219 C 
BRANCH  32  33
HETATM   33  C   UNL     1      -5.576  -2.684 -34.541  1.00  0.00     0.026 A 
HETATM   34  C   UNL     1      -4.387  -2.531 -33.814  1.00  0.00     0.045 A 
HETATM   35 CL   UNL     1      -3.826  -0.978 -33.300  1.00  0.00    -0.084 Cl
HETATM   36  C   UNL     1      -3.618  -3.646 -33.456  1.00  0.00     0.024 A 
HETATM   37  C   UNL     1      -4.029  -4.931 -33.812  1.00  0.00     0.005 A 
HETATM   38  C   UNL     1      -5.210  -5.099 -34.528  1.00  0.00     0.043 A 
HETATM   39  C   UNL     1      -5.966  -3.984 -34.883  1.00  0.00     0.126 A 
HETATM   40  F   UNL     1      -7.107  -4.183 -35.560  1.00  0.00    -0.205 F 
ENDBRANCH  32  33
ENDBRANCH  31  32
ENDBRANCH  27  31
ENDBRANCH  24  25
ENDBRANCH   2  23
TORSDOF 10
ENDMDL
MODEL 5
REMARK VINA RESULT:      -8.6      6.417     10.724
REMARK  10 active torsions:
REMARK  status: ('A' for Active; 'I' for Inactive)
REMARK    1  A    between atoms: N_2  and  C_4 
REMARK    2  A    between atoms: C_4  and  C_5 
REMARK    3  A    between atoms: N_6  and  C_7 
REMARK    4  A    between atoms: C_11  and  N_12 
REMARK    5  A    between atoms: C_15  and  C_16 
REMARK       I    between atoms: C_16  and  N_17 
REMARK    6  A    between atoms: N_17  and  N_18 
REMARK    7  A    between atoms: C_19  and  C_20 
REMARK    8  A    between atoms: C_22  and  O_23 
REMARK    9  A    between atoms: O_23  and  C_24 
REMARK   10  A    between atoms: C_24  and  C_25 
ROOT
HETATM    1  C   UNL     1     -10.383   3.810 -31.928  1.00  0.00     0.293 C 
HETATM    2  N   UNL     1      -9.569   2.955 -31.213  1.00  0.00    -0.242 N 
HETATM    3  O   UNL     1     -10.019   4.566 -32.832  1.00  0.00    -0.264 OA
HETATM    4  H   UNL     1      -9.949   2.373 -30.470  1.00  0.00     0.192 HD
ENDROOT
BRANCH   1   5
HETATM    5  C   UNL     1     -11.785   3.797 -31.533  1.00  0.00     0.170 A 
HETATM    6  C   UNL     1     -12.826   3.208 -32.240  1.00  0.00     0.096 A 
HETATM    7  N   UNL     1     -13.969   3.550 -31.518  1.00  0.00    -0.215 N 
HETATM    8  N   UNL     1     -13.581   4.198 -30.384  1.00  0.00     0.012 NA
HETATM    9  N   UNL     1     -12.270   4.374 -30.401  1.00  0.00    -0.152 NA
BRANCH   6  10
HETATM   10  C   UNL     1     -12.764   2.335 -33.440  1.00  0.00     0.295 C 
BRANCH  10  11
HETATM   11  N   UNL     1     -12.366   0.910 -33.146  1.00  0.00    -0.073 N 
HETATM   12  C   UNL     1     -10.960   0.578 -33.537  1.00  0.00     0.269 C 
HETATM   13  H   UNL     1     -12.456   0.801 -32.114  1.00  0.00     0.279 HD
HETATM   14  C   UNL     1     -13.347  -0.075 -33.715  1.00  0.00     0.269 C 
ENDBRANCH  10  11
ENDBRANCH   6  10
BRANCH   7  15
HETATM   15  C   UNL     1     -15.333   3.358 -31.843  1.00  0.00     0.225 A 
HETATM   16  N   UNL     1     -15.836   2.125 -31.931  1.00  0.00    -0.081 NA
HETATM   17  O   UNL     1     -17.171   2.332 -32.289  1.00  0.00    -0.103 OA
HETATM   18  N   UNL     1     -17.446   3.683 -32.432  1.00  0.00    -0.083 NA
HETATM   19  C   UNL     1     -16.309   4.319 -32.160  1.00  0.00     0.201 A 
BRANCH  19  20
HETATM   20  N   UNL     1     -16.159   5.653 -32.190  1.00  0.00    -0.379 N 
HETATM   21  H   UNL     1     -15.283   6.073 -31.893  1.00  0.00     0.158 HD
HETATM   22  H   UNL     1     -16.932   6.307 -32.293  1.00  0.00     0.158 HD
ENDBRANCH  19  20
ENDBRANCH   7  15
ENDBRANCH   1   5
BRANCH   2  23
HETATM   23  N   UNL     1      -8.255   2.860 -31.554  1.00  0.00    -0.184 NA
HETATM   24  C   UNL     1      -7.596   1.861 -31.059  1.00  0.00     0.150 C 
BRANCH  24  25
HETATM   25  C   UNL     1      -6.171   1.651 -31.390  1.00  0.00    -0.014 A 
HETATM   26  C   UNL     1      -5.711   0.360 -31.661  1.00  0.00     0.049 A 
HETATM   27  C   UNL     1      -4.371   0.153 -32.006  1.00  0.00     0.070 A 
HETATM   28  C   UNL     1      -3.494   1.240 -32.051  1.00  0.00     0.037 A 
HETATM   29  C   UNL     1      -3.954   2.528 -31.774  1.00  0.00     0.004 A 
HETATM   30  C   UNL     1      -5.292   2.737 -31.446  1.00  0.00     0.013 A 
BRANCH  27  31
HETATM   31  O   UNL     1      -4.028  -1.150 -32.251  1.00  0.00    -0.346 OA
BRANCH  31  32
HETATM   32  C   UNL     1      -3.750  -1.477 -33.615  1.00  0.00     0.219 C 
BRANCH  32  33
HETATM   33  C   UNL     1      -4.672  -2.578 -34.071  1.00  0.00     0.026 A 
HETATM   34  C   UNL     1      -5.935  -2.335 -34.630  1.00  0.00     0.045 A 
HETATM   35 CL   UNL     1      -6.546  -0.731 -34.843  1.00  0.00    -0.084 Cl
HETATM   36  C   UNL     1      -6.743  -3.395 -35.061  1.00  0.00     0.024 A 
HETATM   37  C   UNL     1      -6.299  -4.713 -34.947  1.00  0.00     0.005 A 
HETATM   38  C   UNL     1      -5.046  -4.969 -34.400  1.00  0.00     0.043 A 
HETATM   39  C   UNL     1      -4.251  -3.908 -33.970  1.00  0.00     0.126 A 
HETATM   40  F   UNL     1      -3.041  -4.190 -33.463  1.00  0.00    -0.205 F 
ENDBRANCH  32  33
ENDBRANCH  31  32
ENDBRANCH  27  31
ENDBRANCH  24  25
ENDBRANCH   2  23
TORSDOF 10
ENDMDL
MODEL 6
REMARK VINA RESULT:      -8.3      4.258     10.651
REMARK  10 active torsions:
REMARK  status: ('A' for Active; 'I' for Inactive)
REMARK    1  A    between atoms: N_2  and  C_4 
REMARK    2  A    between atoms: C_4  and  C_5 
REMARK    3  A    between atoms: N_6  and  C_7 
REMARK    4  A    between atoms: C_11  and  N_12 
REMARK    5  A    between atoms: C_15  and  C_16 
REMARK       I    between atoms: C_16  and  N_17 
REMARK    6  A    between atoms: N_17  and  N_18 
REMARK    7  A    between atoms: C_19  and  C_20 
REMARK    8  A    between atoms: C_22  and  O_23 
REMARK    9  A    between atoms: O_23  and  C_24 
REMARK   10  A    between atoms: C_24  and  C_25 
ROOT
HETATM    1  C   UNL     1      -2.805   3.928 -32.360  1.00  0.00     0.293 C 
HETATM    2  N   UNL     1      -3.372   2.865 -31.684  1.00  0.00    -0.242 N 
HETATM    3  O   UNL     1      -2.893   4.143 -33.570  1.00  0.00    -0.264 OA
HETATM    4  H   UNL     1      -3.239   2.754 -30.682  1.00  0.00     0.192 HD
ENDROOT
BRANCH   1   5
HETATM    5  C   UNL     1      -2.029   4.838 -31.530  1.00  0.00     0.170 A 
HETATM    6  C   UNL     1      -2.541   5.873 -30.756  1.00  0.00     0.096 A 
HETATM    7  N   UNL     1      -1.411   6.508 -30.240  1.00  0.00    -0.215 N 
HETATM    8  N   UNL     1      -0.313   5.789 -30.604  1.00  0.00     0.012 NA
HETATM    9  N   UNL     1      -0.676   4.799 -31.403  1.00  0.00    -0.152 NA
BRANCH   6  10
HETATM   10  C   UNL     1      -3.957   6.200 -30.453  1.00  0.00     0.295 C 
BRANCH  10  11
HETATM   11  N   UNL     1      -4.656   6.981 -31.538  1.00  0.00    -0.073 N 
HETATM   12  C   UNL     1      -5.203   8.299 -31.084  1.00  0.00     0.269 C 
HETATM   13  H   UNL     1      -3.932   7.160 -32.266  1.00  0.00     0.279 HD
HETATM   14  C   UNL     1      -5.699   6.160 -32.239  1.00  0.00     0.269 C 
ENDBRANCH  10  11
ENDBRANCH   6  10
BRANCH   7  15
HETATM   15  C   UNL     1      -1.310   7.715 -29.508  1.00  0.00     0.225 A 
HETATM   16  N   UNL     1      -1.846   8.839 -29.987  1.00  0.00    -0.081 NA
HETATM   17  O   UNL     1      -1.525   9.800 -29.024  1.00  0.00    -0.103 OA
HETATM   18  N   UNL     1      -0.783   9.246 -27.992  1.00  0.00    -0.083 NA
HETATM   19  C   UNL     1      -0.646   7.956 -28.292  1.00  0.00     0.201 A 
BRANCH  19  20
HETATM   20  N   UNL     1       0.017   7.066 -27.536  1.00  0.00    -0.379 N 
HETATM   21  H   UNL     1       1.031   7.019 -27.577  1.00  0.00     0.158 HD
HETATM   22  H   UNL     1      -0.428   6.280 -27.067  1.00  0.00     0.158 HD
ENDBRANCH  19  20
ENDBRANCH   7  15
ENDBRANCH   1   5
BRANCH   2  23
HETATM   23  N   UNL     1      -4.163   1.997 -32.372  1.00  0.00    -0.184 NA
HETATM   24  C   UNL     1      -3.834   0.745 -32.320  1.00  0.00     0.150 C 
BRANCH  24  25
HETATM   25  C   UNL     1      -4.643  -0.283 -33.009  1.00  0.00    -0.014 A 
HETATM   26  C   UNL     1      -6.024  -0.109 -33.122  1.00  0.00     0.049 A 
HETATM   27  C   UNL     1      -6.796  -1.060 -33.798  1.00  0.00     0.070 A 
HETATM   28  C   UNL     1      -6.180  -2.195 -34.334  1.00  0.00     0.037 A 
HETATM   29  C   UNL     1      -4.801  -2.370 -34.213  1.00  0.00     0.004 A 
HETATM   30  C   UNL     1      -4.029  -1.416 -33.554  1.00  0.00     0.013 A 
BRANCH  27  31
HETATM   31  O   UNL     1      -8.137  -0.790 -33.850  1.00  0.00    -0.346 OA
BRANCH  31  32
HETATM   32  C   UNL     1      -8.643   0.065 -32.822  1.00  0.00     0.219 C 
BRANCH  32  33
HETATM   33  C   UNL     1      -9.692   0.982 -33.394  1.00  0.00     0.026 A 
HETATM   34  C   UNL     1      -9.395   2.242 -33.932  1.00  0.00     0.045 A 
HETATM   35 CL   UNL     1      -7.779   2.856 -33.979  1.00  0.00    -0.084 Cl
HETATM   36  C   UNL     1     -10.406   3.045 -34.475  1.00  0.00     0.024 A 
HETATM   37  C   UNL     1     -11.728   2.599 -34.496  1.00  0.00     0.005 A 
HETATM   38  C   UNL     1     -12.037   1.348 -33.973  1.00  0.00     0.043 A 
HETATM   39  C   UNL     1     -11.025   0.558 -33.431  1.00  0.00     0.126 A 
HETATM   40  F   UNL     1     -11.355  -0.650 -32.948  1.00  0.00    -0.205 F 
ENDBRANCH  32  33
ENDBRANCH  31  32
ENDBRANCH  27  31
ENDBRANCH  24  25
ENDBRANCH   2  23
TORSDOF 10
ENDMDL
MODEL 7
REMARK VINA RESULT:      -8.2      6.685     11.045
REMARK  10 active torsions:
REMARK  status: ('A' for Active; 'I' for Inactive)
REMARK    1  A    between atoms: N_2  and  C_4 
REMARK    2  A    between atoms: C_4  and  C_5 
REMARK    3  A    between atoms: N_6  and  C_7 
REMARK    4  A    between atoms: C_11  and  N_12 
REMARK    5  A    between atoms: C_15  and  C_16 
REMARK       I    between atoms: C_16  and  N_17 
REMARK    6  A    between atoms: N_17  and  N_18 
REMARK    7  A    between atoms: C_19  and  C_20 
REMARK    8  A    between atoms: C_22  and  O_23 
REMARK    9  A    between atoms: O_23  and  C_24 
REMARK   10  A    between atoms: C_24  and  C_25 
ROOT
HETATM    1  C   UNL     1     -10.795   2.736 -32.922  1.00  0.00     0.293 C 
HETATM    2  N   UNL     1     -10.271   2.072 -31.831  1.00  0.00    -0.242 N 
HETATM    3  O   UNL     1     -10.160   3.429 -33.719  1.00  0.00    -0.264 OA
HETATM    4  H   UNL     1     -10.870   1.530 -31.213  1.00  0.00     0.192 HD
ENDROOT
BRANCH   1   5
HETATM    5  C   UNL     1     -12.233   2.590 -33.096  1.00  0.00     0.170 A 
HETATM    6  C   UNL     1     -13.215   3.219 -32.338  1.00  0.00     0.096 A 
HETATM    7  N   UNL     1     -14.412   2.684 -32.814  1.00  0.00    -0.215 N 
HETATM    8  N   UNL     1     -14.129   1.882 -33.878  1.00  0.00     0.012 NA
HETATM    9  N   UNL     1     -12.818   1.799 -34.035  1.00  0.00    -0.152 NA
BRANCH   6  10
HETATM   10  C   UNL     1     -13.064   4.284 -31.315  1.00  0.00     0.295 C 
BRANCH  10  11
HETATM   11  N   UNL     1     -12.688   5.632 -31.877  1.00  0.00    -0.073 N 
HETATM   12  C   UNL     1     -12.885   5.751 -33.356  1.00  0.00     0.269 C 
HETATM   13  H   UNL     1     -13.316   6.317 -31.406  1.00  0.00     0.279 HD
HETATM   14  C   UNL     1     -11.305   6.046 -31.466  1.00  0.00     0.269 C 
ENDBRANCH  10  11
ENDBRANCH   6  10
BRANCH   7  15
HETATM   15  C   UNL     1     -15.729   2.837 -32.318  1.00  0.00     0.225 A 
HETATM   16  N   UNL     1     -16.417   1.774 -31.897  1.00  0.00    -0.081 NA
HETATM   17  O   UNL     1     -17.653   2.303 -31.518  1.00  0.00    -0.103 OA
HETATM   18  N   UNL     1     -17.699   3.672 -31.736  1.00  0.00    -0.083 NA
HETATM   19  C   UNL     1     -16.510   4.003 -32.235  1.00  0.00     0.201 A 
BRANCH  19  20
HETATM   20  N   UNL     1     -16.153   5.250 -32.583  1.00  0.00    -0.379 N 
HETATM   21  H   UNL     1     -16.161   5.527 -33.561  1.00  0.00     0.158 HD
HETATM   22  H   UNL     1     -15.668   5.893 -31.962  1.00  0.00     0.158 HD
ENDBRANCH  19  20
ENDBRANCH   7  15
ENDBRANCH   1   5
BRANCH   2  23
HETATM   23  N   UNL     1      -8.926   2.106 -31.626  1.00  0.00    -0.184 NA
HETATM   24  C   UNL     1      -8.319   0.964 -31.553  1.00  0.00     0.150 C 
BRANCH  24  25
HETATM   25  C   UNL     1      -6.855   0.892 -31.361  1.00  0.00    -0.014 A 
HETATM   26  C   UNL     1      -6.162  -0.249 -31.774  1.00  0.00     0.049 A 
HETATM   27  C   UNL     1      -4.773  -0.316 -31.625  1.00  0.00     0.070 A 
HETATM   28  C   UNL     1      -4.089   0.752 -31.038  1.00  0.00     0.037 A 
HETATM   29  C   UNL     1      -4.784   1.888 -30.620  1.00  0.00     0.004 A 
HETATM   30  C   UNL     1      -6.165   1.962 -30.782  1.00  0.00     0.013 A 
BRANCH  27  31
HETATM   31  O   UNL     1      -4.196  -1.478 -32.062  1.00  0.00    -0.346 OA
BRANCH  31  32
HETATM   32  C   UNL     1      -3.948  -1.562 -33.468  1.00  0.00     0.219 C 
BRANCH  32  33
HETATM   33  C   UNL     1      -4.744  -2.696 -34.059  1.00  0.00     0.026 A 
HETATM   34  C   UNL     1      -5.936  -2.503 -34.772  1.00  0.00     0.045 A 
HETATM   35 CL   UNL     1      -6.599  -0.928 -35.033  1.00  0.00    -0.084 Cl
HETATM   36  C   UNL     1      -6.624  -3.592 -35.322  1.00  0.00     0.024 A 
HETATM   37  C   UNL     1      -6.129  -4.889 -35.174  1.00  0.00     0.005 A 
HETATM   38  C   UNL     1      -4.944  -5.094 -34.475  1.00  0.00     0.043 A 
HETATM   39  C   UNL     1      -4.269  -4.005 -33.928  1.00  0.00     0.126 A 
HETATM   40  F   UNL     1      -3.121  -4.238 -33.273  1.00  0.00    -0.205 F 
ENDBRANCH  32  33
ENDBRANCH  31  32
ENDBRANCH  27  31
ENDBRANCH  24  25
ENDBRANCH   2  23
TORSDOF 10
ENDMDL
MODEL 8
REMARK VINA RESULT:      -8.1      7.326     11.450
REMARK  10 active torsions:
REMARK  status: ('A' for Active; 'I' for Inactive)
REMARK    1  A    between atoms: N_2  and  C_4 
REMARK    2  A    between atoms: C_4  and  C_5 
REMARK    3  A    between atoms: N_6  and  C_7 
REMARK    4  A    between atoms: C_11  and  N_12 
REMARK    5  A    between atoms: C_15  and  C_16 
REMARK       I    between atoms: C_16  and  N_17 
REMARK    6  A    between atoms: N_17  and  N_18 
REMARK    7  A    between atoms: C_19  and  C_20 
REMARK    8  A    between atoms: C_22  and  O_23 
REMARK    9  A    between atoms: O_23  and  C_24 
REMARK   10  A    between atoms: C_24  and  C_25 
ROOT
HETATM    1  C   UNL     1     -12.177   3.434 -32.826  1.00  0.00     0.293 C 
HETATM    2  N   UNL     1     -11.275   3.480 -31.781  1.00  0.00    -0.242 N 
HETATM    3  O   UNL     1     -11.924   3.093 -33.983  1.00  0.00    -0.264 OA
HETATM    4  H   UNL     1     -11.564   3.789 -30.856  1.00  0.00     0.192 HD
ENDROOT
BRANCH   1   5
HETATM    5  C   UNL     1     -13.530   3.853 -32.486  1.00  0.00     0.170 A 
HETATM    6  C   UNL     1     -14.643   3.024 -32.403  1.00  0.00     0.096 A 
HETATM    7  N   UNL     1     -15.703   3.896 -32.155  1.00  0.00    -0.215 N 
HETATM    8  N   UNL     1     -15.195   5.149 -31.981  1.00  0.00     0.012 NA
HETATM    9  N   UNL     1     -13.891   5.133 -32.207  1.00  0.00    -0.152 NA
BRANCH   6  10
HETATM   10  C   UNL     1     -14.711   1.542 -32.467  1.00  0.00     0.295 C 
BRANCH  10  11
HETATM   11  N   UNL     1     -14.306   0.963 -33.800  1.00  0.00    -0.073 N 
HETATM   12  C   UNL     1     -15.460   0.535 -34.652  1.00  0.00     0.269 C 
HETATM   13  H   UNL     1     -13.798   1.726 -34.295  1.00  0.00     0.279 HD
HETATM   14  C   UNL     1     -13.289  -0.131 -33.652  1.00  0.00     0.269 C 
ENDBRANCH  10  11
ENDBRANCH   6  10
BRANCH   7  15
HETATM   15  C   UNL     1     -17.094   3.640 -32.124  1.00  0.00     0.225 A 
HETATM   16  N   UNL     1     -17.597   2.581 -32.763  1.00  0.00    -0.081 NA
HETATM   17  O   UNL     1     -18.972   2.674 -32.535  1.00  0.00    -0.103 OA
HETATM   18  N   UNL     1     -19.279   3.797 -31.782  1.00  0.00    -0.083 NA
HETATM   19  C   UNL     1     -18.118   4.397 -31.530  1.00  0.00     0.201 A 
BRANCH  19  20
HETATM   20  N   UNL     1     -17.987   5.531 -30.822  1.00  0.00    -0.379 N 
HETATM   21  H   UNL     1     -18.448   5.624 -29.921  1.00  0.00     0.158 HD
HETATM   22  H   UNL     1     -17.627   6.400 -31.209  1.00  0.00     0.158 HD
ENDBRANCH  19  20
ENDBRANCH   7  15
ENDBRANCH   1   5
BRANCH   2  23
HETATM   23  N   UNL     1     -10.001   3.052 -31.994  1.00  0.00    -0.184 NA
HETATM   24  C   UNL     1      -9.443   2.386 -31.033  1.00  0.00     0.150 C 
BRANCH  24  25
HETATM   25  C   UNL     1      -8.072   1.851 -31.175  1.00  0.00    -0.014 A 
HETATM   26  C   UNL     1      -7.837   0.783 -32.045  1.00  0.00     0.049 A 
HETATM   27  C   UNL     1      -6.540   0.288 -32.210  1.00  0.00     0.070 A 
HETATM   28  C   UNL     1      -5.488   0.851 -31.482  1.00  0.00     0.037 A 
HETATM   29  C   UNL     1      -5.726   1.914 -30.609  1.00  0.00     0.004 A 
HETATM   30  C   UNL     1      -7.016   2.418 -30.455  1.00  0.00     0.013 A 
BRANCH  27  31
HETATM   31  O   UNL     1      -6.423  -0.759 -33.085  1.00  0.00    -0.346 OA
BRANCH  31  32
HETATM   32  C   UNL     1      -5.169  -0.866 -33.766  1.00  0.00     0.219 C 
BRANCH  32  33
HETATM   33  C   UNL     1      -4.659  -2.281 -33.669  1.00  0.00     0.026 A 
HETATM   34  C   UNL     1      -3.659  -2.672 -32.768  1.00  0.00     0.045 A 
HETATM   35 CL   UNL     1      -2.918  -1.548 -31.682  1.00  0.00    -0.084 Cl
HETATM   36  C   UNL     1      -3.238  -4.007 -32.701  1.00  0.00     0.024 A 
HETATM   37  C   UNL     1      -3.815  -4.971 -33.528  1.00  0.00     0.005 A 
HETATM   38  C   UNL     1      -4.814  -4.599 -34.422  1.00  0.00     0.043 A 
HETATM   39  C   UNL     1      -5.222  -3.268 -34.484  1.00  0.00     0.126 A 
HETATM   40  F   UNL     1      -6.198  -2.946 -35.346  1.00  0.00    -0.205 F 
ENDBRANCH  32  33
ENDBRANCH  31  32
ENDBRANCH  27  31
ENDBRANCH  24  25
ENDBRANCH   2  23
TORSDOF 10
ENDMDL
MODEL 9
REMARK VINA RESULT:      -7.9      4.362      6.202
REMARK  10 active torsions:
REMARK  status: ('A' for Active; 'I' for Inactive)
REMARK    1  A    between atoms: N_2  and  C_4 
REMARK    2  A    between atoms: C_4  and  C_5 
REMARK    3  A    between atoms: N_6  and  C_7 
REMARK    4  A    between atoms: C_11  and  N_12 
REMARK    5  A    between atoms: C_15  and  C_16 
REMARK       I    between atoms: C_16  and  N_17 
REMARK    6  A    between atoms: N_17  and  N_18 
REMARK    7  A    between atoms: C_19  and  C_20 
REMARK    8  A    between atoms: C_22  and  O_23 
REMARK    9  A    between atoms: O_23  and  C_24 
REMARK   10  A    between atoms: C_24  and  C_25 
ROOT
HETATM    1  C   UNL     1      -8.495   4.971 -32.628  1.00  0.00     0.293 C 
HETATM    2  N   UNL     1      -7.528   4.844 -33.604  1.00  0.00    -0.242 N 
HETATM    3  O   UNL     1      -8.296   5.271 -31.450  1.00  0.00    -0.264 OA
HETATM    4  H   UNL     1      -7.777   4.577 -34.554  1.00  0.00     0.192 HD
ENDROOT
BRANCH   1   5
HETATM    5  C   UNL     1      -9.855   4.699 -33.074  1.00  0.00     0.170 A 
HETATM    6  C   UNL     1     -10.512   3.477 -32.989  1.00  0.00     0.096 A 
HETATM    7  N   UNL     1     -11.730   3.695 -33.632  1.00  0.00    -0.215 N 
HETATM    8  N   UNL     1     -11.811   5.016 -33.955  1.00  0.00     0.012 NA
HETATM    9  N   UNL     1     -10.675   5.619 -33.647  1.00  0.00    -0.152 NA
BRANCH   6  10
HETATM   10  C   UNL     1     -10.083   2.232 -32.302  1.00  0.00     0.295 C 
BRANCH  10  11
HETATM   11  N   UNL     1      -9.707   1.109 -33.236  1.00  0.00    -0.073 N 
HETATM   12  C   UNL     1      -9.973  -0.257 -32.685  1.00  0.00     0.269 C 
HETATM   13  H   UNL     1     -10.296   1.241 -34.085  1.00  0.00     0.279 HD
HETATM   14  C   UNL     1      -8.296   1.241 -33.733  1.00  0.00     0.269 C 
ENDBRANCH  10  11
ENDBRANCH   6  10
BRANCH   7  15
HETATM   15  C   UNL     1     -12.743   2.772 -33.984  1.00  0.00     0.225 A 
HETATM   16  N   UNL     1     -12.850   2.339 -35.242  1.00  0.00    -0.081 NA
HETATM   17  O   UNL     1     -13.955   1.485 -35.210  1.00  0.00    -0.103 OA
HETATM   18  N   UNL     1     -14.510   1.433 -33.940  1.00  0.00    -0.083 NA
HETATM   19  C   UNL     1     -13.763   2.232 -33.182  1.00  0.00     0.201 A 
BRANCH  19  20
HETATM   20  N   UNL     1     -13.977   2.457 -31.875  1.00  0.00    -0.379 N 
HETATM   21  H   UNL     1     -14.893   2.755 -31.553  1.00  0.00     0.158 HD
HETATM   22  H   UNL     1     -13.231   2.555 -31.189  1.00  0.00     0.158 HD
ENDBRANCH  19  20
ENDBRANCH   7  15
ENDBRANCH   1   5
BRANCH   2  23
HETATM   23  N   UNL     1      -6.236   5.136 -33.291  1.00  0.00    -0.184 NA
HETATM   24  C   UNL     1      -5.338   4.817 -34.168  1.00  0.00     0.150 C 
BRANCH  24  25
HETATM   25  C   UNL     1      -3.909   5.117 -33.936  1.00  0.00    -0.014 A 
HETATM   26  C   UNL     1      -3.445   5.291 -32.630  1.00  0.00     0.049 A 
HETATM   27  C   UNL     1      -2.090   5.545 -32.397  1.00  0.00     0.070 A 
HETATM   28  C   UNL     1      -1.211   5.648 -33.478  1.00  0.00     0.037 A 
HETATM   29  C   UNL     1      -1.677   5.480 -34.783  1.00  0.00     0.004 A 
HETATM   30  C   UNL     1      -3.024   5.211 -35.015  1.00  0.00     0.013 A 
BRANCH  27  31
HETATM   31  O   UNL     1      -1.745   5.700 -31.081  1.00  0.00    -0.346 OA
BRANCH  31  32
HETATM   32  C   UNL     1      -2.168   6.919 -30.463  1.00  0.00     0.219 C 
BRANCH  32  33
HETATM   33  C   UNL     1      -1.276   7.230 -29.289  1.00  0.00     0.026 A 
HETATM   34  C   UNL     1      -1.751   7.328 -27.974  1.00  0.00     0.045 A 
HETATM   35 CL   UNL     1      -3.421   7.100 -27.587  1.00  0.00    -0.084 Cl
HETATM   36  C   UNL     1      -0.874   7.594 -26.915  1.00  0.00     0.024 A 
HETATM   37  C   UNL     1       0.491   7.759 -27.152  1.00  0.00     0.005 A 
HETATM   38  C   UNL     1       0.978   7.657 -28.451  1.00  0.00     0.043 A 
HETATM   39  C   UNL     1       0.097   7.397 -29.499  1.00  0.00     0.126 A 
HETATM   40  F   UNL     1       0.602   7.289 -30.738  1.00  0.00    -0.205 F 
ENDBRANCH  32  33
ENDBRANCH  31  32
ENDBRANCH  27  31
ENDBRANCH  24  25
ENDBRANCH   2  23
TORSDOF 10
ENDMDL
MODEL 10
REMARK VINA RESULT:      -7.8      2.128      2.776
REMARK  10 active torsions:
REMARK  status: ('A' for Active; 'I' for Inactive)
REMARK    1  A    between atoms: N_2  and  C_4 
REMARK    2  A    between atoms: C_4  and  C_5 
REMARK    3  A    between atoms: N_6  and  C_7 
REMARK    4  A    between atoms: C_11  and  N_12 
REMARK    5  A    between atoms: C_15  and  C_16 
REMARK       I    between atoms: C_16  and  N_17 
REMARK    6  A    between atoms: N_17  and  N_18 
REMARK    7  A    between atoms: C_19  and  C_20 
REMARK    8  A    between atoms: C_22  and  O_23 
REMARK    9  A    between atoms: O_23  and  C_24 
REMARK   10  A    between atoms: C_24  and  C_25 
ROOT
HETATM    1  C   UNL     1      -4.741   0.961 -31.813  1.00  0.00     0.293 C 
HETATM    2  N   UNL     1      -4.398   2.163 -32.398  1.00  0.00    -0.242 N 
HETATM    3  O   UNL     1      -5.135   0.808 -30.655  1.00  0.00    -0.264 OA
HETATM    4  H   UNL     1      -4.067   2.201 -33.359  1.00  0.00     0.192 HD
ENDROOT
BRANCH   1   5
HETATM    5  C   UNL     1      -4.592  -0.204 -32.674  1.00  0.00     0.170 A 
HETATM    6  C   UNL     1      -5.627  -0.979 -33.185  1.00  0.00     0.096 A 
HETATM    7  N   UNL     1      -4.981  -2.019 -33.852  1.00  0.00    -0.215 N 
HETATM    8  N   UNL     1      -3.640  -1.776 -33.827  1.00  0.00     0.012 NA
HETATM    9  N   UNL     1      -3.398  -0.700 -33.096  1.00  0.00    -0.152 NA
BRANCH   6  10
HETATM   10  C   UNL     1      -7.090  -0.736 -33.129  1.00  0.00     0.295 C 
BRANCH  10  11
HETATM   11  N   UNL     1      -7.546   0.474 -33.906  1.00  0.00    -0.073 N 
HETATM   12  C   UNL     1      -9.009   0.762 -33.782  1.00  0.00     0.269 C 
HETATM   13  H   UNL     1      -7.018   1.279 -33.508  1.00  0.00     0.279 HD
HETATM   14  C   UNL     1      -7.112   0.415 -35.342  1.00  0.00     0.269 C 
ENDBRANCH  10  11
ENDBRANCH   6  10
BRANCH   7  15
HETATM   15  C   UNL     1      -5.520  -3.191 -34.435  1.00  0.00     0.225 A 
HETATM   16  N   UNL     1      -6.738  -3.171 -34.981  1.00  0.00    -0.081 NA
HETATM   17  O   UNL     1      -6.932  -4.484 -35.416  1.00  0.00    -0.103 OA
HETATM   18  N   UNL     1      -5.840  -5.280 -35.106  1.00  0.00    -0.083 NA
HETATM   19  C   UNL     1      -4.966  -4.481 -34.496  1.00  0.00     0.201 A 
BRANCH  19  20
HETATM   20  N   UNL     1      -3.769  -4.877 -34.035  1.00  0.00    -0.379 N 
HETATM   21  H   UNL     1      -2.993  -4.222 -34.007  1.00  0.00     0.158 HD
HETATM   22  H   UNL     1      -3.510  -5.852 -33.900  1.00  0.00     0.158 HD
ENDBRANCH  19  20
ENDBRANCH   7  15
ENDBRANCH   1   5
BRANCH   2  23
HETATM   23  N   UNL     1      -4.561   3.311 -31.684  1.00  0.00    -0.184 NA
HETATM   24  C   UNL     1      -5.501   4.111 -32.077  1.00  0.00     0.150 C 
BRANCH  24  25
HETATM   25  C   UNL     1      -5.780   5.370 -31.353  1.00  0.00    -0.014 A 
HETATM   26  C   UNL     1      -4.778   5.948 -30.569  1.00  0.00     0.049 A 
HETATM   27  C   UNL     1      -5.021   7.155 -29.904  1.00  0.00     0.070 A 
HETATM   28  C   UNL     1      -6.276   7.761 -30.009  1.00  0.00     0.037 A 
HETATM   29  C   UNL     1      -7.276   7.178 -30.788  1.00  0.00     0.004 A 
HETATM   30  C   UNL     1      -7.031   5.985 -31.463  1.00  0.00     0.013 A 
BRANCH  27  31
HETATM   31  O   UNL     1      -3.972   7.632 -29.164  1.00  0.00    -0.346 OA
BRANCH  31  32
HETATM   32  C   UNL     1      -3.158   8.622 -29.801  1.00  0.00     0.219 C 
BRANCH  32  33
HETATM   33  C   UNL     1      -1.850   8.007 -30.224  1.00  0.00     0.026 A 
HETATM   34  C   UNL     1      -0.802   7.749 -29.330  1.00  0.00     0.045 A 
HETATM   35 CL   UNL     1      -0.925   8.124 -27.646  1.00  0.00    -0.084 Cl
HETATM   36  C   UNL     1       0.386   7.152 -29.773  1.00  0.00     0.024 A 
HETATM   37  C   UNL     1       0.541   6.796 -31.113  1.00  0.00     0.005 A 
HETATM   38  C   UNL     1      -0.494   7.039 -32.010  1.00  0.00     0.043 A 
HETATM   39  C   UNL     1      -1.669   7.638 -31.562  1.00  0.00     0.126 A 
HETATM   40  F   UNL     1      -2.653   7.844 -32.451  1.00  0.00    -0.205 F 
ENDBRANCH  32  33
ENDBRANCH  31  32
ENDBRANCH  27  31
ENDBRANCH  24  25
ENDBRANCH   2  23
TORSDOF 10
ENDMDL
