MODEL 1
REMARK VINA RESULT:      -8.8      0.000      0.000
REMARK  4 active torsions:
REMARK  status: ('A' for Active; 'I' for Inactive)
REMARK    1  A    between atoms: C_7  and  C_8 
REMARK    2  A    between atoms: C_11  and  O_12 
REMARK    3  A    between atoms: C_17  and  C_18 
REMARK    4  A    between atoms: C_25  and  C_26 
REMARK       I    between atoms: C_26  and  N_27 
ROOT
HETATM    1  C   UNL     1      -5.758   5.095 -28.488  1.00  0.00     0.070 C 
HETATM    2  C   UNL     1      -5.572   4.439 -29.835  1.00  0.00     0.037 C 
HETATM    3  N   UNL     1      -5.276   3.076 -29.804  1.00  0.00    -0.192 N 
HETATM    4  C   UNL     1      -5.293   2.303 -30.907  1.00  0.00     0.726 A 
HETATM    5  N   UNL     1      -5.409   2.895 -32.129  1.00  0.00    -0.083 N 
HETATM    6  N   UNL     1      -5.512   1.988 -33.117  1.00  0.00    -0.135 NA
HETATM    7  C   UNL     1      -5.375   0.837 -32.431  1.00  0.00     0.199 A 
HETATM    8  N   UNL     1      -5.246   1.007 -31.060  1.00  0.00    -0.041 NA
HETATM    9  C   UNL     1      -5.429   4.345 -32.336  1.00  0.00     0.202 C 
HETATM   10  C   UNL     1      -5.674   5.088 -31.025  1.00  0.00     0.062 C 
HETATM   11  H   UNL     1      -5.309   2.616 -28.898  1.00  0.00     0.184 HD
ENDROOT
BRANCH   7  12
HETATM   12  C   UNL     1      -5.358  -0.482 -33.057  1.00  0.00     0.014 A 
HETATM   13  C   UNL     1      -6.460  -0.949 -33.786  1.00  0.00     0.018 A 
HETATM   14  C   UNL     1      -6.428  -2.208 -34.393  1.00  0.00     0.037 A 
HETATM   15  C   UNL     1      -5.298  -3.020 -34.290  1.00  0.00     0.068 A 
HETATM   16  C   UNL     1      -4.199  -2.567 -33.560  1.00  0.00     0.037 A 
HETATM   17  C   UNL     1      -4.230  -1.307 -32.948  1.00  0.00     0.018 A 
BRANCH  15  18
HETATM   18  O   UNL     1      -5.395  -4.221 -34.937  1.00  0.00    -0.356 OA
HETATM   19  C   UNL     1      -6.682  -4.587 -35.418  1.00  0.00     0.210 C 
ENDBRANCH  15  18
ENDBRANCH   7  12
BRANCH   9  20
HETATM   20  C   UNL     1      -4.133   4.749 -33.048  1.00  0.00    -0.028 A 
HETATM   21  C   UNL     1      -4.172   5.107 -34.408  1.00  0.00     0.012 A 
HETATM   22  C   UNL     1      -3.004   5.466 -35.083  1.00  0.00     0.043 A 
HETATM   23  C   UNL     1      -1.792   5.464 -34.405  1.00  0.00     0.116 A 
HETATM   24  F   UNL     1      -0.673   5.810 -35.053  1.00  0.00    -0.206 F 
HETATM   25  C   UNL     1      -1.724   5.101 -33.066  1.00  0.00     0.043 A 
HETATM   26  C   UNL     1      -2.888   4.737 -32.389  1.00  0.00     0.012 A 
ENDBRANCH   9  20
BRANCH  10  27
HETATM   27  C   UNL     1      -6.190   6.481 -31.091  1.00  0.00     0.249 C 
HETATM   28  N   UNL     1      -5.279   7.486 -31.124  1.00  0.00    -0.366 N 
HETATM   29  H   UNL     1      -4.292   7.385 -30.933  1.00  0.00     0.159 HD
HETATM   30  H   UNL     1      -5.651   8.429 -31.125  1.00  0.00     0.159 HD
HETATM   31  O   UNL     1      -7.386   6.744 -31.148  1.00  0.00    -0.268 OA
ENDBRANCH  10  27
TORSDOF 4
ENDMDL
MODEL 2
REMARK VINA RESULT:      -8.7      1.686      2.030
REMARK  4 active torsions:
REMARK  status: ('A' for Active; 'I' for Inactive)
REMARK    1  A    between atoms: C_7  and  C_8 
REMARK    2  A    between atoms: C_11  and  O_12 
REMARK    3  A    between atoms: C_17  and  C_18 
REMARK    4  A    between atoms: C_25  and  C_26 
REMARK       I    between atoms: C_26  and  N_27 
ROOT
HETATM    1  C   UNL     1      -8.508   4.803 -30.334  1.00  0.00     0.070 C 
HETATM    2  C   UNL     1      -7.740   4.051 -31.394  1.00  0.00     0.037 C 
HETATM    3  N   UNL     1      -7.488   2.707 -31.115  1.00  0.00    -0.192 N 
HETATM    4  C   UNL     1      -7.010   1.850 -32.037  1.00  0.00     0.726 A 
HETATM    5  N   UNL     1      -6.570   2.338 -33.231  1.00  0.00    -0.083 N 
HETATM    6  N   UNL     1      -6.220   1.353 -34.077  1.00  0.00    -0.135 NA
HETATM    7  C   UNL     1      -6.403   0.266 -33.302  1.00  0.00     0.199 A 
HETATM    8  N   UNL     1      -6.899   0.548 -32.038  1.00  0.00    -0.041 NA
HETATM    9  C   UNL     1      -6.497   3.766 -33.552  1.00  0.00     0.202 C 
HETATM   10  C   UNL     1      -7.301   4.599 -32.558  1.00  0.00     0.062 C 
HETATM   11  H   UNL     1      -7.922   2.319 -30.281  1.00  0.00     0.184 HD
ENDROOT
BRANCH   7  12
HETATM   12  C   UNL     1      -6.107  -1.097 -33.735  1.00  0.00     0.014 A 
HETATM   13  C   UNL     1      -4.800  -1.602 -33.687  1.00  0.00     0.018 A 
HETATM   14  C   UNL     1      -4.531  -2.912 -34.090  1.00  0.00     0.037 A 
HETATM   15  C   UNL     1      -5.556  -3.744 -34.544  1.00  0.00     0.068 A 
HETATM   16  C   UNL     1      -6.858  -3.248 -34.603  1.00  0.00     0.037 A 
HETATM   17  C   UNL     1      -7.130  -1.933 -34.202  1.00  0.00     0.018 A 
BRANCH  15  18
HETATM   18  O   UNL     1      -5.157  -5.003 -34.899  1.00  0.00    -0.356 OA
HETATM   19  C   UNL     1      -4.107  -5.582 -34.135  1.00  0.00     0.210 C 
ENDBRANCH  15  18
ENDBRANCH   7  12
BRANCH   9  20
HETATM   20  C   UNL     1      -5.020   4.164 -33.647  1.00  0.00    -0.028 A 
HETATM   21  C   UNL     1      -4.579   4.935 -34.739  1.00  0.00     0.012 A 
HETATM   22  C   UNL     1      -3.236   5.299 -34.855  1.00  0.00     0.043 A 
HETATM   23  C   UNL     1      -2.328   4.892 -33.886  1.00  0.00     0.116 A 
HETATM   24  F   UNL     1      -1.041   5.245 -33.999  1.00  0.00    -0.206 F 
HETATM   25  C   UNL     1      -2.735   4.120 -32.807  1.00  0.00     0.043 A 
HETATM   26  C   UNL     1      -4.075   3.749 -32.688  1.00  0.00     0.012 A 
ENDBRANCH   9  20
BRANCH  10  27
HETATM   27  C   UNL     1      -7.735   5.961 -32.971  1.00  0.00     0.249 C 
HETATM   28  N   UNL     1      -6.896   6.993 -32.704  1.00  0.00    -0.366 N 
HETATM   29  H   UNL     1      -6.088   6.946 -32.100  1.00  0.00     0.159 HD
HETATM   30  H   UNL     1      -7.229   7.917 -32.953  1.00  0.00     0.159 HD
HETATM   31  O   UNL     1      -8.790   6.172 -33.559  1.00  0.00    -0.268 OA
ENDBRANCH  10  27
TORSDOF 4
ENDMDL
MODEL 3
REMARK VINA RESULT:      -8.4      4.915      6.297
REMARK  4 active torsions:
REMARK  status: ('A' for Active; 'I' for Inactive)
REMARK    1  A    between atoms: C_7  and  C_8 
REMARK    2  A    between atoms: C_11  and  O_12 
REMARK    3  A    between atoms: C_17  and  C_18 
REMARK    4  A    between atoms: C_25  and  C_26 
REMARK       I    between atoms: C_26  and  N_27 
ROOT
HETATM    1  C   UNL     1     -13.699   0.837 -33.893  1.00  0.00     0.070 C 
HETATM    2  C   UNL     1     -12.232   1.196 -33.884  1.00  0.00     0.037 C 
HETATM    3  N   UNL     1     -11.406   0.331 -33.167  1.00  0.00    -0.192 N 
HETATM    4  C   UNL     1     -10.062   0.385 -33.236  1.00  0.00     0.726 A 
HETATM    5  N   UNL     1      -9.473   1.438 -33.871  1.00  0.00    -0.083 N 
HETATM    6  N   UNL     1      -8.137   1.295 -33.943  1.00  0.00    -0.135 NA
HETATM    7  C   UNL     1      -7.959   0.150 -33.257  1.00  0.00     0.199 A 
HETATM    8  N   UNL     1      -9.137  -0.436 -32.817  1.00  0.00    -0.041 NA
HETATM    9  C   UNL     1     -10.211   2.580 -34.415  1.00  0.00     0.202 C 
HETATM   10  C   UNL     1     -11.704   2.279 -34.515  1.00  0.00     0.062 C 
HETATM   11  H   UNL     1     -11.832  -0.515 -32.798  1.00  0.00     0.184 HD
ENDROOT
BRANCH   7  12
HETATM   12  C   UNL     1      -6.649  -0.438 -32.988  1.00  0.00     0.014 A 
HETATM   13  C   UNL     1      -5.987  -0.199 -31.776  1.00  0.00     0.018 A 
HETATM   14  C   UNL     1      -4.740  -0.777 -31.522  1.00  0.00     0.037 A 
HETATM   15  C   UNL     1      -4.135  -1.607 -32.467  1.00  0.00     0.068 A 
HETATM   16  C   UNL     1      -4.782  -1.845 -33.679  1.00  0.00     0.037 A 
HETATM   17  C   UNL     1      -6.030  -1.263 -33.937  1.00  0.00     0.018 A 
BRANCH  15  18
HETATM   18  O   UNL     1      -2.922  -2.115 -32.089  1.00  0.00    -0.356 OA
HETATM   19  C   UNL     1      -2.881  -3.496 -31.752  1.00  0.00     0.210 C 
ENDBRANCH  15  18
ENDBRANCH   7  12
BRANCH   9  20
HETATM   20  C   UNL     1      -9.881   3.815 -33.569  1.00  0.00    -0.028 A 
HETATM   21  C   UNL     1     -10.458   3.955 -32.293  1.00  0.00     0.012 A 
HETATM   22  C   UNL     1     -10.184   5.077 -31.508  1.00  0.00     0.043 A 
HETATM   23  C   UNL     1      -9.339   6.065 -31.994  1.00  0.00     0.116 A 
HETATM   24  F   UNL     1      -9.076   7.139 -31.239  1.00  0.00    -0.206 F 
HETATM   25  C   UNL     1      -8.767   5.958 -33.255  1.00  0.00     0.043 A 
HETATM   26  C   UNL     1      -9.041   4.841 -34.045  1.00  0.00     0.012 A 
ENDBRANCH   9  20
BRANCH  10  27
HETATM   27  C   UNL     1     -12.525   3.092 -35.451  1.00  0.00     0.249 C 
HETATM   28  N   UNL     1     -13.210   4.141 -34.933  1.00  0.00    -0.366 N 
HETATM   29  H   UNL     1     -13.353   4.316 -33.948  1.00  0.00     0.159 HD
HETATM   30  H   UNL     1     -13.798   4.655 -35.579  1.00  0.00     0.159 HD
HETATM   31  O   UNL     1     -12.576   2.867 -36.655  1.00  0.00    -0.268 OA
ENDBRANCH  10  27
TORSDOF 4
ENDMDL
MODEL 4
REMARK VINA RESULT:      -8.4      3.382      7.350
REMARK  4 active torsions:
REMARK  status: ('A' for Active; 'I' for Inactive)
REMARK    1  A    between atoms: C_7  and  C_8 
REMARK    2  A    between atoms: C_11  and  O_12 
REMARK    3  A    between atoms: C_17  and  C_18 
REMARK    4  A    between atoms: C_25  and  C_26 
REMARK       I    between atoms: C_26  and  N_27 
ROOT
HETATM    1  C   UNL     1     -10.277   2.356 -34.327  1.00  0.00     0.070 C 
HETATM    2  C   UNL     1      -8.860   2.224 -33.823  1.00  0.00     0.037 C 
HETATM    3  N   UNL     1      -7.962   3.181 -34.294  1.00  0.00    -0.192 N 
HETATM    4  C   UNL     1      -6.726   3.334 -33.781  1.00  0.00     0.726 A 
HETATM    5  N   UNL     1      -6.253   2.403 -32.905  1.00  0.00    -0.083 N 
HETATM    6  N   UNL     1      -5.051   2.749 -32.408  1.00  0.00    -0.135 NA
HETATM    7  C   UNL     1      -4.805   3.886 -33.086  1.00  0.00     0.199 A 
HETATM    8  N   UNL     1      -5.831   4.273 -33.936  1.00  0.00    -0.041 NA
HETATM    9  C   UNL     1      -6.973   1.180 -32.545  1.00  0.00     0.202 C 
HETATM   10  C   UNL     1      -8.437   1.254 -32.968  1.00  0.00     0.062 C 
HETATM   11  H   UNL     1      -8.346   3.942 -34.850  1.00  0.00     0.184 HD
ENDROOT
BRANCH   7  12
HETATM   12  C   UNL     1      -3.572   4.657 -32.955  1.00  0.00     0.014 A 
HETATM   13  C   UNL     1      -2.746   4.512 -31.831  1.00  0.00     0.018 A 
HETATM   14  C   UNL     1      -1.561   5.244 -31.721  1.00  0.00     0.037 A 
HETATM   15  C   UNL     1      -1.174   6.128 -32.730  1.00  0.00     0.068 A 
HETATM   16  C   UNL     1      -1.992   6.285 -33.848  1.00  0.00     0.037 A 
HETATM   17  C   UNL     1      -3.183   5.555 -33.958  1.00  0.00     0.018 A 
BRANCH  15  18
HETATM   18  O   UNL     1       0.011   6.773 -32.502  1.00  0.00    -0.356 OA
HETATM   19  C   UNL     1       0.496   6.769 -31.165  1.00  0.00     0.210 C 
ENDBRANCH  15  18
ENDBRANCH   7  12
BRANCH   9  20
HETATM   20  C   UNL     1      -6.216  -0.017 -33.133  1.00  0.00    -0.028 A 
HETATM   21  C   UNL     1      -6.661  -0.594 -34.337  1.00  0.00     0.012 A 
HETATM   22  C   UNL     1      -5.996  -1.693 -34.885  1.00  0.00     0.043 A 
HETATM   23  C   UNL     1      -4.891  -2.222 -34.233  1.00  0.00     0.116 A 
HETATM   24  F   UNL     1      -4.254  -3.275 -34.763  1.00  0.00    -0.206 F 
HETATM   25  C   UNL     1      -4.440  -1.680 -33.038  1.00  0.00     0.043 A 
HETATM   26  C   UNL     1      -5.103  -0.585 -32.482  1.00  0.00     0.012 A 
ENDBRANCH   9  20
BRANCH  10  27
HETATM   27  C   UNL     1      -9.412   0.356 -32.293  1.00  0.00     0.249 C 
HETATM   28  N   UNL     1      -9.520   0.452 -30.943  1.00  0.00    -0.366 N 
HETATM   29  H   UNL     1      -8.881   0.949 -30.341  1.00  0.00     0.159 HD
HETATM   30  H   UNL     1     -10.157  -0.199 -30.498  1.00  0.00     0.159 HD
HETATM   31  O   UNL     1     -10.127  -0.428 -32.906  1.00  0.00    -0.268 OA
ENDBRANCH  10  27
TORSDOF 4
ENDMDL
MODEL 5
REMARK VINA RESULT:      -8.4      3.266      8.144
REMARK  4 active torsions:
REMARK  status: ('A' for Active; 'I' for Inactive)
REMARK    1  A    between atoms: C_7  and  C_8 
REMARK    2  A    between atoms: C_11  and  O_12 
REMARK    3  A    between atoms: C_17  and  C_18 
REMARK    4  A    between atoms: C_25  and  C_26 
REMARK       I    between atoms: C_26  and  N_27 
ROOT
HETATM    1  C   UNL     1      -3.120  -3.322 -31.848  1.00  0.00     0.070 C 
HETATM    2  C   UNL     1      -3.620  -1.939 -32.191  1.00  0.00     0.037 C 
HETATM    3  N   UNL     1      -3.222  -0.923 -31.322  1.00  0.00    -0.192 N 
HETATM    4  C   UNL     1      -3.399   0.383 -31.600  1.00  0.00     0.726 A 
HETATM    5  N   UNL     1      -4.166   0.734 -32.671  1.00  0.00    -0.083 N 
HETATM    6  N   UNL     1      -4.163   2.064 -32.874  1.00  0.00    -0.135 NA
HETATM    7  C   UNL     1      -3.422   2.486 -31.831  1.00  0.00     0.199 A 
HETATM    8  N   UNL     1      -2.932   1.463 -31.033  1.00  0.00    -0.041 NA
HETATM    9  C   UNL     1      -4.896  -0.225 -33.503  1.00  0.00     0.202 C 
HETATM   10  C   UNL     1      -4.408  -1.651 -33.261  1.00  0.00     0.062 C 
HETATM   11  H   UNL     1      -2.554  -1.171 -30.596  1.00  0.00     0.184 HD
ENDROOT
BRANCH   7  12
HETATM   12  C   UNL     1      -3.151   3.893 -31.547  1.00  0.00     0.014 A 
HETATM   13  C   UNL     1      -1.875   4.437 -31.750  1.00  0.00     0.018 A 
HETATM   14  C   UNL     1      -1.629   5.788 -31.488  1.00  0.00     0.037 A 
HETATM   15  C   UNL     1      -2.649   6.620 -31.026  1.00  0.00     0.068 A 
HETATM   16  C   UNL     1      -3.920   6.087 -30.813  1.00  0.00     0.037 A 
HETATM   17  C   UNL     1      -4.167   4.732 -31.071  1.00  0.00     0.018 A 
BRANCH  15  18
HETATM   18  O   UNL     1      -2.277   7.920 -30.819  1.00  0.00    -0.356 OA
HETATM   19  C   UNL     1      -1.467   8.182 -29.680  1.00  0.00     0.210 C 
ENDBRANCH  15  18
ENDBRANCH   7  12
BRANCH   9  20
HETATM   20  C   UNL     1      -6.397  -0.031 -33.259  1.00  0.00    -0.028 A 
HETATM   21  C   UNL     1      -7.262   0.129 -34.358  1.00  0.00     0.012 A 
HETATM   22  C   UNL     1      -8.631   0.321 -34.162  1.00  0.00     0.043 A 
HETATM   23  C   UNL     1      -9.141   0.358 -32.871  1.00  0.00     0.116 A 
HETATM   24  F   UNL     1     -10.455   0.540 -32.686  1.00  0.00    -0.206 F 
HETATM   25  C   UNL     1      -8.307   0.216 -31.770  1.00  0.00     0.043 A 
HETATM   26  C   UNL     1      -6.938   0.029 -31.960  1.00  0.00     0.012 A 
ENDBRANCH   9  20
BRANCH  10  27
HETATM   27  C   UNL     1      -4.670  -2.672 -34.311  1.00  0.00     0.249 C 
HETATM   28  N   UNL     1      -5.920  -3.198 -34.374  1.00  0.00    -0.366 N 
HETATM   29  H   UNL     1      -6.635  -3.089 -33.669  1.00  0.00     0.159 HD
HETATM   30  H   UNL     1      -6.066  -3.923 -35.067  1.00  0.00     0.159 HD
HETATM   31  O   UNL     1      -3.822  -3.023 -35.122  1.00  0.00    -0.268 OA
ENDBRANCH  10  27
TORSDOF 4
ENDMDL
MODEL 6
REMARK VINA RESULT:      -8.2      4.605      5.667
REMARK  4 active torsions:
REMARK  status: ('A' for Active; 'I' for Inactive)
REMARK    1  A    between atoms: C_7  and  C_8 
REMARK    2  A    between atoms: C_11  and  O_12 
REMARK    3  A    between atoms: C_17  and  C_18 
REMARK    4  A    between atoms: C_25  and  C_26 
REMARK       I    between atoms: C_26  and  N_27 
ROOT
HETATM    1  C   UNL     1      -8.665   5.641 -30.197  1.00  0.00     0.070 C 
HETATM    2  C   UNL     1      -8.849   4.378 -31.003  1.00  0.00     0.037 C 
HETATM    3  N   UNL     1      -7.677   3.801 -31.492  1.00  0.00    -0.192 N 
HETATM    4  C   UNL     1      -7.646   2.571 -32.040  1.00  0.00     0.726 A 
HETATM    5  N   UNL     1      -8.821   1.935 -32.309  1.00  0.00    -0.083 N 
HETATM    6  N   UNL     1      -8.622   0.683 -32.757  1.00  0.00    -0.135 NA
HETATM    7  C   UNL     1      -7.277   0.635 -32.811  1.00  0.00     0.199 A 
HETATM    8  N   UNL     1      -6.651   1.789 -32.364  1.00  0.00    -0.041 NA
HETATM    9  C   UNL     1     -10.140   2.545 -32.123  1.00  0.00     0.202 C 
HETATM   10  C   UNL     1     -10.053   3.803 -31.264  1.00  0.00     0.062 C 
HETATM   11  H   UNL     1      -6.798   4.211 -31.188  1.00  0.00     0.184 HD
ENDROOT
BRANCH   7  12
HETATM   12  C   UNL     1      -6.526  -0.520 -33.297  1.00  0.00     0.014 A 
HETATM   13  C   UNL     1      -5.176  -0.695 -32.961  1.00  0.00     0.018 A 
HETATM   14  C   UNL     1      -4.470  -1.811 -33.420  1.00  0.00     0.037 A 
HETATM   15  C   UNL     1      -5.097  -2.773 -34.214  1.00  0.00     0.068 A 
HETATM   16  C   UNL     1      -6.437  -2.603 -34.559  1.00  0.00     0.037 A 
HETATM   17  C   UNL     1      -7.145  -1.483 -34.104  1.00  0.00     0.018 A 
BRANCH  15  18
HETATM   18  O   UNL     1      -4.295  -3.817 -34.586  1.00  0.00    -0.356 OA
HETATM   19  C   UNL     1      -3.553  -4.456 -33.555  1.00  0.00     0.210 C 
ENDBRANCH  15  18
ENDBRANCH   7  12
BRANCH   9  20
HETATM   20  C   UNL     1     -10.764   2.777 -33.504  1.00  0.00    -0.028 A 
HETATM   21  C   UNL     1     -11.706   1.857 -34.002  1.00  0.00     0.012 A 
HETATM   22  C   UNL     1     -12.279   2.039 -35.263  1.00  0.00     0.043 A 
HETATM   23  C   UNL     1     -11.909   3.134 -36.033  1.00  0.00     0.116 A 
HETATM   24  F   UNL     1     -12.461   3.307 -37.240  1.00  0.00    -0.206 F 
HETATM   25  C   UNL     1     -10.972   4.048 -35.571  1.00  0.00     0.043 A 
HETATM   26  C   UNL     1     -10.393   3.869 -34.314  1.00  0.00     0.012 A 
ENDBRANCH   9  20
BRANCH  10  27
HETATM   27  C   UNL     1     -11.288   4.277 -30.583  1.00  0.00     0.249 C 
HETATM   28  N   UNL     1     -11.840   3.462 -29.649  1.00  0.00    -0.366 N 
HETATM   29  H   UNL     1     -11.592   2.495 -29.499  1.00  0.00     0.159 HD
HETATM   30  H   UNL     1     -12.704   3.784 -29.229  1.00  0.00     0.159 HD
HETATM   31  O   UNL     1     -11.793   5.370 -30.811  1.00  0.00    -0.268 OA
ENDBRANCH  10  27
TORSDOF 4
ENDMDL
MODEL 7
REMARK VINA RESULT:      -8.2      3.828      5.043
REMARK  4 active torsions:
REMARK  status: ('A' for Active; 'I' for Inactive)
REMARK    1  A    between atoms: C_7  and  C_8 
REMARK    2  A    between atoms: C_11  and  O_12 
REMARK    3  A    between atoms: C_17  and  C_18 
REMARK    4  A    between atoms: C_25  and  C_26 
REMARK       I    between atoms: C_26  and  N_27 
ROOT
HETATM    1  C   UNL     1     -12.074   3.695 -35.059  1.00  0.00     0.070 C 
HETATM    2  C   UNL     1     -10.673   3.330 -34.632  1.00  0.00     0.037 C 
HETATM    3  N   UNL     1     -10.413   1.963 -34.525  1.00  0.00    -0.192 N 
HETATM    4  C   UNL     1      -9.170   1.469 -34.367  1.00  0.00     0.726 A 
HETATM    5  N   UNL     1      -8.144   2.327 -34.106  1.00  0.00    -0.083 N 
HETATM    6  N   UNL     1      -6.957   1.694 -34.075  1.00  0.00    -0.135 NA
HETATM    7  C   UNL     1      -7.339   0.415 -34.256  1.00  0.00     0.199 A 
HETATM    8  N   UNL     1      -8.703   0.252 -34.447  1.00  0.00    -0.041 NA
HETATM    9  C   UNL     1      -8.317   3.766 -33.893  1.00  0.00     0.202 C 
HETATM   10  C   UNL     1      -9.694   4.233 -34.357  1.00  0.00     0.062 C 
HETATM   11  H   UNL     1     -11.144   1.328 -34.837  1.00  0.00     0.184 HD
ENDROOT
BRANCH   7  12
HETATM   12  C   UNL     1      -6.413  -0.714 -34.251  1.00  0.00     0.014 A 
HETATM   13  C   UNL     1      -6.770  -1.943 -34.823  1.00  0.00     0.018 A 
HETATM   14  C   UNL     1      -5.872  -3.013 -34.825  1.00  0.00     0.037 A 
HETATM   15  C   UNL     1      -4.601  -2.878 -34.264  1.00  0.00     0.068 A 
HETATM   16  C   UNL     1      -4.239  -1.662 -33.685  1.00  0.00     0.037 A 
HETATM   17  C   UNL     1      -5.140  -0.589 -33.678  1.00  0.00     0.018 A 
BRANCH  15  18
HETATM   18  O   UNL     1      -3.819  -3.997 -34.341  1.00  0.00    -0.356 OA
HETATM   19  C   UNL     1      -3.413  -4.582 -33.110  1.00  0.00     0.210 C 
ENDBRANCH  15  18
ENDBRANCH   7  12
BRANCH   9  20
HETATM   20  C   UNL     1      -8.018   4.076 -32.422  1.00  0.00    -0.028 A 
HETATM   21  C   UNL     1      -8.898   3.617 -31.424  1.00  0.00     0.012 A 
HETATM   22  C   UNL     1      -8.655   3.897 -30.078  1.00  0.00     0.043 A 
HETATM   23  C   UNL     1      -7.538   4.640 -29.723  1.00  0.00     0.116 A 
HETATM   24  F   UNL     1      -7.306   4.906 -28.431  1.00  0.00    -0.206 F 
HETATM   25  C   UNL     1      -6.661   5.117 -30.688  1.00  0.00     0.043 A 
HETATM   26  C   UNL     1      -6.901   4.843 -32.035  1.00  0.00     0.012 A 
ENDBRANCH   9  20
BRANCH  10  27
HETATM   27  C   UNL     1      -9.882   5.677 -34.663  1.00  0.00     0.249 C 
HETATM   28  N   UNL     1     -10.317   6.478 -33.658  1.00  0.00    -0.366 N 
HETATM   29  H   UNL     1     -10.689   6.158 -32.776  1.00  0.00     0.159 HD
HETATM   30  H   UNL     1     -10.480   7.449 -33.899  1.00  0.00     0.159 HD
HETATM   31  O   UNL     1      -9.632   6.160 -35.761  1.00  0.00    -0.268 OA
ENDBRANCH  10  27
TORSDOF 4
ENDMDL
MODEL 8
REMARK VINA RESULT:      -8.0     16.278     18.059
REMARK  4 active torsions:
REMARK  status: ('A' for Active; 'I' for Inactive)
REMARK    1  A    between atoms: C_7  and  C_8 
REMARK    2  A    between atoms: C_11  and  O_12 
REMARK    3  A    between atoms: C_17  and  C_18 
REMARK    4  A    between atoms: C_25  and  C_26 
REMARK       I    between atoms: C_26  and  N_27 
ROOT
HETATM    1  C   UNL     1      -1.481 -11.864 -38.352  1.00  0.00     0.070 C 
HETATM    2  C   UNL     1      -2.778 -12.595 -38.100  1.00  0.00     0.037 C 
HETATM    3  N   UNL     1      -3.915 -12.014 -38.662  1.00  0.00    -0.192 N 
HETATM    4  C   UNL     1      -5.104 -12.645 -38.714  1.00  0.00     0.726 A 
HETATM    5  N   UNL     1      -5.266 -13.810 -38.026  1.00  0.00    -0.083 N 
HETATM    6  N   UNL     1      -6.469 -14.366 -38.259  1.00  0.00    -0.135 NA
HETATM    7  C   UNL     1      -7.035 -13.439 -39.055  1.00  0.00     0.199 A 
HETATM    8  N   UNL     1      -6.207 -12.368 -39.357  1.00  0.00    -0.041 NA
HETATM    9  C   UNL     1      -4.247 -14.388 -37.146  1.00  0.00     0.202 C 
HETATM   10  C   UNL     1      -2.884 -13.744 -37.379  1.00  0.00     0.062 C 
HETATM   11  H   UNL     1      -3.771 -11.214 -39.273  1.00  0.00     0.184 HD
ENDROOT
BRANCH   7  12
HETATM   12  C   UNL     1      -8.401 -13.532 -39.563  1.00  0.00     0.014 A 
HETATM   13  C   UNL     1      -8.975 -14.775 -39.864  1.00  0.00     0.018 A 
HETATM   14  C   UNL     1     -10.288 -14.855 -40.336  1.00  0.00     0.037 A 
HETATM   15  C   UNL     1     -11.054 -13.701 -40.511  1.00  0.00     0.068 A 
HETATM   16  C   UNL     1     -10.489 -12.460 -40.222  1.00  0.00     0.037 A 
HETATM   17  C   UNL     1      -9.171 -12.377 -39.752  1.00  0.00     0.018 A 
BRANCH  15  18
HETATM   18  O   UNL     1     -12.324 -13.921 -40.970  1.00  0.00    -0.356 OA
HETATM   19  C   UNL     1     -12.518 -15.062 -41.796  1.00  0.00     0.210 C 
ENDBRANCH  15  18
ENDBRANCH   7  12
BRANCH   9  20
HETATM   20  C   UNL     1      -4.744 -14.286 -35.699  1.00  0.00    -0.028 A 
HETATM   21  C   UNL     1      -4.892 -13.019 -35.106  1.00  0.00     0.012 A 
HETATM   22  C   UNL     1      -5.330 -12.899 -33.785  1.00  0.00     0.043 A 
HETATM   23  C   UNL     1      -5.617 -14.043 -33.052  1.00  0.00     0.116 A 
HETATM   24  F   UNL     1      -6.039 -13.926 -31.786  1.00  0.00    -0.206 F 
HETATM   25  C   UNL     1      -5.466 -15.305 -33.609  1.00  0.00     0.043 A 
HETATM   26  C   UNL     1      -5.025 -15.430 -34.927  1.00  0.00     0.012 A 
ENDBRANCH   9  20
BRANCH  10  27
HETATM   27  C   UNL     1      -1.670 -14.489 -36.951  1.00  0.00     0.249 C 
HETATM   28  N   UNL     1      -1.369 -14.487 -35.628  1.00  0.00    -0.366 N 
HETATM   29  H   UNL     1      -1.790 -13.886 -34.935  1.00  0.00     0.159 HD
HETATM   30  H   UNL     1      -0.514 -14.963 -35.363  1.00  0.00     0.159 HD
HETATM   31  O   UNL     1      -0.967 -15.118 -37.734  1.00  0.00    -0.268 OA
ENDBRANCH  10  27
TORSDOF 4
ENDMDL
MODEL 9
REMARK VINA RESULT:      -7.9      4.027      5.132
REMARK  4 active torsions:
REMARK  status: ('A' for Active; 'I' for Inactive)
REMARK    1  A    between atoms: C_7  and  C_8 
REMARK    2  A    between atoms: C_11  and  O_12 
REMARK    3  A    between atoms: C_17  and  C_18 
REMARK    4  A    between atoms: C_25  and  C_26 
REMARK       I    between atoms: C_26  and  N_27 
ROOT
HETATM    1  C   UNL     1      -6.707   6.329 -31.724  1.00  0.00     0.070 C 
HETATM    2  C   UNL     1      -7.226   4.965 -32.110  1.00  0.00     0.037 C 
HETATM    3  N   UNL     1      -6.308   4.129 -32.746  1.00  0.00    -0.192 N 
HETATM    4  C   UNL     1      -6.542   2.820 -32.960  1.00  0.00     0.726 A 
HETATM    5  N   UNL     1      -7.790   2.324 -32.727  1.00  0.00    -0.083 N 
HETATM    6  N   UNL     1      -7.835   0.989 -32.889  1.00  0.00    -0.135 NA
HETATM    7  C   UNL     1      -6.579   0.732 -33.300  1.00  0.00     0.199 A 
HETATM    8  N   UNL     1      -5.757   1.849 -33.344  1.00  0.00    -0.041 NA
HETATM    9  C   UNL     1      -8.937   3.147 -32.339  1.00  0.00     0.202 C 
HETATM   10  C   UNL     1      -8.494   4.532 -31.876  1.00  0.00     0.062 C 
HETATM   11  H   UNL     1      -5.348   4.460 -32.809  1.00  0.00     0.184 HD
ENDROOT
BRANCH   7  12
HETATM   12  C   UNL     1      -6.104  -0.598 -33.674  1.00  0.00     0.014 A 
HETATM   13  C   UNL     1      -4.796  -1.007 -33.379  1.00  0.00     0.018 A 
HETATM   14  C   UNL     1      -4.357  -2.286 -33.729  1.00  0.00     0.037 A 
HETATM   15  C   UNL     1      -5.212  -3.182 -34.372  1.00  0.00     0.068 A 
HETATM   16  C   UNL     1      -6.513  -2.782 -34.677  1.00  0.00     0.037 A 
HETATM   17  C   UNL     1      -6.954  -1.498 -34.330  1.00  0.00     0.018 A 
BRANCH  15  18
HETATM   18  O   UNL     1      -4.660  -4.402 -34.649  1.00  0.00    -0.356 OA
HETATM   19  C   UNL     1      -3.560  -4.806 -33.843  1.00  0.00     0.210 C 
ENDBRANCH  15  18
ENDBRANCH   7  12
BRANCH   9  20
HETATM   20  C   UNL     1      -9.932   3.170 -33.506  1.00  0.00    -0.028 A 
HETATM   21  C   UNL     1      -9.827   4.176 -34.485  1.00  0.00     0.012 A 
HETATM   22  C   UNL     1     -10.728   4.226 -35.551  1.00  0.00     0.043 A 
HETATM   23  C   UNL     1     -11.739   3.279 -35.640  1.00  0.00     0.116 A 
HETATM   24  F   UNL     1     -12.600   3.329 -36.664  1.00  0.00    -0.206 F 
HETATM   25  C   UNL     1     -11.872   2.285 -34.680  1.00  0.00     0.043 A 
HETATM   26  C   UNL     1     -10.977   2.232 -33.611  1.00  0.00     0.012 A 
ENDBRANCH   9  20
BRANCH  10  27
HETATM   27  C   UNL     1      -9.422   5.318 -31.019  1.00  0.00     0.249 C 
HETATM   28  N   UNL     1      -9.340   5.135 -29.677  1.00  0.00    -0.366 N 
HETATM   29  H   UNL     1      -8.833   4.392 -29.219  1.00  0.00     0.159 HD
HETATM   30  H   UNL     1     -10.010   5.647 -29.114  1.00  0.00     0.159 HD
HETATM   31  O   UNL     1     -10.217   6.131 -31.474  1.00  0.00    -0.268 OA
ENDBRANCH  10  27
TORSDOF 4
ENDMDL
MODEL 10
REMARK VINA RESULT:      -7.8      2.995      4.253
REMARK  4 active torsions:
REMARK  status: ('A' for Active; 'I' for Inactive)
REMARK    1  A    between atoms: C_7  and  C_8 
REMARK    2  A    between atoms: C_11  and  O_12 
REMARK    3  A    between atoms: C_17  and  C_18 
REMARK    4  A    between atoms: C_25  and  C_26 
REMARK       I    between atoms: C_26  and  N_27 
ROOT
HETATM    1  C   UNL     1      -3.682   6.267 -30.368  1.00  0.00     0.070 C 
HETATM    2  C   UNL     1      -4.572   5.073 -30.618  1.00  0.00     0.037 C 
HETATM    3  N   UNL     1      -4.198   4.258 -31.687  1.00  0.00    -0.192 N 
HETATM    4  C   UNL     1      -4.751   3.050 -31.909  1.00  0.00     0.726 A 
HETATM    5  N   UNL     1      -5.848   2.681 -31.188  1.00  0.00    -0.083 N 
HETATM    6  N   UNL     1      -6.218   1.415 -31.453  1.00  0.00    -0.135 NA
HETATM    7  C   UNL     1      -5.336   1.081 -32.415  1.00  0.00     0.199 A 
HETATM    8  N   UNL     1      -4.414   2.074 -32.708  1.00  0.00    -0.041 NA
HETATM    9  C   UNL     1      -6.533   3.559 -30.236  1.00  0.00     0.202 C 
HETATM   10  C   UNL     1      -5.673   4.769 -29.881  1.00  0.00     0.062 C 
HETATM   11  H   UNL     1      -3.315   4.470 -32.144  1.00  0.00     0.184 HD
ENDROOT
BRANCH   7  12
HETATM   12  C   UNL     1      -5.338  -0.208 -33.103  1.00  0.00     0.014 A 
HETATM   13  C   UNL     1      -6.415  -0.591 -33.914  1.00  0.00     0.018 A 
HETATM   14  C   UNL     1      -6.400  -1.820 -34.579  1.00  0.00     0.037 A 
HETATM   15  C   UNL     1      -5.313  -2.685 -34.453  1.00  0.00     0.068 A 
HETATM   16  C   UNL     1      -4.240  -2.317 -33.642  1.00  0.00     0.037 A 
HETATM   17  C   UNL     1      -4.254  -1.086 -32.971  1.00  0.00     0.018 A 
BRANCH  15  18
HETATM   18  O   UNL     1      -5.422  -3.850 -35.163  1.00  0.00    -0.356 OA
HETATM   19  C   UNL     1      -6.710  -4.450 -35.215  1.00  0.00     0.210 C 
ENDBRANCH  15  18
ENDBRANCH   7  12
BRANCH   9  20
HETATM   20  C   UNL     1      -7.906   3.919 -30.814  1.00  0.00    -0.028 A 
HETATM   21  C   UNL     1      -9.069   3.410 -30.205  1.00  0.00     0.012 A 
HETATM   22  C   UNL     1     -10.331   3.713 -30.719  1.00  0.00     0.043 A 
HETATM   23  C   UNL     1     -10.438   4.519 -31.845  1.00  0.00     0.116 A 
HETATM   24  F   UNL     1     -11.650   4.810 -32.335  1.00  0.00    -0.206 F 
HETATM   25  C   UNL     1      -9.306   5.023 -32.472  1.00  0.00     0.043 A 
HETATM   26  C   UNL     1      -8.042   4.720 -31.965  1.00  0.00     0.012 A 
ENDBRANCH   9  20
BRANCH  10  27
HETATM   27  C   UNL     1      -5.969   5.496 -28.618  1.00  0.00     0.249 C 
HETATM   28  N   UNL     1      -5.345   5.072 -27.490  1.00  0.00    -0.366 N 
HETATM   29  H   UNL     1      -4.836   4.205 -27.396  1.00  0.00     0.159 HD
HETATM   30  H   UNL     1      -5.594   5.552 -26.633  1.00  0.00     0.159 HD
HETATM   31  O   UNL     1      -6.718   6.465 -28.570  1.00  0.00    -0.268 OA
ENDBRANCH  10  27
TORSDOF 4
ENDMDL
