MODEL 1
REMARK VINA RESULT:     -10.2      0.000      0.000
REMARK  4 active torsions:
REMARK  status: ('A' for Active; 'I' for Inactive)
REMARK    1  A    between atoms: C_6  and  C_7 
REMARK    2  A    between atoms: C_14  and  C_15 
REMARK       I    between atoms: C_15  and  N_16 
REMARK    3  A    between atoms: N_16  and  N_17 
REMARK       I    between atoms: N_17  and  C_18 
REMARK       I    between atoms: C_18  and  N_19 
REMARK    4  A    between atoms: N_19  and  C_20 
ROOT
HETATM    1  C   UNL     1      -7.838   1.833 -34.056  1.00  0.00     0.271 C 
HETATM    2  N   UNL     1      -8.887   1.109 -34.575  1.00  0.00    -0.262 N 
HETATM    3  O   UNL     1      -7.877   3.044 -33.867  1.00  0.00    -0.266 OA
HETATM    4  H   UNL     1      -8.879   0.101 -34.731  1.00  0.00     0.190 HD
ENDROOT
BRANCH   1   5
HETATM    5  C   UNL     1      -6.633   1.035 -33.737  1.00  0.00     0.048 A 
HETATM    6  C   UNL     1      -5.538   1.606 -33.056  1.00  0.00     0.009 A 
HETATM    7  C   UNL     1      -5.458   2.956 -32.625  1.00  0.00     0.015 A 
HETATM    8  C   UNL     1      -4.469   0.737 -32.777  1.00  0.00     0.068 A 
HETATM    9  C   UNL     1      -4.341   3.425 -31.936  1.00  0.00     0.001 A 
HETATM   10  C   UNL     1      -3.292   2.557 -31.667  1.00  0.00     0.002 A 
HETATM   11  C   UNL     1      -3.368   1.229 -32.089  1.00  0.00     0.032 A 
HETATM   12  N   UNL     1      -4.468  -0.558 -33.139  1.00  0.00    -0.248 NA
HETATM   13  C   UNL     1      -5.520  -1.082 -33.815  1.00  0.00     0.070 A 
HETATM   14  C   UNL     1      -6.627  -0.309 -34.124  1.00  0.00     0.050 A 
BRANCH  13  15
HETATM   15  C   UNL     1      -5.404  -2.509 -34.164  1.00  0.00     0.010 A 
HETATM   16  C   UNL     1      -4.259  -3.265 -33.903  1.00  0.00     0.130 A 
HETATM   17  N   UNL     1      -4.095  -4.575 -34.219  1.00  0.00    -0.272 NA
HETATM   18  C   UNL     1      -5.136  -5.186 -34.821  1.00  0.00     0.116 A 
HETATM   19  C   UNL     1      -6.326  -4.550 -35.119  1.00  0.00     0.020 A 
HETATM   20  C   UNL     1      -6.456  -3.203 -34.784  1.00  0.00     0.017 A 
ENDBRANCH  13  15
ENDBRANCH   1   5
BRANCH   2  21
HETATM   21  N   UNL     1     -10.077   1.778 -34.895  1.00  0.00    -0.249 N 
HETATM   22  C   UNL     1     -11.092   1.718 -33.953  1.00  0.00     0.339 C 
HETATM   23  N   UNL     1     -12.234   2.348 -34.396  1.00  0.00    -0.308 N 
HETATM   24  O   UNL     1     -10.914   1.195 -32.857  1.00  0.00    -0.245 OA
HETATM   25  H   UNL     1     -12.132   2.873 -35.253  1.00  0.00     0.170 HD
HETATM   26  H   UNL     1     -10.305   1.774 -35.888  1.00  0.00     0.192 HD
BRANCH  23  27
HETATM   27  C   UNL     1     -13.458   2.483 -33.710  1.00  0.00     0.038 A 
HETATM   28  C   UNL     1     -13.775   3.566 -32.886  1.00  0.00     0.055 A 
HETATM   29  C   UNL     1     -15.019   3.635 -32.245  1.00  0.00     0.058 A 
HETATM   30 CL   UNL     1     -15.336   5.009 -31.244  1.00  0.00    -0.082 Cl
HETATM   31  C   UNL     1     -15.957   2.612 -32.423  1.00  0.00     0.055 A 
HETATM   32 CL   UNL     1     -17.511   2.632 -31.672  1.00  0.00    -0.083 Cl
HETATM   33  C   UNL     1     -15.641   1.523 -33.236  1.00  0.00     0.028 A 
HETATM   34  C   UNL     1     -14.397   1.457 -33.872  1.00  0.00     0.031 A 
ENDBRANCH  23  27
ENDBRANCH   2  21
TORSDOF 4
ENDMDL
MODEL 2
REMARK VINA RESULT:     -10.1      5.106      8.935
REMARK  4 active torsions:
REMARK  status: ('A' for Active; 'I' for Inactive)
REMARK    1  A    between atoms: C_6  and  C_7 
REMARK    2  A    between atoms: C_14  and  C_15 
REMARK       I    between atoms: C_15  and  N_16 
REMARK    3  A    between atoms: N_16  and  N_17 
REMARK       I    between atoms: N_17  and  C_18 
REMARK       I    between atoms: C_18  and  N_19 
REMARK    4  A    between atoms: N_19  and  C_20 
ROOT
HETATM    1  C   UNL     1      -6.213   3.416 -33.830  1.00  0.00     0.271 C 
HETATM    2  N   UNL     1      -4.950   3.351 -33.288  1.00  0.00    -0.262 N 
HETATM    3  O   UNL     1      -6.702   4.441 -34.291  1.00  0.00    -0.266 OA
HETATM    4  H   UNL     1      -4.521   2.507 -32.909  1.00  0.00     0.190 HD
ENDROOT
BRANCH   1   5
HETATM    5  C   UNL     1      -6.958   2.136 -33.817  1.00  0.00     0.048 A 
HETATM    6  C   UNL     1      -8.359   2.109 -33.652  1.00  0.00     0.009 A 
HETATM    7  C   UNL     1      -9.183   3.250 -33.475  1.00  0.00     0.015 A 
HETATM    8  C   UNL     1      -8.956   0.837 -33.695  1.00  0.00     0.068 A 
HETATM    9  C   UNL     1     -10.565   3.125 -33.343  1.00  0.00     0.001 A 
HETATM   10  C   UNL     1     -11.143   1.864 -33.388  1.00  0.00     0.002 A 
HETATM   11  C   UNL     1     -10.334   0.740 -33.562  1.00  0.00     0.032 A 
HETATM   12  N   UNL     1      -8.251  -0.295 -33.871  1.00  0.00    -0.248 NA
HETATM   13  C   UNL     1      -6.902  -0.248 -34.003  1.00  0.00     0.070 A 
HETATM   14  C   UNL     1      -6.224   0.959 -33.988  1.00  0.00     0.050 A 
BRANCH  13  15
HETATM   15  C   UNL     1      -6.237  -1.551 -34.183  1.00  0.00     0.010 A 
HETATM   16  C   UNL     1      -4.888  -1.764 -33.891  1.00  0.00     0.130 A 
HETATM   17  N   UNL     1      -4.225  -2.937 -34.055  1.00  0.00    -0.272 NA
HETATM   18  C   UNL     1      -4.944  -3.976 -34.527  1.00  0.00     0.116 A 
HETATM   19  C   UNL     1      -6.288  -3.895 -34.838  1.00  0.00     0.020 A 
HETATM   20  C   UNL     1      -6.934  -2.672 -34.661  1.00  0.00     0.017 A 
ENDBRANCH  13  15
ENDBRANCH   1   5
BRANCH   2  21
HETATM   21  N   UNL     1      -4.163   4.511 -33.269  1.00  0.00    -0.249 N 
HETATM   22  C   UNL     1      -3.398   4.720 -32.131  1.00  0.00     0.339 C 
HETATM   23  N   UNL     1      -2.718   5.917 -32.190  1.00  0.00    -0.308 N 
HETATM   24  O   UNL     1      -3.339   3.879 -31.241  1.00  0.00    -0.245 OA
HETATM   25  H   UNL     1      -2.755   6.391 -33.081  1.00  0.00     0.170 HD
HETATM   26  H   UNL     1      -4.575   5.305 -33.756  1.00  0.00     0.192 HD
BRANCH  23  27
HETATM   27  C   UNL     1      -1.852   6.456 -31.218  1.00  0.00     0.038 A 
HETATM   28  C   UNL     1      -2.283   7.016 -30.012  1.00  0.00     0.055 A 
HETATM   29  C   UNL     1      -1.359   7.522 -29.089  1.00  0.00     0.058 A 
HETATM   30 CL   UNL     1      -1.974   8.197 -27.620  1.00  0.00    -0.082 Cl
HETATM   31  C   UNL     1       0.010   7.473 -29.369  1.00  0.00     0.055 A 
HETATM   32 CL   UNL     1       1.207   8.069 -28.277  1.00  0.00    -0.083 Cl
HETATM   33  C   UNL     1       0.446   6.924 -30.576  1.00  0.00     0.028 A 
HETATM   34  C   UNL     1      -0.480   6.422 -31.496  1.00  0.00     0.031 A 
ENDBRANCH  23  27
ENDBRANCH   2  21
TORSDOF 4
ENDMDL
MODEL 3
REMARK VINA RESULT:      -9.9      5.778      9.059
REMARK  4 active torsions:
REMARK  status: ('A' for Active; 'I' for Inactive)
REMARK    1  A    between atoms: C_6  and  C_7 
REMARK    2  A    between atoms: C_14  and  C_15 
REMARK       I    between atoms: C_15  and  N_16 
REMARK    3  A    between atoms: N_16  and  N_17 
REMARK       I    between atoms: N_17  and  C_18 
REMARK       I    between atoms: C_18  and  N_19 
REMARK    4  A    between atoms: N_19  and  C_20 
ROOT
HETATM    1  C   UNL     1      -3.714   1.913 -31.974  1.00  0.00     0.271 C 
HETATM    2  N   UNL     1      -3.659   3.091 -32.683  1.00  0.00    -0.262 N 
HETATM    3  O   UNL     1      -2.851   1.560 -31.177  1.00  0.00    -0.266 OA
HETATM    4  H   UNL     1      -4.369   3.408 -33.343  1.00  0.00     0.190 HD
ENDROOT
BRANCH   1   5
HETATM    5  C   UNL     1      -4.908   1.082 -32.246  1.00  0.00     0.048 A 
HETATM    6  C   UNL     1      -6.198   1.514 -31.875  1.00  0.00     0.009 A 
HETATM    7  C   UNL     1      -6.493   2.736 -31.217  1.00  0.00     0.015 A 
HETATM    8  C   UNL     1      -7.256   0.654 -32.222  1.00  0.00     0.068 A 
HETATM    9  C   UNL     1      -7.806   3.089 -30.911  1.00  0.00     0.001 A 
HETATM   10  C   UNL     1      -8.841   2.232 -31.258  1.00  0.00     0.002 A 
HETATM   11  C   UNL     1      -8.554   1.030 -31.906  1.00  0.00     0.032 A 
HETATM   12  N   UNL     1      -7.067  -0.516 -32.857  1.00  0.00    -0.248 NA
HETATM   13  C   UNL     1      -5.815  -0.925 -33.182  1.00  0.00     0.070 A 
HETATM   14  C   UNL     1      -4.711  -0.140 -32.896  1.00  0.00     0.050 A 
BRANCH  13  15
HETATM   15  C   UNL     1      -5.732  -2.226 -33.869  1.00  0.00     0.010 A 
HETATM   16  C   UNL     1      -4.552  -2.969 -33.951  1.00  0.00     0.130 A 
HETATM   17  N   UNL     1      -4.418  -4.161 -34.585  1.00  0.00    -0.272 NA
HETATM   18  C   UNL     1      -5.525  -4.664 -35.168  1.00  0.00     0.116 A 
HETATM   19  C   UNL     1      -6.754  -4.031 -35.143  1.00  0.00     0.020 A 
HETATM   20  C   UNL     1      -6.852  -2.805 -34.487  1.00  0.00     0.017 A 
ENDBRANCH  13  15
ENDBRANCH   1   5
BRANCH   2  21
HETATM   21  N   UNL     1      -2.571   3.951 -32.482  1.00  0.00    -0.249 N 
HETATM   22  C   UNL     1      -2.705   4.891 -31.471  1.00  0.00     0.339 C 
HETATM   23  N   UNL     1      -1.610   5.724 -31.404  1.00  0.00    -0.308 N 
HETATM   24  O   UNL     1      -3.682   4.893 -30.730  1.00  0.00    -0.245 OA
HETATM   25  H   UNL     1      -0.827   5.455 -31.983  1.00  0.00     0.170 HD
HETATM   26  H   UNL     1      -2.063   4.190 -33.332  1.00  0.00     0.192 HD
BRANCH  23  27
HETATM   27  C   UNL     1      -1.400   6.790 -30.506  1.00  0.00     0.038 A 
HETATM   28  C   UNL     1      -0.274   6.912 -29.688  1.00  0.00     0.055 A 
HETATM   29  C   UNL     1      -0.131   8.009 -28.828  1.00  0.00     0.058 A 
HETATM   30 CL   UNL     1       1.293   8.087 -27.850  1.00  0.00    -0.082 Cl
HETATM   31  C   UNL     1      -1.122   8.994 -28.778  1.00  0.00     0.055 A 
HETATM   32 CL   UNL     1      -1.012  10.376 -27.749  1.00  0.00    -0.083 Cl
HETATM   33  C   UNL     1      -2.255   8.872 -29.585  1.00  0.00     0.028 A 
HETATM   34  C   UNL     1      -2.394   7.774 -30.440  1.00  0.00     0.031 A 
ENDBRANCH  23  27
ENDBRANCH   2  21
TORSDOF 4
ENDMDL
MODEL 4
REMARK VINA RESULT:      -9.7      5.302      9.479
REMARK  4 active torsions:
REMARK  status: ('A' for Active; 'I' for Inactive)
REMARK    1  A    between atoms: C_6  and  C_7 
REMARK    2  A    between atoms: C_14  and  C_15 
REMARK       I    between atoms: C_15  and  N_16 
REMARK    3  A    between atoms: N_16  and  N_17 
REMARK       I    between atoms: N_17  and  C_18 
REMARK       I    between atoms: C_18  and  N_19 
REMARK    4  A    between atoms: N_19  and  C_20 
ROOT
HETATM    1  C   UNL     1      -6.943   3.875 -33.291  1.00  0.00     0.271 C 
HETATM    2  N   UNL     1      -6.798   4.238 -31.972  1.00  0.00    -0.262 N 
HETATM    3  O   UNL     1      -6.540   4.553 -34.230  1.00  0.00    -0.266 OA
HETATM    4  H   UNL     1      -7.117   3.685 -31.177  1.00  0.00     0.190 HD
ENDROOT
BRANCH   1   5
HETATM    5  C   UNL     1      -7.636   2.584 -33.505  1.00  0.00     0.048 A 
HETATM    6  C   UNL     1      -6.931   1.363 -33.472  1.00  0.00     0.009 A 
HETATM    7  C   UNL     1      -5.536   1.231 -33.251  1.00  0.00     0.015 A 
HETATM    8  C   UNL     1      -7.706   0.203 -33.651  1.00  0.00     0.068 A 
HETATM    9  C   UNL     1      -4.930  -0.024 -33.212  1.00  0.00     0.001 A 
HETATM   10  C   UNL     1      -5.705  -1.161 -33.390  1.00  0.00     0.002 A 
HETATM   11  C   UNL     1      -7.078  -1.034 -33.606  1.00  0.00     0.032 A 
HETATM   12  N   UNL     1      -9.035   0.237 -33.853  1.00  0.00    -0.248 NA
HETATM   13  C   UNL     1      -9.689   1.424 -33.906  1.00  0.00     0.070 A 
HETATM   14  C   UNL     1      -9.016   2.620 -33.727  1.00  0.00     0.050 A 
BRANCH  13  15
HETATM   15  C   UNL     1     -11.142   1.337 -34.140  1.00  0.00     0.010 A 
HETATM   16  C   UNL     1     -11.830   2.204 -34.992  1.00  0.00     0.130 A 
HETATM   17  N   UNL     1     -13.166   2.177 -35.227  1.00  0.00    -0.272 NA
HETATM   18  C   UNL     1     -13.872   1.221 -34.590  1.00  0.00     0.116 A 
HETATM   19  C   UNL     1     -13.305   0.295 -33.734  1.00  0.00     0.020 A 
HETATM   20  C   UNL     1     -11.930   0.358 -33.513  1.00  0.00     0.017 A 
ENDBRANCH  13  15
ENDBRANCH   1   5
BRANCH   2  21
HETATM   21  N   UNL     1      -6.142   5.440 -31.671  1.00  0.00    -0.249 N 
HETATM   22  C   UNL     1      -4.852   5.331 -31.171  1.00  0.00     0.339 C 
HETATM   23  N   UNL     1      -4.328   6.563 -30.847  1.00  0.00    -0.308 N 
HETATM   24  O   UNL     1      -4.287   4.244 -31.100  1.00  0.00    -0.245 OA
HETATM   25  H   UNL     1      -4.879   7.357 -31.142  1.00  0.00     0.170 HD
HETATM   26  H   UNL     1      -6.755   6.179 -31.333  1.00  0.00     0.192 HD
BRANCH  23  27
HETATM   27  C   UNL     1      -3.052   6.835 -30.315  1.00  0.00     0.038 A 
HETATM   28  C   UNL     1      -1.862   6.707 -31.037  1.00  0.00     0.055 A 
HETATM   29  C   UNL     1      -0.630   7.009 -30.442  1.00  0.00     0.058 A 
HETATM   30 CL   UNL     1       0.796   6.827 -31.403  1.00  0.00    -0.082 Cl
HETATM   31  C   UNL     1      -0.581   7.439 -29.112  1.00  0.00     0.055 A 
HETATM   32 CL   UNL     1       0.898   7.835 -28.315  1.00  0.00    -0.083 Cl
HETATM   33  C   UNL     1      -1.765   7.559 -28.383  1.00  0.00     0.028 A 
HETATM   34  C   UNL     1      -2.992   7.255 -28.980  1.00  0.00     0.031 A 
ENDBRANCH  23  27
ENDBRANCH   2  21
TORSDOF 4
ENDMDL
MODEL 5
REMARK VINA RESULT:      -9.7      6.090     10.106
REMARK  4 active torsions:
REMARK  status: ('A' for Active; 'I' for Inactive)
REMARK    1  A    between atoms: C_6  and  C_7 
REMARK    2  A    between atoms: C_14  and  C_15 
REMARK       I    between atoms: C_15  and  N_16 
REMARK    3  A    between atoms: N_16  and  N_17 
REMARK       I    between atoms: N_17  and  C_18 
REMARK       I    between atoms: C_18  and  N_19 
REMARK    4  A    between atoms: N_19  and  C_20 
ROOT
HETATM    1  C   UNL     1      -4.292   4.155 -31.325  1.00  0.00     0.271 C 
HETATM    2  N   UNL     1      -3.738   2.953 -30.949  1.00  0.00    -0.262 N 
HETATM    3  O   UNL     1      -5.465   4.286 -31.659  1.00  0.00    -0.266 OA
HETATM    4  H   UNL     1      -2.769   2.823 -30.659  1.00  0.00     0.190 HD
ENDROOT
BRANCH   1   5
HETATM    5  C   UNL     1      -3.357   5.302 -31.301  1.00  0.00     0.048 A 
HETATM    6  C   UNL     1      -2.509   5.576 -32.394  1.00  0.00     0.009 A 
HETATM    7  C   UNL     1      -2.445   4.815 -33.589  1.00  0.00     0.015 A 
HETATM    8  C   UNL     1      -1.695   6.715 -32.267  1.00  0.00     0.068 A 
HETATM    9  C   UNL     1      -1.590   5.178 -34.628  1.00  0.00     0.001 A 
HETATM   10  C   UNL     1      -0.791   6.304 -34.491  1.00  0.00     0.002 A 
HETATM   11  C   UNL     1      -0.853   7.056 -33.316  1.00  0.00     0.032 A 
HETATM   12  N   UNL     1      -1.702   7.500 -31.175  1.00  0.00    -0.248 NA
HETATM   13  C   UNL     1      -2.506   7.204 -30.124  1.00  0.00     0.070 A 
HETATM   14  C   UNL     1      -3.356   6.111 -30.160  1.00  0.00     0.050 A 
BRANCH  13  15
HETATM   15  C   UNL     1      -2.424   8.130 -28.981  1.00  0.00     0.010 A 
HETATM   16  C   UNL     1      -2.646   7.732 -27.661  1.00  0.00     0.130 A 
HETATM   17  N   UNL     1      -2.599   8.547 -26.577  1.00  0.00    -0.272 NA
HETATM   18  C   UNL     1      -2.298   9.842 -26.807  1.00  0.00     0.116 A 
HETATM   19  C   UNL     1      -2.043  10.354 -28.065  1.00  0.00     0.020 A 
HETATM   20  C   UNL     1      -2.106   9.487 -29.155  1.00  0.00     0.017 A 
ENDBRANCH  13  15
ENDBRANCH   1   5
BRANCH   2  21
HETATM   21  N   UNL     1      -4.551   1.811 -30.928  1.00  0.00    -0.249 N 
HETATM   22  C   UNL     1      -4.409   0.932 -31.991  1.00  0.00     0.339 C 
HETATM   23  N   UNL     1      -5.299  -0.117 -31.905  1.00  0.00    -0.308 N 
HETATM   24  O   UNL     1      -3.544   1.099 -32.845  1.00  0.00    -0.245 OA
HETATM   25  H   UNL     1      -5.813  -0.176 -31.037  1.00  0.00     0.170 HD
HETATM   26  H   UNL     1      -5.468   1.957 -30.510  1.00  0.00     0.192 HD
BRANCH  23  27
HETATM   27  C   UNL     1      -5.442  -1.192 -32.804  1.00  0.00     0.038 A 
HETATM   28  C   UNL     1      -4.469  -2.175 -33.006  1.00  0.00     0.055 A 
HETATM   29  C   UNL     1      -4.690  -3.223 -33.910  1.00  0.00     0.058 A 
HETATM   30 CL   UNL     1      -3.438  -4.400 -34.101  1.00  0.00    -0.082 Cl
HETATM   31  C   UNL     1      -5.891  -3.291 -34.624  1.00  0.00     0.055 A 
HETATM   32 CL   UNL     1      -6.235  -4.554 -35.749  1.00  0.00    -0.083 Cl
HETATM   33  C   UNL     1      -6.861  -2.306 -34.435  1.00  0.00     0.028 A 
HETATM   34  C   UNL     1      -6.636  -1.261 -33.533  1.00  0.00     0.031 A 
ENDBRANCH  23  27
ENDBRANCH   2  21
TORSDOF 4
ENDMDL
MODEL 6
REMARK VINA RESULT:      -9.6      4.589     10.423
REMARK  4 active torsions:
REMARK  status: ('A' for Active; 'I' for Inactive)
REMARK    1  A    between atoms: C_6  and  C_7 
REMARK    2  A    between atoms: C_14  and  C_15 
REMARK       I    between atoms: C_15  and  N_16 
REMARK    3  A    between atoms: N_16  and  N_17 
REMARK       I    between atoms: N_17  and  C_18 
REMARK       I    between atoms: C_18  and  N_19 
REMARK    4  A    between atoms: N_19  and  C_20 
ROOT
HETATM    1  C   UNL     1     -10.515   2.995 -33.768  1.00  0.00     0.271 C 
HETATM    2  N   UNL     1      -9.649   2.180 -33.076  1.00  0.00    -0.262 N 
HETATM    3  O   UNL     1     -10.279   3.444 -34.884  1.00  0.00    -0.266 OA
HETATM    4  H   UNL     1      -9.830   1.789 -32.151  1.00  0.00     0.190 HD
ENDROOT
BRANCH   1   5
HETATM    5  C   UNL     1     -11.778   3.301 -33.058  1.00  0.00     0.048 A 
HETATM    6  C   UNL     1     -12.946   2.543 -33.286  1.00  0.00     0.009 A 
HETATM    7  C   UNL     1     -13.050   1.455 -34.190  1.00  0.00     0.015 A 
HETATM    8  C   UNL     1     -14.070   2.906 -32.524  1.00  0.00     0.068 A 
HETATM    9  C   UNL     1     -14.244   0.749 -34.330  1.00  0.00     0.001 A 
HETATM   10  C   UNL     1     -15.347   1.117 -33.573  1.00  0.00     0.002 A 
HETATM   11  C   UNL     1     -15.247   2.187 -32.682  1.00  0.00     0.032 A 
HETATM   12  N   UNL     1     -14.055   3.917 -31.636  1.00  0.00    -0.248 NA
HETATM   13  C   UNL     1     -12.928   4.648 -31.450  1.00  0.00     0.070 A 
HETATM   14  C   UNL     1     -11.766   4.358 -32.144  1.00  0.00     0.050 A 
BRANCH  13  15
HETATM   15  C   UNL     1     -13.033   5.733 -30.458  1.00  0.00     0.010 A 
HETATM   16  C   UNL     1     -12.061   6.725 -30.309  1.00  0.00     0.130 A 
HETATM   17  N   UNL     1     -12.102   7.733 -29.401  1.00  0.00    -0.272 NA
HETATM   18  C   UNL     1     -13.180   7.776 -28.593  1.00  0.00     0.116 A 
HETATM   19  C   UNL     1     -14.215   6.861 -28.653  1.00  0.00     0.020 A 
HETATM   20  C   UNL     1     -14.136   5.836 -29.595  1.00  0.00     0.017 A 
ENDBRANCH  13  15
ENDBRANCH   1   5
BRANCH   2  21
HETATM   21  N   UNL     1      -8.432   1.824 -33.674  1.00  0.00    -0.249 N 
HETATM   22  C   UNL     1      -8.029   0.507 -33.516  1.00  0.00     0.339 C 
HETATM   23  N   UNL     1      -6.793   0.284 -34.084  1.00  0.00    -0.308 N 
HETATM   24  O   UNL     1      -8.753  -0.320 -32.972  1.00  0.00    -0.245 OA
HETATM   25  H   UNL     1      -6.431   1.045 -34.641  1.00  0.00     0.170 HD
HETATM   26  H   UNL     1      -7.738   2.569 -33.686  1.00  0.00     0.192 HD
BRANCH  23  27
HETATM   27  C   UNL     1      -6.073  -0.927 -34.116  1.00  0.00     0.038 A 
HETATM   28  C   UNL     1      -6.525  -2.088 -34.751  1.00  0.00     0.055 A 
HETATM   29  C   UNL     1      -5.746  -3.252 -34.749  1.00  0.00     0.058 A 
HETATM   30 CL   UNL     1      -6.375  -4.645 -35.559  1.00  0.00    -0.082 Cl
HETATM   31  C   UNL     1      -4.504  -3.263 -34.105  1.00  0.00     0.055 A 
HETATM   32 CL   UNL     1      -3.487  -4.658 -34.067  1.00  0.00    -0.083 Cl
HETATM   33  C   UNL     1      -4.053  -2.111 -33.460  1.00  0.00     0.028 A 
HETATM   34  C   UNL     1      -4.835  -0.952 -33.462  1.00  0.00     0.031 A 
ENDBRANCH  23  27
ENDBRANCH   2  21
TORSDOF 4
ENDMDL
MODEL 7
REMARK VINA RESULT:      -9.5      5.165      9.565
REMARK  4 active torsions:
REMARK  status: ('A' for Active; 'I' for Inactive)
REMARK    1  A    between atoms: C_6  and  C_7 
REMARK    2  A    between atoms: C_14  and  C_15 
REMARK       I    between atoms: C_15  and  N_16 
REMARK    3  A    between atoms: N_16  and  N_17 
REMARK       I    between atoms: N_17  and  C_18 
REMARK       I    between atoms: C_18  and  N_19 
REMARK    4  A    between atoms: N_19  and  C_20 
ROOT
HETATM    1  C   UNL     1      -4.435   1.170 -32.093  1.00  0.00     0.271 C 
HETATM    2  N   UNL     1      -3.991   2.348 -32.649  1.00  0.00    -0.262 N 
HETATM    3  O   UNL     1      -3.897   0.627 -31.134  1.00  0.00    -0.266 OA
HETATM    4  H   UNL     1      -4.430   2.820 -33.440  1.00  0.00     0.190 HD
ENDROOT
BRANCH   1   5
HETATM    5  C   UNL     1      -5.630   0.588 -32.745  1.00  0.00     0.048 A 
HETATM    6  C   UNL     1      -5.567  -0.653 -33.412  1.00  0.00     0.009 A 
HETATM    7  C   UNL     1      -4.402  -1.453 -33.541  1.00  0.00     0.015 A 
HETATM    8  C   UNL     1      -6.776  -1.118 -33.958  1.00  0.00     0.068 A 
HETATM    9  C   UNL     1      -4.442  -2.681 -34.199  1.00  0.00     0.001 A 
HETATM   10  C   UNL     1      -5.641  -3.129 -34.734  1.00  0.00     0.002 A 
HETATM   11  C   UNL     1      -6.790  -2.344 -34.607  1.00  0.00     0.032 A 
HETATM   12  N   UNL     1      -7.929  -0.430 -33.870  1.00  0.00    -0.248 NA
HETATM   13  C   UNL     1      -7.962   0.774 -33.247  1.00  0.00     0.070 A 
HETATM   14  C   UNL     1      -6.825   1.309 -32.665  1.00  0.00     0.050 A 
BRANCH  13  15
HETATM   15  C   UNL     1      -9.278   1.437 -33.220  1.00  0.00     0.010 A 
HETATM   16  C   UNL     1      -9.454   2.762 -32.812  1.00  0.00     0.130 A 
HETATM   17  N   UNL     1     -10.644   3.412 -32.753  1.00  0.00    -0.272 NA
HETATM   18  C   UNL     1     -11.733   2.715 -33.133  1.00  0.00     0.116 A 
HETATM   19  C   UNL     1     -11.687   1.404 -33.570  1.00  0.00     0.020 A 
HETATM   20  C   UNL     1     -10.448   0.768 -33.612  1.00  0.00     0.017 A 
ENDBRANCH  13  15
ENDBRANCH   1   5
BRANCH   2  21
HETATM   21  N   UNL     1      -2.873   2.980 -32.089  1.00  0.00    -0.249 N 
HETATM   22  C   UNL     1      -3.091   4.220 -31.508  1.00  0.00     0.339 C 
HETATM   23  N   UNL     1      -1.918   4.780 -31.051  1.00  0.00    -0.308 N 
HETATM   24  O   UNL     1      -4.222   4.683 -31.401  1.00  0.00    -0.245 OA
HETATM   25  H   UNL     1      -1.113   4.170 -31.071  1.00  0.00     0.170 HD
HETATM   26  H   UNL     1      -1.999   2.797 -32.579  1.00  0.00     0.192 HD
BRANCH  23  27
HETATM   27  C   UNL     1      -1.758   6.025 -30.411  1.00  0.00     0.038 A 
HETATM   28  C   UNL     1      -0.587   6.424 -29.761  1.00  0.00     0.055 A 
HETATM   29  C   UNL     1      -0.500   7.685 -29.157  1.00  0.00     0.058 A 
HETATM   30 CL   UNL     1       0.985   8.103 -28.374  1.00  0.00    -0.082 Cl
HETATM   31  C   UNL     1      -1.591   8.558 -29.196  1.00  0.00     0.055 A 
HETATM   32 CL   UNL     1      -1.554  10.129 -28.481  1.00  0.00    -0.083 Cl
HETATM   33  C   UNL     1      -2.767   8.161 -29.835  1.00  0.00     0.028 A 
HETATM   34  C   UNL     1      -2.851   6.901 -30.435  1.00  0.00     0.031 A 
ENDBRANCH  23  27
ENDBRANCH   2  21
TORSDOF 4
ENDMDL
MODEL 8
REMARK VINA RESULT:      -9.5      1.487      4.491
REMARK  4 active torsions:
REMARK  status: ('A' for Active; 'I' for Inactive)
REMARK    1  A    between atoms: C_6  and  C_7 
REMARK    2  A    between atoms: C_14  and  C_15 
REMARK       I    between atoms: C_15  and  N_16 
REMARK    3  A    between atoms: N_16  and  N_17 
REMARK       I    between atoms: N_17  and  C_18 
REMARK       I    between atoms: C_18  and  N_19 
REMARK    4  A    between atoms: N_19  and  C_20 
ROOT
HETATM    1  C   UNL     1      -8.857   0.225 -33.539  1.00  0.00     0.271 C 
HETATM    2  N   UNL     1      -9.340   1.131 -34.455  1.00  0.00    -0.262 N 
HETATM    3  O   UNL     1      -9.573  -0.515 -32.873  1.00  0.00    -0.266 OA
HETATM    4  H   UNL     1      -8.762   1.748 -35.026  1.00  0.00     0.190 HD
ENDROOT
BRANCH   1   5
HETATM    5  C   UNL     1      -7.382   0.206 -33.407  1.00  0.00     0.048 A 
HETATM    6  C   UNL     1      -6.630  -0.925 -33.790  1.00  0.00     0.009 A 
HETATM    7  C   UNL     1      -7.171  -2.127 -34.313  1.00  0.00     0.015 A 
HETATM    8  C   UNL     1      -5.236  -0.807 -33.653  1.00  0.00     0.068 A 
HETATM    9  C   UNL     1      -6.343  -3.185 -34.686  1.00  0.00     0.001 A 
HETATM   10  C   UNL     1      -4.969  -3.058 -34.546  1.00  0.00     0.002 A 
HETATM   11  C   UNL     1      -4.434  -1.874 -34.033  1.00  0.00     0.032 A 
HETATM   12  N   UNL     1      -4.639   0.301 -33.178  1.00  0.00    -0.248 NA
HETATM   13  C   UNL     1      -5.383   1.367 -32.792  1.00  0.00     0.070 A 
HETATM   14  C   UNL     1      -6.763   1.353 -32.902  1.00  0.00     0.050 A 
BRANCH  13  15
HETATM   15  C   UNL     1      -4.621   2.521 -32.282  1.00  0.00     0.010 A 
HETATM   16  C   UNL     1      -3.227   2.530 -32.186  1.00  0.00     0.130 A 
HETATM   17  N   UNL     1      -2.481   3.558 -31.709  1.00  0.00    -0.272 NA
HETATM   18  C   UNL     1      -3.151   4.658 -31.311  1.00  0.00     0.116 A 
HETATM   19  C   UNL     1      -4.528   4.776 -31.370  1.00  0.00     0.020 A 
HETATM   20  C   UNL     1      -5.261   3.698 -31.861  1.00  0.00     0.017 A 
ENDBRANCH  13  15
ENDBRANCH   1   5
BRANCH   2  21
HETATM   21  N   UNL     1     -10.725   1.212 -34.659  1.00  0.00    -0.249 N 
HETATM   22  C   UNL     1     -11.431   2.025 -33.785  1.00  0.00     0.339 C 
HETATM   23  N   UNL     1     -12.786   1.979 -34.033  1.00  0.00    -0.308 N 
HETATM   24  O   UNL     1     -10.855   2.713 -32.949  1.00  0.00    -0.245 OA
HETATM   25  H   UNL     1     -13.054   1.492 -34.876  1.00  0.00     0.170 HD
HETATM   26  H   UNL     1     -11.148   0.354 -35.007  1.00  0.00     0.192 HD
BRANCH  23  27
HETATM   27  C   UNL     1     -13.804   2.671 -33.346  1.00  0.00     0.038 A 
HETATM   28  C   UNL     1     -13.762   4.038 -33.058  1.00  0.00     0.055 A 
HETATM   29  C   UNL     1     -14.820   4.658 -32.381  1.00  0.00     0.058 A 
HETATM   30 CL   UNL     1     -14.692   6.353 -32.065  1.00  0.00    -0.082 Cl
HETATM   31  C   UNL     1     -15.931   3.908 -31.982  1.00  0.00     0.055 A 
HETATM   32 CL   UNL     1     -17.275   4.605 -31.151  1.00  0.00    -0.083 Cl
HETATM   33  C   UNL     1     -15.974   2.541 -32.257  1.00  0.00     0.028 A 
HETATM   34  C   UNL     1     -14.915   1.926 -32.932  1.00  0.00     0.031 A 
ENDBRANCH  23  27
ENDBRANCH   2  21
TORSDOF 4
ENDMDL
MODEL 9
REMARK VINA RESULT:      -9.4      2.538      3.114
REMARK  4 active torsions:
REMARK  status: ('A' for Active; 'I' for Inactive)
REMARK    1  A    between atoms: C_6  and  C_7 
REMARK    2  A    between atoms: C_14  and  C_15 
REMARK       I    between atoms: C_15  and  N_16 
REMARK    3  A    between atoms: N_16  and  N_17 
REMARK       I    between atoms: N_17  and  C_18 
REMARK       I    between atoms: C_18  and  N_19 
REMARK    4  A    between atoms: N_19  and  C_20 
ROOT
HETATM    1  C   UNL     1      -9.117   1.327 -33.499  1.00  0.00     0.271 C 
HETATM    2  N   UNL     1      -9.563   1.676 -34.753  1.00  0.00    -0.262 N 
HETATM    3  O   UNL     1      -9.805   1.407 -32.487  1.00  0.00    -0.266 OA
HETATM    4  H   UNL     1      -9.010   1.608 -35.608  1.00  0.00     0.190 HD
ENDROOT
BRANCH   1   5
HETATM    5  C   UNL     1      -7.720   0.840 -33.452  1.00  0.00     0.048 A 
HETATM    6  C   UNL     1      -6.668   1.679 -33.027  1.00  0.00     0.009 A 
HETATM    7  C   UNL     1      -6.813   3.031 -32.623  1.00  0.00     0.015 A 
HETATM    8  C   UNL     1      -5.392   1.089 -32.989  1.00  0.00     0.068 A 
HETATM    9  C   UNL     1      -5.715   3.775 -32.195  1.00  0.00     0.001 A 
HETATM   10  C   UNL     1      -4.461   3.183 -32.162  1.00  0.00     0.002 A 
HETATM   11  C   UNL     1      -4.315   1.852 -32.558  1.00  0.00     0.032 A 
HETATM   12  N   UNL     1      -5.167  -0.189 -33.343  1.00  0.00    -0.248 NA
HETATM   13  C   UNL     1      -6.189  -0.970 -33.773  1.00  0.00     0.070 A 
HETATM   14  C   UNL     1      -7.484  -0.485 -33.831  1.00  0.00     0.050 A 
BRANCH  13  15
HETATM   15  C   UNL     1      -5.821  -2.350 -34.139  1.00  0.00     0.010 A 
HETATM   16  C   UNL     1      -4.549  -2.883 -33.917  1.00  0.00     0.130 A 
HETATM   17  N   UNL     1      -4.156  -4.138 -34.250  1.00  0.00    -0.272 NA
HETATM   18  C   UNL     1      -5.082  -4.928 -34.830  1.00  0.00     0.116 A 
HETATM   19  C   UNL     1      -6.378  -4.521 -35.089  1.00  0.00     0.020 A 
HETATM   20  C   UNL     1      -6.744  -3.223 -34.737  1.00  0.00     0.017 A 
ENDBRANCH  13  15
ENDBRANCH   1   5
BRANCH   2  21
HETATM   21  N   UNL     1     -10.879   2.136 -34.899  1.00  0.00    -0.249 N 
HETATM   22  C   UNL     1     -11.057   3.511 -34.887  1.00  0.00     0.339 C 
HETATM   23  N   UNL     1     -12.390   3.850 -34.970  1.00  0.00    -0.308 N 
HETATM   24  O   UNL     1     -10.100   4.277 -34.857  1.00  0.00    -0.245 OA
HETATM   25  H   UNL     1     -13.019   3.084 -35.166  1.00  0.00     0.170 HD
HETATM   26  H   UNL     1     -11.583   1.529 -34.482  1.00  0.00     0.192 HD
BRANCH  23  27
HETATM   27  C   UNL     1     -12.943   5.146 -34.983  1.00  0.00     0.038 A 
HETATM   28  C   UNL     1     -13.159   5.891 -36.146  1.00  0.00     0.055 A 
HETATM   29  C   UNL     1     -13.726   7.170 -36.079  1.00  0.00     0.058 A 
HETATM   30 CL   UNL     1     -13.963   8.026 -37.564  1.00  0.00    -0.082 Cl
HETATM   31  C   UNL     1     -14.077   7.718 -34.841  1.00  0.00     0.055 A 
HETATM   32 CL   UNL     1     -14.785   9.284 -34.682  1.00  0.00    -0.083 Cl
HETATM   33  C   UNL     1     -13.854   6.983 -33.676  1.00  0.00     0.028 A 
HETATM   34  C   UNL     1     -13.287   5.707 -33.747  1.00  0.00     0.031 A 
ENDBRANCH  23  27
ENDBRANCH   2  21
TORSDOF 4
ENDMDL
MODEL 10
REMARK VINA RESULT:      -9.3      3.021      5.853
REMARK  4 active torsions:
REMARK  status: ('A' for Active; 'I' for Inactive)
REMARK    1  A    between atoms: C_6  and  C_7 
REMARK    2  A    between atoms: C_14  and  C_15 
REMARK       I    between atoms: C_15  and  N_16 
REMARK    3  A    between atoms: N_16  and  N_17 
REMARK       I    between atoms: N_17  and  C_18 
REMARK       I    between atoms: C_18  and  N_19 
REMARK    4  A    between atoms: N_19  and  C_20 
ROOT
HETATM    1  C   UNL     1      -6.367   3.564 -33.028  1.00  0.00     0.271 C 
HETATM    2  N   UNL     1      -7.322   4.059 -32.170  1.00  0.00    -0.262 N 
HETATM    3  O   UNL     1      -6.557   3.386 -34.226  1.00  0.00    -0.266 OA
HETATM    4  H   UNL     1      -7.182   4.224 -31.173  1.00  0.00     0.190 HD
ENDROOT
BRANCH   1   5
HETATM    5  C   UNL     1      -5.066   3.254 -32.393  1.00  0.00     0.048 A 
HETATM    6  C   UNL     1      -4.731   1.935 -32.020  1.00  0.00     0.009 A 
HETATM    7  C   UNL     1      -5.567   0.801 -32.190  1.00  0.00     0.015 A 
HETATM    8  C   UNL     1      -3.453   1.762 -31.462  1.00  0.00     0.068 A 
HETATM    9  C   UNL     1      -5.139  -0.470 -31.812  1.00  0.00     0.001 A 
HETATM   10  C   UNL     1      -3.875  -0.628 -31.261  1.00  0.00     0.002 A 
HETATM   11  C   UNL     1      -3.050   0.486 -31.094  1.00  0.00     0.032 A 
HETATM   12  N   UNL     1      -2.593   2.780 -31.276  1.00  0.00    -0.248 NA
HETATM   13  C   UNL     1      -2.945   4.044 -31.619  1.00  0.00     0.070 A 
HETATM   14  C   UNL     1      -4.177   4.314 -32.189  1.00  0.00     0.050 A 
BRANCH  13  15
HETATM   15  C   UNL     1      -1.925   5.077 -31.363  1.00  0.00     0.010 A 
HETATM   16  C   UNL     1      -2.140   6.436 -31.605  1.00  0.00     0.130 A 
HETATM   17  N   UNL     1      -1.230   7.422 -31.403  1.00  0.00    -0.272 NA
HETATM   18  C   UNL     1      -0.030   7.047 -30.917  1.00  0.00     0.116 A 
HETATM   19  C   UNL     1       0.299   5.737 -30.624  1.00  0.00     0.020 A 
HETATM   20  C   UNL     1      -0.659   4.750 -30.849  1.00  0.00     0.017 A 
ENDBRANCH  13  15
ENDBRANCH   1   5
BRANCH   2  21
HETATM   21  N   UNL     1      -8.583   4.395 -32.684  1.00  0.00    -0.249 N 
HETATM   22  C   UNL     1      -9.521   3.375 -32.735  1.00  0.00     0.339 C 
HETATM   23  N   UNL     1     -10.697   3.796 -33.316  1.00  0.00    -0.308 N 
HETATM   24  O   UNL     1      -9.286   2.269 -32.258  1.00  0.00    -0.245 OA
HETATM   25  H   UNL     1     -10.762   4.790 -33.486  1.00  0.00     0.170 HD
HETATM   26  H   UNL     1      -8.561   5.101 -33.417  1.00  0.00     0.192 HD
BRANCH  23  27
HETATM   27  C   UNL     1     -11.862   3.034 -33.535  1.00  0.00     0.038 A 
HETATM   28  C   UNL     1     -12.964   3.029 -32.675  1.00  0.00     0.055 A 
HETATM   29  C   UNL     1     -14.094   2.254 -32.968  1.00  0.00     0.058 A 
HETATM   30 CL   UNL     1     -15.417   2.304 -31.854  1.00  0.00    -0.082 Cl
HETATM   31  C   UNL     1     -14.127   1.472 -34.126  1.00  0.00     0.055 A 
HETATM   32 CL   UNL     1     -15.486   0.497 -34.555  1.00  0.00    -0.083 Cl
HETATM   33  C   UNL     1     -13.025   1.465 -34.983  1.00  0.00     0.028 A 
HETATM   34  C   UNL     1     -11.898   2.239 -34.687  1.00  0.00     0.031 A 
ENDBRANCH  23  27
ENDBRANCH   2  21
TORSDOF 4
ENDMDL
