MODEL 1
REMARK VINA RESULT:      -9.3      0.000      0.000
REMARK  8 active torsions:
REMARK  status: ('A' for Active; 'I' for Inactive)
REMARK    1  A    between atoms: N_4  and  C_5 
REMARK    2  A    between atoms: C_5  and  C_6 
REMARK    3  A    between atoms: C_8  and  C_9 
REMARK       I    between atoms: C_9  and  N_17 
REMARK    4  A    between atoms: N_17  and  CA_18 
REMARK    5  A    between atoms: CA_18  and  C_19 
REMARK    6  A    between atoms: CA_18  and  CB_21 
REMARK    7  A    between atoms: C_19  and  O_20 
REMARK    8  A    between atoms: CB_21  and  CG_22 
ROOT
HETATM    1  C   UNK A   0      -3.766   3.195 -32.599  1.00  0.00     0.252 C 
HETATM    2  O   UNK A   0      -4.986   3.330 -32.616  1.00  0.00    -0.268 OA
ATOM      3  N   TRP A   1      -3.157   1.987 -32.338  1.00  0.00    -0.350 N 
ATOM      4  H   TRP A   1      -2.166   1.863 -32.504  1.00  0.00     0.163 HD
ENDROOT
BRANCH   3   5
ATOM      5  CA  TRP A   1      -3.944   0.755 -32.193  1.00  0.00     0.112 C 
BRANCH   5   6
ATOM      6  C   TRP A   1      -3.571   0.079 -30.862  1.00  0.00     0.189 C 
BRANCH   6   7
ATOM      7  O   TRP A   1      -2.178  -0.237 -30.816  1.00  0.00    -0.399 OA
ATOM      8  H   TRP A   1      -1.983  -0.492 -29.897  1.00  0.00     0.209 HD
ENDBRANCH   6   7
ENDBRANCH   5   6
BRANCH   5   9
ATOM      9  CB  TRP A   1      -3.717  -0.160 -33.416  1.00  0.00     0.068 C 
BRANCH   9  10
ATOM     10  CG  TRP A   1      -4.953  -0.864 -33.888  1.00  0.00    -0.028 A 
ATOM     11  CD2 TRP A   1      -5.084  -2.267 -34.146  1.00  0.00    -0.002 A 
ATOM     12  CE2 TRP A   1      -6.398  -2.499 -34.549  1.00  0.00     0.042 A 
ATOM     13  CE3 TRP A   1      -4.201  -3.364 -34.066  1.00  0.00     0.014 A 
ATOM     14  CZ2 TRP A   1      -6.876  -3.772 -34.882  1.00  0.00     0.030 A 
ATOM     15  NE1 TRP A   1      -7.047  -1.286 -34.531  1.00  0.00    -0.365 N 
ATOM     16  CH2 TRP A   1      -5.981  -4.842 -34.797  1.00  0.00     0.002 A 
ATOM     17  CZ3 TRP A   1      -4.662  -4.644 -34.395  1.00  0.00     0.001 A 
ATOM     18  HE1 TRP A   1      -8.020  -1.156 -34.768  1.00  0.00     0.165 HD
ATOM     19  CD1 TRP A   1      -6.189  -0.295 -34.130  1.00  0.00     0.096 A 
ENDBRANCH   9  10
ENDBRANCH   5   9
ENDBRANCH   3   5
BRANCH   1  20
HETATM   20  C   UNK A   0      -2.881   4.347 -32.942  1.00  0.00     0.032 A 
HETATM   21  C   UNK A   0      -2.371   5.238 -31.982  1.00  0.00     0.026 A 
HETATM   22  C   UNK A   0      -1.498   6.275 -32.362  1.00  0.00    -0.037 A 
HETATM   23  C   UNK A   0      -1.172   6.408 -33.726  1.00  0.00     0.009 A 
HETATM   24  C   UNK A   0      -1.701   5.546 -34.685  1.00  0.00     0.002 A 
HETATM   25  C   UNK A   0      -2.551   4.518 -34.293  1.00  0.00     0.017 A 
BRANCH  22  26
HETATM   26  C   UNK A   0      -0.827   7.240 -31.407  1.00  0.00     0.189 C 
BRANCH  26  27
HETATM   27  N   UNK A   0      -0.581   6.763 -30.048  1.00  0.00    -0.270 N 
HETATM   28  N   UNK A   0      -1.155   7.430 -29.023  1.00  0.00    -0.177 NA
HETATM   29  C   UNK A   0      -0.584   6.920 -27.927  1.00  0.00     0.053 A 
HETATM   30  C   UNK A   0      -0.923   7.445 -26.583  1.00  0.00     0.072 C 
HETATM   31  C   UNK A   0       0.334   5.900 -28.250  1.00  0.00     0.055 A 
HETATM   32  C   UNK A   0       0.336   5.826 -29.628  1.00  0.00     0.029 A 
HETATM   33  C   UNK A   0       1.126   4.951 -30.529  1.00  0.00     0.070 C 
ENDBRANCH  26  27
ENDBRANCH  22  26
ENDBRANCH   1  20
TORSDOF 8
ENDMDL
MODEL 2
REMARK VINA RESULT:      -9.0      2.124      3.734
REMARK  8 active torsions:
REMARK  status: ('A' for Active; 'I' for Inactive)
REMARK    1  A    between atoms: N_4  and  C_5 
REMARK    2  A    between atoms: C_5  and  C_6 
REMARK    3  A    between atoms: C_8  and  C_9 
REMARK       I    between atoms: C_9  and  N_17 
REMARK    4  A    between atoms: N_17  and  CA_18 
REMARK    5  A    between atoms: CA_18  and  C_19 
REMARK    6  A    between atoms: CA_18  and  CB_21 
REMARK    7  A    between atoms: C_19  and  O_20 
REMARK    8  A    between atoms: CB_21  and  CG_22 
ROOT
HETATM    1  C   UNK A   0      -4.550   1.539 -32.039  1.00  0.00     0.252 C 
HETATM    2  O   UNK A   0      -4.920   1.521 -30.869  1.00  0.00    -0.268 OA
ATOM      3  N   TRP A   1      -4.399   0.392 -32.787  1.00  0.00    -0.350 N 
ATOM      4  H   TRP A   1      -4.265   0.444 -33.789  1.00  0.00     0.163 HD
ENDROOT
BRANCH   3   5
ATOM      5  CA  TRP A   1      -4.801  -0.918 -32.259  1.00  0.00     0.112 C 
BRANCH   5   6
ATOM      6  C   TRP A   1      -3.544  -1.781 -32.051  1.00  0.00     0.189 C 
BRANCH   6   7
ATOM      7  O   TRP A   1      -2.529  -1.054 -31.355  1.00  0.00    -0.399 OA
ATOM      8  H   TRP A   1      -2.556  -1.358 -30.431  1.00  0.00     0.209 HD
ENDBRANCH   6   7
ENDBRANCH   5   6
BRANCH   5   9
ATOM      9  CB  TRP A   1      -5.829  -1.572 -33.207  1.00  0.00     0.068 C 
BRANCH   9  10
ATOM     10  CG  TRP A   1      -6.756  -0.596 -33.868  1.00  0.00    -0.028 A 
ATOM     11  CD2 TRP A   1      -7.720   0.236 -33.213  1.00  0.00    -0.002 A 
ATOM     12  CE2 TRP A   1      -8.352   0.997 -34.194  1.00  0.00     0.042 A 
ATOM     13  CE3 TRP A   1      -8.108   0.413 -31.868  1.00  0.00     0.014 A 
ATOM     14  CZ2 TRP A   1      -9.358   1.926 -33.901  1.00  0.00     0.030 A 
ATOM     15  NE1 TRP A   1      -7.791   0.650 -35.400  1.00  0.00    -0.365 N 
ATOM     16  CH2 TRP A   1      -9.726   2.082 -32.562  1.00  0.00     0.002 A 
ATOM     17  CZ3 TRP A   1      -9.111   1.338 -31.558  1.00  0.00     0.001 A 
ATOM     18  HE1 TRP A   1      -8.051   1.056 -36.288  1.00  0.00     0.165 HD
ATOM     19  CD1 TRP A   1      -6.825  -0.304 -35.217  1.00  0.00     0.096 A 
ENDBRANCH   9  10
ENDBRANCH   5   9
ENDBRANCH   3   5
BRANCH   1  20
HETATM   20  C   UNK A   0      -4.316   2.842 -32.730  1.00  0.00     0.032 A 
HETATM   21  C   UNK A   0      -3.066   3.483 -32.761  1.00  0.00     0.026 A 
HETATM   22  C   UNK A   0      -2.896   4.684 -33.475  1.00  0.00    -0.037 A 
HETATM   23  C   UNK A   0      -4.013   5.235 -34.132  1.00  0.00     0.009 A 
HETATM   24  C   UNK A   0      -5.262   4.618 -34.077  1.00  0.00     0.002 A 
HETATM   25  C   UNK A   0      -5.412   3.424 -33.380  1.00  0.00     0.017 A 
BRANCH  22  26
HETATM   26  C   UNK A   0      -1.582   5.418 -33.643  1.00  0.00     0.189 C 
BRANCH  26  27
HETATM   27  N   UNK A   0      -0.898   5.841 -32.423  1.00  0.00    -0.270 N 
HETATM   28  N   UNK A   0      -0.161   4.928 -31.753  1.00  0.00    -0.177 NA
HETATM   29  C   UNK A   0       0.145   5.524 -30.597  1.00  0.00     0.053 A 
HETATM   30  C   UNK A   0       0.915   4.804 -29.555  1.00  0.00     0.072 C 
HETATM   31  C   UNK A   0      -0.370   6.835 -30.540  1.00  0.00     0.055 A 
HETATM   32  C   UNK A   0      -1.058   7.015 -31.722  1.00  0.00     0.029 A 
HETATM   33  C   UNK A   0      -1.825   8.191 -32.203  1.00  0.00     0.070 C 
ENDBRANCH  26  27
ENDBRANCH  22  26
ENDBRANCH   1  20
TORSDOF 8
ENDMDL
MODEL 3
REMARK VINA RESULT:      -9.0      2.095      9.642
REMARK  8 active torsions:
REMARK  status: ('A' for Active; 'I' for Inactive)
REMARK    1  A    between atoms: N_4  and  C_5 
REMARK    2  A    between atoms: C_5  and  C_6 
REMARK    3  A    between atoms: C_8  and  C_9 
REMARK       I    between atoms: C_9  and  N_17 
REMARK    4  A    between atoms: N_17  and  CA_18 
REMARK    5  A    between atoms: CA_18  and  C_19 
REMARK    6  A    between atoms: CA_18  and  CB_21 
REMARK    7  A    between atoms: C_19  and  O_20 
REMARK    8  A    between atoms: CB_21  and  CG_22 
ROOT
HETATM    1  C   UNK A   0      -1.705   5.004 -33.046  1.00  0.00     0.252 C 
HETATM    2  O   UNK A   0      -1.132   5.573 -33.970  1.00  0.00    -0.268 OA
ATOM      3  N   TRP A   1      -1.171   4.925 -31.778  1.00  0.00    -0.350 N 
ATOM      4  H   TRP A   1      -1.735   4.609 -30.999  1.00  0.00     0.163 HD
ENDROOT
BRANCH   3   5
ATOM      5  CA  TRP A   1       0.066   5.636 -31.428  1.00  0.00     0.112 C 
BRANCH   5   6
ATOM      6  C   TRP A   1       0.810   4.841 -30.341  1.00  0.00     0.189 C 
BRANCH   6   7
ATOM      7  O   TRP A   1       1.872   4.068 -30.904  1.00  0.00    -0.399 OA
ATOM      8  H   TRP A   1       1.457   3.299 -31.333  1.00  0.00     0.209 HD
ENDBRANCH   6   7
ENDBRANCH   5   6
BRANCH   5   9
ATOM      9  CB  TRP A   1      -0.265   7.081 -30.997  1.00  0.00     0.068 C 
BRANCH   9  10
ATOM     10  CG  TRP A   1      -0.763   7.198 -29.588  1.00  0.00    -0.028 A 
ATOM     11  CD2 TRP A   1      -0.027   7.702 -28.467  1.00  0.00    -0.002 A 
ATOM     12  CE2 TRP A   1      -0.867   7.649 -27.356  1.00  0.00     0.042 A 
ATOM     13  CE3 TRP A   1       1.280   8.205 -28.300  1.00  0.00     0.014 A 
ATOM     14  CZ2 TRP A   1      -0.467   8.070 -26.082  1.00  0.00     0.030 A 
ATOM     15  NE1 TRP A   1      -2.071   7.140 -27.783  1.00  0.00    -0.365 N 
ATOM     16  CH2 TRP A   1       0.833   8.563 -25.942  1.00  0.00     0.002 A 
ATOM     17  CZ3 TRP A   1       1.696   8.631 -27.033  1.00  0.00     0.001 A 
ATOM     18  HE1 TRP A   1      -2.876   7.002 -27.187  1.00  0.00     0.165 HD
ATOM     19  CD1 TRP A   1      -2.023   6.869 -29.125  1.00  0.00     0.096 A 
ENDBRANCH   9  10
ENDBRANCH   5   9
ENDBRANCH   3   5
BRANCH   1  20
HETATM   20  C   UNK A   0      -3.067   4.428 -33.250  1.00  0.00     0.032 A 
HETATM   21  C   UNK A   0      -3.501   3.240 -32.636  1.00  0.00     0.026 A 
HETATM   22  C   UNK A   0      -4.816   2.776 -32.827  1.00  0.00    -0.037 A 
HETATM   23  C   UNK A   0      -5.671   3.517 -33.665  1.00  0.00     0.009 A 
HETATM   24  C   UNK A   0      -5.235   4.679 -34.301  1.00  0.00     0.002 A 
HETATM   25  C   UNK A   0      -3.938   5.133 -34.092  1.00  0.00     0.017 A 
BRANCH  22  26
HETATM   26  C   UNK A   0      -5.414   1.558 -32.154  1.00  0.00     0.189 C 
BRANCH  26  27
HETATM   27  N   UNK A   0      -5.137   0.261 -32.766  1.00  0.00    -0.270 N 
HETATM   28  N   UNK A   0      -6.054  -0.257 -33.613  1.00  0.00    -0.177 NA
HETATM   29  C   UNK A   0      -5.644  -1.510 -33.829  1.00  0.00     0.053 A 
HETATM   30  C   UNK A   0      -6.436  -2.430 -34.679  1.00  0.00     0.072 C 
HETATM   31  C   UNK A   0      -4.442  -1.786 -33.145  1.00  0.00     0.055 A 
HETATM   32  C   UNK A   0      -4.140  -0.634 -32.448  1.00  0.00     0.029 A 
HETATM   33  C   UNK A   0      -3.004  -0.348 -31.536  1.00  0.00     0.070 C 
ENDBRANCH  26  27
ENDBRANCH  22  26
ENDBRANCH   1  20
TORSDOF 8
ENDMDL
MODEL 4
REMARK VINA RESULT:      -9.0      2.183      3.111
REMARK  8 active torsions:
REMARK  status: ('A' for Active; 'I' for Inactive)
REMARK    1  A    between atoms: N_4  and  C_5 
REMARK    2  A    between atoms: C_5  and  C_6 
REMARK    3  A    between atoms: C_8  and  C_9 
REMARK       I    between atoms: C_9  and  N_17 
REMARK    4  A    between atoms: N_17  and  CA_18 
REMARK    5  A    between atoms: CA_18  and  C_19 
REMARK    6  A    between atoms: CA_18  and  CB_21 
REMARK    7  A    between atoms: C_19  and  O_20 
REMARK    8  A    between atoms: CB_21  and  CG_22 
ROOT
HETATM    1  C   UNK A   0      -5.859   3.242 -33.225  1.00  0.00     0.252 C 
HETATM    2  O   UNK A   0      -6.560   2.834 -34.147  1.00  0.00    -0.268 OA
ATOM      3  N   TRP A   1      -6.125   2.948 -31.905  1.00  0.00    -0.350 N 
ATOM      4  H   TRP A   1      -5.441   3.144 -31.186  1.00  0.00     0.163 HD
ENDROOT
BRANCH   3   5
ATOM      5  CA  TRP A   1      -7.198   2.016 -31.535  1.00  0.00     0.112 C 
BRANCH   5   6
ATOM      6  C   TRP A   1      -8.309   2.794 -30.809  1.00  0.00     0.189 C 
BRANCH   6   7
ATOM      7  O   TRP A   1      -9.402   1.938 -30.471  1.00  0.00    -0.399 OA
ATOM      8  H   TRP A   1      -9.100   1.027 -30.634  1.00  0.00     0.209 HD
ENDBRANCH   6   7
ENDBRANCH   5   6
BRANCH   5   9
ATOM      9  CB  TRP A   1      -6.620   0.861 -30.688  1.00  0.00     0.068 C 
BRANCH   9  10
ATOM     10  CG  TRP A   1      -5.601   0.029 -31.407  1.00  0.00    -0.028 A 
ATOM     11  CD2 TRP A   1      -5.827  -0.764 -32.579  1.00  0.00    -0.002 A 
ATOM     12  CE2 TRP A   1      -4.614  -1.358 -32.922  1.00  0.00     0.042 A 
ATOM     13  CE3 TRP A   1      -6.956  -1.023 -33.383  1.00  0.00     0.014 A 
ATOM     14  CZ2 TRP A   1      -4.471  -2.204 -34.028  1.00  0.00     0.030 A 
ATOM     15  NE1 TRP A   1      -3.682  -0.940 -32.001  1.00  0.00    -0.365 N 
ATOM     16  CH2 TRP A   1      -5.605  -2.448 -34.808  1.00  0.00     0.002 A 
ATOM     17  CZ3 TRP A   1      -6.831  -1.867 -34.493  1.00  0.00     0.001 A 
ATOM     18  HE1 TRP A   1      -2.708  -1.207 -32.013  1.00  0.00     0.165 HD
ATOM     19  CD1 TRP A   1      -4.263  -0.101 -31.086  1.00  0.00     0.096 A 
ENDBRANCH   9  10
ENDBRANCH   5   9
ENDBRANCH   3   5
BRANCH   1  20
HETATM   20  C   UNK A   0      -4.622   4.025 -33.515  1.00  0.00     0.032 A 
HETATM   21  C   UNK A   0      -3.541   4.116 -32.621  1.00  0.00     0.026 A 
HETATM   22  C   UNK A   0      -2.380   4.828 -32.974  1.00  0.00    -0.037 A 
HETATM   23  C   UNK A   0      -2.341   5.464 -34.230  1.00  0.00     0.009 A 
HETATM   24  C   UNK A   0      -3.423   5.402 -35.107  1.00  0.00     0.002 A 
HETATM   25  C   UNK A   0      -4.559   4.683 -34.750  1.00  0.00     0.017 A 
BRANCH  22  26
HETATM   26  C   UNK A   0      -1.128   4.925 -32.127  1.00  0.00     0.189 C 
BRANCH  26  27
HETATM   27  N   UNK A   0      -1.120   5.935 -31.071  1.00  0.00    -0.270 N 
HETATM   28  N   UNK A   0      -1.915   7.018 -31.215  1.00  0.00    -0.177 NA
HETATM   29  C   UNK A   0      -1.536   7.847 -30.237  1.00  0.00     0.053 A 
HETATM   30  C   UNK A   0      -2.154   9.187 -30.100  1.00  0.00     0.072 C 
HETATM   31  C   UNK A   0      -0.518   7.279 -29.444  1.00  0.00     0.055 A 
HETATM   32  C   UNK A   0      -0.249   6.050 -30.010  1.00  0.00     0.029 A 
HETATM   33  C   UNK A   0       0.746   5.022 -29.616  1.00  0.00     0.070 C 
ENDBRANCH  26  27
ENDBRANCH  22  26
ENDBRANCH   1  20
TORSDOF 8
ENDMDL
MODEL 5
REMARK VINA RESULT:      -8.9      2.252      3.404
REMARK  8 active torsions:
REMARK  status: ('A' for Active; 'I' for Inactive)
REMARK    1  A    between atoms: N_4  and  C_5 
REMARK    2  A    between atoms: C_5  and  C_6 
REMARK    3  A    between atoms: C_8  and  C_9 
REMARK       I    between atoms: C_9  and  N_17 
REMARK    4  A    between atoms: N_17  and  CA_18 
REMARK    5  A    between atoms: CA_18  and  C_19 
REMARK    6  A    between atoms: CA_18  and  CB_21 
REMARK    7  A    between atoms: C_19  and  O_20 
REMARK    8  A    between atoms: CB_21  and  CG_22 
ROOT
HETATM    1  C   UNK A   0      -7.039   2.941 -32.119  1.00  0.00     0.252 C 
HETATM    2  O   UNK A   0      -8.178   3.292 -31.826  1.00  0.00    -0.268 OA
ATOM      3  N   TRP A   1      -6.766   1.721 -32.700  1.00  0.00    -0.350 N 
ATOM      4  H   TRP A   1      -5.852   1.530 -33.090  1.00  0.00     0.163 HD
ENDROOT
BRANCH   3   5
ATOM      5  CA  TRP A   1      -7.847   0.820 -33.121  1.00  0.00     0.112 C 
BRANCH   5   6
ATOM      6  C   TRP A   1      -8.268  -0.049 -31.924  1.00  0.00     0.189 C 
BRANCH   6   7
ATOM      7  O   TRP A   1      -9.381   0.526 -31.235  1.00  0.00    -0.399 OA
ATOM      8  H   TRP A   1      -9.679  -0.140 -30.590  1.00  0.00     0.209 HD
ENDBRANCH   6   7
ENDBRANCH   5   6
BRANCH   5   9
ATOM      9  CB  TRP A   1      -7.391  -0.012 -34.339  1.00  0.00     0.068 C 
BRANCH   9  10
ATOM     10  CG  TRP A   1      -6.153  -0.822 -34.094  1.00  0.00    -0.028 A 
ATOM     11  CD2 TRP A   1      -6.001  -2.229 -34.319  1.00  0.00    -0.002 A 
ATOM     12  CE2 TRP A   1      -4.693  -2.568 -33.978  1.00  0.00     0.042 A 
ATOM     13  CE3 TRP A   1      -6.861  -3.243 -34.788  1.00  0.00     0.014 A 
ATOM     14  CZ2 TRP A   1      -4.199  -3.874 -34.078  1.00  0.00     0.030 A 
ATOM     15  NE1 TRP A   1      -4.068  -1.414 -33.568  1.00  0.00    -0.365 N 
ATOM     16  CH2 TRP A   1      -5.071  -4.863 -34.544  1.00  0.00     0.002 A 
ATOM     17  CZ3 TRP A   1      -6.383  -4.555 -34.895  1.00  0.00     0.001 A 
ATOM     18  HE1 TRP A   1      -3.104  -1.361 -33.273  1.00  0.00     0.165 HD
ATOM     19  CD1 TRP A   1      -4.935  -0.355 -33.639  1.00  0.00     0.096 A 
ENDBRANCH   9  10
ENDBRANCH   5   9
ENDBRANCH   3   5
BRANCH   1  20
HETATM   20  C   UNK A   0      -5.893   3.876 -31.921  1.00  0.00     0.032 A 
HETATM   21  C   UNK A   0      -4.586   3.593 -32.354  1.00  0.00     0.026 A 
HETATM   22  C   UNK A   0      -3.557   4.539 -32.185  1.00  0.00    -0.037 A 
HETATM   23  C   UNK A   0      -3.867   5.758 -31.552  1.00  0.00     0.009 A 
HETATM   24  C   UNK A   0      -5.155   6.029 -31.094  1.00  0.00     0.002 A 
HETATM   25  C   UNK A   0      -6.165   5.092 -31.280  1.00  0.00     0.017 A 
BRANCH  22  26
HETATM   26  C   UNK A   0      -2.135   4.375 -32.682  1.00  0.00     0.189 C 
BRANCH  26  27
HETATM   27  N   UNK A   0      -1.094   5.100 -31.957  1.00  0.00    -0.270 N 
HETATM   28  N   UNK A   0      -0.648   4.583 -30.791  1.00  0.00    -0.177 NA
HETATM   29  C   UNK A   0       0.111   5.548 -30.263  1.00  0.00     0.053 A 
HETATM   30  C   UNK A   0       0.742   5.371 -28.933  1.00  0.00     0.072 C 
HETATM   31  C   UNK A   0       0.179   6.673 -31.109  1.00  0.00     0.055 A 
HETATM   32  C   UNK A   0      -0.622   6.372 -32.192  1.00  0.00     0.029 A 
HETATM   33  C   UNK A   0      -0.949   7.190 -33.385  1.00  0.00     0.070 C 
ENDBRANCH  26  27
ENDBRANCH  22  26
ENDBRANCH   1  20
TORSDOF 8
ENDMDL
MODEL 6
REMARK VINA RESULT:      -8.7      1.525      2.095
REMARK  8 active torsions:
REMARK  status: ('A' for Active; 'I' for Inactive)
REMARK    1  A    between atoms: N_4  and  C_5 
REMARK    2  A    between atoms: C_5  and  C_6 
REMARK    3  A    between atoms: C_8  and  C_9 
REMARK       I    between atoms: C_9  and  N_17 
REMARK    4  A    between atoms: N_17  and  CA_18 
REMARK    5  A    between atoms: CA_18  and  C_19 
REMARK    6  A    between atoms: CA_18  and  CB_21 
REMARK    7  A    between atoms: C_19  and  O_20 
REMARK    8  A    between atoms: CB_21  and  CG_22 
ROOT
HETATM    1  C   UNK A   0      -3.346   2.952 -32.109  1.00  0.00     0.252 C 
HETATM    2  O   UNK A   0      -2.916   2.264 -31.187  1.00  0.00    -0.268 OA
ATOM      3  N   TRP A   1      -4.584   2.742 -32.675  1.00  0.00    -0.350 N 
ATOM      4  H   TRP A   1      -4.985   3.425 -33.305  1.00  0.00     0.163 HD
ENDROOT
BRANCH   3   5
ATOM      5  CA  TRP A   1      -5.519   1.757 -32.115  1.00  0.00     0.112 C 
BRANCH   5   6
ATOM      6  C   TRP A   1      -6.191   2.358 -30.868  1.00  0.00     0.189 C 
BRANCH   6   7
ATOM      7  O   TRP A   1      -5.680   1.766 -29.671  1.00  0.00    -0.399 OA
ATOM      8  H   TRP A   1      -5.060   2.411 -29.287  1.00  0.00     0.209 HD
ENDBRANCH   6   7
ENDBRANCH   5   6
BRANCH   5   9
ATOM      9  CB  TRP A   1      -4.775   0.436 -31.820  1.00  0.00     0.068 C 
BRANCH   9  10
ATOM     10  CG  TRP A   1      -4.981  -0.624 -32.860  1.00  0.00    -0.028 A 
ATOM     11  CD2 TRP A   1      -4.358  -1.914 -32.891  1.00  0.00    -0.002 A 
ATOM     12  CE2 TRP A   1      -4.839  -2.585 -34.014  1.00  0.00     0.042 A 
ATOM     13  CE3 TRP A   1      -3.431  -2.574 -32.058  1.00  0.00     0.014 A 
ATOM     14  CZ2 TRP A   1      -4.437  -3.883 -34.351  1.00  0.00     0.030 A 
ATOM     15  NE1 TRP A   1      -5.726  -1.741 -34.640  1.00  0.00    -0.365 N 
ATOM     16  CH2 TRP A   1      -3.516  -4.515 -33.511  1.00  0.00     0.002 A 
ATOM     17  CZ3 TRP A   1      -3.019  -3.872 -32.380  1.00  0.00     0.001 A 
ATOM     18  HE1 TRP A   1      -6.238  -1.973 -35.479  1.00  0.00     0.165 HD
ATOM     19  CD1 TRP A   1      -5.824  -0.560 -33.953  1.00  0.00     0.096 A 
ENDBRANCH   9  10
ENDBRANCH   5   9
ENDBRANCH   3   5
BRANCH   1  20
HETATM   20  C   UNK A   0      -2.553   4.114 -32.610  1.00  0.00     0.032 A 
HETATM   21  C   UNK A   0      -1.729   4.896 -31.783  1.00  0.00     0.026 A 
HETATM   22  C   UNK A   0      -0.965   5.947 -32.324  1.00  0.00    -0.037 A 
HETATM   23  C   UNK A   0      -1.069   6.206 -33.704  1.00  0.00     0.009 A 
HETATM   24  C   UNK A   0      -1.909   5.453 -34.522  1.00  0.00     0.002 A 
HETATM   25  C   UNK A   0      -2.648   4.409 -33.976  1.00  0.00     0.017 A 
BRANCH  22  26
HETATM   26  C   UNK A   0       0.015   6.801 -31.546  1.00  0.00     0.189 C 
BRANCH  26  27
HETATM   27  N   UNK A   0      -0.380   7.199 -30.197  1.00  0.00    -0.270 N 
HETATM   28  N   UNK A   0       0.138   6.520 -29.151  1.00  0.00    -0.177 NA
HETATM   29  C   UNK A   0      -0.560   6.946 -28.094  1.00  0.00     0.053 A 
HETATM   30  C   UNK A   0      -0.312   6.379 -26.746  1.00  0.00     0.072 C 
HETATM   31  C   UNK A   0      -1.505   7.926 -28.459  1.00  0.00     0.055 A 
HETATM   32  C   UNK A   0      -1.387   8.063 -29.827  1.00  0.00     0.029 A 
HETATM   33  C   UNK A   0      -2.144   8.933 -30.761  1.00  0.00     0.070 C 
ENDBRANCH  26  27
ENDBRANCH  22  26
ENDBRANCH   1  20
TORSDOF 8
ENDMDL
MODEL 7
REMARK VINA RESULT:      -8.6      1.650      2.279
REMARK  8 active torsions:
REMARK  status: ('A' for Active; 'I' for Inactive)
REMARK    1  A    between atoms: N_4  and  C_5 
REMARK    2  A    between atoms: C_5  and  C_6 
REMARK    3  A    between atoms: C_8  and  C_9 
REMARK       I    between atoms: C_9  and  N_17 
REMARK    4  A    between atoms: N_17  and  CA_18 
REMARK    5  A    between atoms: CA_18  and  C_19 
REMARK    6  A    between atoms: CA_18  and  CB_21 
REMARK    7  A    between atoms: C_19  and  O_20 
REMARK    8  A    between atoms: CB_21  and  CG_22 
ROOT
HETATM    1  C   UNK A   0      -4.870   4.179 -33.039  1.00  0.00     0.252 C 
HETATM    2  O   UNK A   0      -5.741   4.025 -33.890  1.00  0.00    -0.268 OA
ATOM      3  N   TRP A   1      -4.891   3.518 -31.830  1.00  0.00    -0.350 N 
ATOM      4  H   TRP A   1      -4.079   3.525 -31.225  1.00  0.00     0.163 HD
ENDROOT
BRANCH   3   5
ATOM      5  CA  TRP A   1      -5.896   2.485 -31.545  1.00  0.00     0.112 C 
BRANCH   5   6
ATOM      6  C   TRP A   1      -6.424   2.685 -30.114  1.00  0.00     0.189 C 
BRANCH   6   7
ATOM      7  O   TRP A   1      -6.384   1.462 -29.374  1.00  0.00    -0.399 OA
ATOM      8  H   TRP A   1      -6.656   1.680 -28.465  1.00  0.00     0.209 HD
ENDBRANCH   6   7
ENDBRANCH   5   6
BRANCH   5   9
ATOM      9  CB  TRP A   1      -5.288   1.084 -31.772  1.00  0.00     0.068 C 
BRANCH   9  10
ATOM     10  CG  TRP A   1      -6.147   0.173 -32.595  1.00  0.00    -0.028 A 
ATOM     11  CD2 TRP A   1      -5.714  -1.001 -33.293  1.00  0.00    -0.002 A 
ATOM     12  CE2 TRP A   1      -6.832  -1.556 -33.914  1.00  0.00     0.042 A 
ATOM     13  CE3 TRP A   1      -4.468  -1.644 -33.448  1.00  0.00     0.014 A 
ATOM     14  CZ2 TRP A   1      -6.769  -2.722 -34.686  1.00  0.00     0.030 A 
ATOM     15  NE1 TRP A   1      -7.907  -0.758 -33.601  1.00  0.00    -0.365 N 
ATOM     16  CH2 TRP A   1      -5.523  -3.340 -34.826  1.00  0.00     0.002 A 
ATOM     17  CZ3 TRP A   1      -4.387  -2.811 -34.216  1.00  0.00     0.001 A 
ATOM     18  HE1 TRP A   1      -8.853  -0.929 -33.909  1.00  0.00     0.165 HD
ATOM     19  CD1 TRP A   1      -7.509   0.283 -32.804  1.00  0.00     0.096 A 
ENDBRANCH   9  10
ENDBRANCH   5   9
ENDBRANCH   3   5
BRANCH   1  20
HETATM   20  C   UNK A   0      -3.693   5.051 -33.322  1.00  0.00     0.032 A 
HETATM   21  C   UNK A   0      -3.257   6.063 -32.448  1.00  0.00     0.026 A 
HETATM   22  C   UNK A   0      -2.107   6.818 -32.745  1.00  0.00    -0.037 A 
HETATM   23  C   UNK A   0      -1.425   6.550 -33.948  1.00  0.00     0.009 A 
HETATM   24  C   UNK A   0      -1.872   5.569 -34.832  1.00  0.00     0.002 A 
HETATM   25  C   UNK A   0      -3.001   4.821 -34.518  1.00  0.00     0.017 A 
BRANCH  22  26
HETATM   26  C   UNK A   0      -1.502   7.873 -31.843  1.00  0.00     0.189 C 
BRANCH  26  27
HETATM   27  N   UNK A   0      -0.763   7.400 -30.675  1.00  0.00    -0.270 N 
HETATM   28  N   UNK A   0      -0.055   6.255 -30.786  1.00  0.00    -0.177 NA
HETATM   29  C   UNK A   0       0.314   5.964 -29.535  1.00  0.00     0.053 A 
HETATM   30  C   UNK A   0       1.076   4.728 -29.240  1.00  0.00     0.072 C 
HETATM   31  C   UNK A   0      -0.130   6.944 -28.624  1.00  0.00     0.055 A 
HETATM   32  C   UNK A   0      -0.842   7.855 -29.377  1.00  0.00     0.029 A 
HETATM   33  C   UNK A   0      -1.561   9.081 -28.952  1.00  0.00     0.070 C 
ENDBRANCH  26  27
ENDBRANCH  22  26
ENDBRANCH   1  20
TORSDOF 8
ENDMDL
MODEL 8
REMARK VINA RESULT:      -8.6      4.698      7.299
REMARK  8 active torsions:
REMARK  status: ('A' for Active; 'I' for Inactive)
REMARK    1  A    between atoms: N_4  and  C_5 
REMARK    2  A    between atoms: C_5  and  C_6 
REMARK    3  A    between atoms: C_8  and  C_9 
REMARK       I    between atoms: C_9  and  N_17 
REMARK    4  A    between atoms: N_17  and  CA_18 
REMARK    5  A    between atoms: CA_18  and  C_19 
REMARK    6  A    between atoms: CA_18  and  CB_21 
REMARK    7  A    between atoms: C_19  and  O_20 
REMARK    8  A    between atoms: CB_21  and  CG_22 
ROOT
HETATM    1  C   UNK A   0      -6.501   1.052 -30.900  1.00  0.00     0.252 C 
HETATM    2  O   UNK A   0      -7.054  -0.042 -30.843  1.00  0.00    -0.268 OA
ATOM      3  N   TRP A   1      -5.175   1.195 -31.249  1.00  0.00    -0.350 N 
ATOM      4  H   TRP A   1      -4.793   2.109 -31.459  1.00  0.00     0.163 HD
ENDROOT
BRANCH   3   5
ATOM      5  CA  TRP A   1      -4.380   0.046 -31.701  1.00  0.00     0.112 C 
BRANCH   5   6
ATOM      6  C   TRP A   1      -2.984   0.120 -31.059  1.00  0.00     0.189 C 
BRANCH   6   7
ATOM      7  O   TRP A   1      -2.212  -1.043 -31.368  1.00  0.00    -0.399 OA
ATOM      8  H   TRP A   1      -1.351  -0.926 -30.930  1.00  0.00     0.209 HD
ENDBRANCH   6   7
ENDBRANCH   5   6
BRANCH   5   9
ATOM      9  CB  TRP A   1      -4.332   0.017 -33.244  1.00  0.00     0.068 C 
BRANCH   9  10
ATOM     10  CG  TRP A   1      -5.347  -0.893 -33.869  1.00  0.00    -0.028 A 
ATOM     11  CD2 TRP A   1      -5.199  -2.299 -34.099  1.00  0.00    -0.002 A 
ATOM     12  CE2 TRP A   1      -6.380  -2.755 -34.681  1.00  0.00     0.042 A 
ATOM     13  CE3 TRP A   1      -4.165  -3.227 -33.856  1.00  0.00     0.014 A 
ATOM     14  CZ2 TRP A   1      -6.581  -4.093 -35.040  1.00  0.00     0.030 A 
ATOM     15  NE1 TRP A   1      -7.220  -1.672 -34.797  1.00  0.00    -0.365 N 
ATOM     16  CH2 TRP A   1      -5.541  -4.993 -34.792  1.00  0.00     0.002 A 
ATOM     17  CZ3 TRP A   1      -4.349  -4.569 -34.208  1.00  0.00     0.001 A 
ATOM     18  HE1 TRP A   1      -8.155  -1.712 -35.177  1.00  0.00     0.165 HD
ATOM     19  CD1 TRP A   1      -6.611  -0.546 -34.306  1.00  0.00     0.096 A 
ENDBRANCH   9  10
ENDBRANCH   5   9
ENDBRANCH   3   5
BRANCH   1  20
HETATM   20  C   UNK A   0      -7.283   2.301 -30.660  1.00  0.00     0.032 A 
HETATM   21  C   UNK A   0      -8.558   2.527 -31.207  1.00  0.00     0.026 A 
HETATM   22  C   UNK A   0      -9.269   3.703 -30.901  1.00  0.00    -0.037 A 
HETATM   23  C   UNK A   0      -8.659   4.651 -30.057  1.00  0.00     0.009 A 
HETATM   24  C   UNK A   0      -7.382   4.445 -29.539  1.00  0.00     0.002 A 
HETATM   25  C   UNK A   0      -6.697   3.272 -29.838  1.00  0.00     0.017 A 
BRANCH  22  26
HETATM   26  C   UNK A   0     -10.676   4.014 -31.366  1.00  0.00     0.189 C 
BRANCH  26  27
HETATM   27  N   UNK A   0     -10.972   3.786 -32.778  1.00  0.00    -0.270 N 
HETATM   28  N   UNK A   0     -11.748   2.730 -33.107  1.00  0.00    -0.177 NA
HETATM   29  C   UNK A   0     -11.658   2.648 -34.438  1.00  0.00     0.053 A 
HETATM   30  C   UNK A   0     -12.343   1.559 -35.176  1.00  0.00     0.072 C 
HETATM   31  C   UNK A   0     -10.849   3.674 -34.966  1.00  0.00     0.055 A 
HETATM   32  C   UNK A   0     -10.399   4.390 -33.876  1.00  0.00     0.029 A 
HETATM   33  C   UNK A   0      -9.495   5.564 -33.821  1.00  0.00     0.070 C 
ENDBRANCH  26  27
ENDBRANCH  22  26
ENDBRANCH   1  20
TORSDOF 8
ENDMDL
MODEL 9
REMARK VINA RESULT:      -8.4      2.382      9.005
REMARK  8 active torsions:
REMARK  status: ('A' for Active; 'I' for Inactive)
REMARK    1  A    between atoms: N_4  and  C_5 
REMARK    2  A    between atoms: C_5  and  C_6 
REMARK    3  A    between atoms: C_8  and  C_9 
REMARK       I    between atoms: C_9  and  N_17 
REMARK    4  A    between atoms: N_17  and  CA_18 
REMARK    5  A    between atoms: CA_18  and  C_19 
REMARK    6  A    between atoms: CA_18  and  CB_21 
REMARK    7  A    between atoms: C_19  and  O_20 
REMARK    8  A    between atoms: CB_21  and  CG_22 
ROOT
HETATM    1  C   UNK A   0      -6.562   4.096 -33.991  1.00  0.00     0.252 C 
HETATM    2  O   UNK A   0      -6.999   5.243 -34.013  1.00  0.00    -0.268 OA
ATOM      3  N   TRP A   1      -5.212   3.818 -33.957  1.00  0.00    -0.350 N 
ATOM      4  H   TRP A   1      -4.884   2.880 -33.762  1.00  0.00     0.163 HD
ENDROOT
BRANCH   3   5
ATOM      5  CA  TRP A   1      -4.219   4.890 -33.813  1.00  0.00     0.112 C 
BRANCH   5   6
ATOM      6  C   TRP A   1      -3.744   5.323 -35.211  1.00  0.00     0.189 C 
BRANCH   6   7
ATOM      7  O   TRP A   1      -2.317   5.385 -35.275  1.00  0.00    -0.399 OA
ATOM      8  H   TRP A   1      -2.046   4.791 -35.997  1.00  0.00     0.209 HD
ENDBRANCH   6   7
ENDBRANCH   5   6
BRANCH   5   9
ATOM      9  CB  TRP A   1      -3.063   4.416 -32.905  1.00  0.00     0.068 C 
BRANCH   9  10
ATOM     10  CG  TRP A   1      -2.884   5.239 -31.666  1.00  0.00    -0.028 A 
ATOM     11  CD2 TRP A   1      -1.666   5.845 -31.218  1.00  0.00    -0.002 A 
ATOM     12  CE2 TRP A   1      -1.947   6.529 -30.037  1.00  0.00     0.042 A 
ATOM     13  CE3 TRP A   1      -0.347   5.876 -31.716  1.00  0.00     0.014 A 
ATOM     14  CZ2 TRP A   1      -0.976   7.241 -29.324  1.00  0.00     0.030 A 
ATOM     15  NE1 TRP A   1      -3.286   6.355 -29.777  1.00  0.00    -0.365 N 
ATOM     16  CH2 TRP A   1       0.324   7.255 -29.837  1.00  0.00     0.002 A 
ATOM     17  CZ3 TRP A   1       0.637   6.584 -31.016  1.00  0.00     0.001 A 
ATOM     18  HE1 TRP A   1      -3.771   6.754 -28.985  1.00  0.00     0.165 HD
ATOM     19  CD1 TRP A   1      -3.863   5.585 -30.753  1.00  0.00     0.096 A 
ENDBRANCH   9  10
ENDBRANCH   5   9
ENDBRANCH   3   5
BRANCH   1  20
HETATM   20  C   UNK A   0      -7.500   2.937 -33.924  1.00  0.00     0.032 A 
HETATM   21  C   UNK A   0      -7.070   1.605 -33.793  1.00  0.00     0.026 A 
HETATM   22  C   UNK A   0      -8.006   0.560 -33.682  1.00  0.00    -0.037 A 
HETATM   23  C   UNK A   0      -9.376   0.882 -33.729  1.00  0.00     0.009 A 
HETATM   24  C   UNK A   0      -9.806   2.198 -33.890  1.00  0.00     0.002 A 
HETATM   25  C   UNK A   0      -8.871   3.222 -33.985  1.00  0.00     0.017 A 
BRANCH  22  26
HETATM   26  C   UNK A   0      -7.659  -0.897 -33.458  1.00  0.00     0.189 C 
BRANCH  26  27
HETATM   27  N   UNK A   0      -6.269  -1.204 -33.127  1.00  0.00    -0.270 N 
HETATM   28  N   UNK A   0      -5.707  -0.568 -32.076  1.00  0.00    -0.177 NA
HETATM   29  C   UNK A   0      -4.407  -0.871 -32.155  1.00  0.00     0.053 A 
HETATM   30  C   UNK A   0      -3.438  -0.303 -31.188  1.00  0.00     0.072 C 
HETATM   31  C   UNK A   0      -4.142  -1.730 -33.241  1.00  0.00     0.055 A 
HETATM   32  C   UNK A   0      -5.356  -1.919 -33.869  1.00  0.00     0.029 A 
HETATM   33  C   UNK A   0      -5.683  -2.709 -35.082  1.00  0.00     0.070 C 
ENDBRANCH  26  27
ENDBRANCH  22  26
ENDBRANCH   1  20
TORSDOF 8
ENDMDL
MODEL 10
REMARK VINA RESULT:      -8.4      2.357      4.038
REMARK  8 active torsions:
REMARK  status: ('A' for Active; 'I' for Inactive)
REMARK    1  A    between atoms: N_4  and  C_5 
REMARK    2  A    between atoms: C_5  and  C_6 
REMARK    3  A    between atoms: C_8  and  C_9 
REMARK       I    between atoms: C_9  and  N_17 
REMARK    4  A    between atoms: N_17  and  CA_18 
REMARK    5  A    between atoms: CA_18  and  C_19 
REMARK    6  A    between atoms: CA_18  and  CB_21 
REMARK    7  A    between atoms: C_19  and  O_20 
REMARK    8  A    between atoms: CB_21  and  CG_22 
ROOT
HETATM    1  C   UNK A   0      -6.756   3.008 -33.258  1.00  0.00     0.252 C 
HETATM    2  O   UNK A   0      -6.666   2.787 -34.462  1.00  0.00    -0.268 OA
ATOM      3  N   TRP A   1      -7.809   2.548 -32.497  1.00  0.00    -0.350 N 
ATOM      4  H   TRP A   1      -7.771   2.590 -31.486  1.00  0.00     0.163 HD
ENDROOT
BRANCH   3   5
ATOM      5  CA  TRP A   1      -8.825   1.652 -33.066  1.00  0.00     0.112 C 
BRANCH   5   6
ATOM      6  C   TRP A   1     -10.221   2.179 -32.694  1.00  0.00     0.189 C 
BRANCH   6   7
ATOM      7  O   TRP A   1     -10.272   2.583 -31.323  1.00  0.00    -0.399 OA
ATOM      8  H   TRP A   1     -11.112   2.243 -30.967  1.00  0.00     0.209 HD
ENDBRANCH   6   7
ENDBRANCH   5   6
BRANCH   5   9
ATOM      9  CB  TRP A   1      -8.578   0.207 -32.582  1.00  0.00     0.068 C 
BRANCH   9  10
ATOM     10  CG  TRP A   1      -7.372  -0.443 -33.191  1.00  0.00    -0.028 A 
ATOM     11  CD2 TRP A   1      -6.059  -0.499 -32.620  1.00  0.00    -0.002 A 
ATOM     12  CE2 TRP A   1      -5.248  -1.206 -33.505  1.00  0.00     0.042 A 
ATOM     13  CE3 TRP A   1      -5.491  -0.016 -31.424  1.00  0.00     0.014 A 
ATOM     14  CZ2 TRP A   1      -3.892  -1.452 -33.259  1.00  0.00     0.030 A 
ATOM     15  NE1 TRP A   1      -6.034  -1.574 -34.572  1.00  0.00    -0.365 N 
ATOM     16  CH2 TRP A   1      -3.351  -0.961 -32.067  1.00  0.00     0.002 A 
ATOM     17  CZ3 TRP A   1      -4.137  -0.253 -31.160  1.00  0.00     0.001 A 
ATOM     18  HE1 TRP A   1      -5.709  -2.110 -35.363  1.00  0.00     0.165 HD
ATOM     19  CD1 TRP A   1      -7.317  -1.124 -34.392  1.00  0.00     0.096 A 
ENDBRANCH   9  10
ENDBRANCH   5   9
ENDBRANCH   3   5
BRANCH   1  20
HETATM   20  C   UNK A   0      -5.663   3.734 -32.546  1.00  0.00     0.032 A 
HETATM   21  C   UNK A   0      -4.313   3.659 -32.929  1.00  0.00     0.026 A 
HETATM   22  C   UNK A   0      -3.335   4.410 -32.249  1.00  0.00    -0.037 A 
HETATM   23  C   UNK A   0      -3.742   5.213 -31.167  1.00  0.00     0.009 A 
HETATM   24  C   UNK A   0      -5.075   5.265 -30.764  1.00  0.00     0.002 A 
HETATM   25  C   UNK A   0      -6.033   4.529 -31.453  1.00  0.00     0.017 A 
BRANCH  22  26
HETATM   26  C   UNK A   0      -1.869   4.470 -32.624  1.00  0.00     0.189 C 
BRANCH  26  27
HETATM   27  N   UNK A   0      -1.004   5.296 -31.785  1.00  0.00    -0.270 N 
HETATM   28  N   UNK A   0      -0.474   4.743 -30.672  1.00  0.00    -0.177 NA
HETATM   29  C   UNK A   0       0.066   5.770 -30.010  1.00  0.00     0.053 A 
HETATM   30  C   UNK A   0       0.708   5.565 -28.689  1.00  0.00     0.072 C 
HETATM   31  C   UNK A   0      -0.090   6.980 -30.716  1.00  0.00     0.055 A 
HETATM   32  C   UNK A   0      -0.801   6.656 -31.853  1.00  0.00     0.029 A 
HETATM   33  C   UNK A   0      -1.278   7.530 -32.954  1.00  0.00     0.070 C 
ENDBRANCH  26  27
ENDBRANCH  22  26
ENDBRANCH   1  20
TORSDOF 8
ENDMDL
