MODEL 1
REMARK VINA RESULT:     -11.0      0.000      0.000
REMARK  4 active torsions:
REMARK  status: ('A' for Active; 'I' for Inactive)
REMARK    1  A    between atoms: C_2  and  C_3 
REMARK    2  A    between atoms: C_11  and  N_12 
REMARK       I    between atoms: N_12  and  C_13 
REMARK    3  A    between atoms: C_13  and  C_14 
REMARK    4  A    between atoms: C_16  and  C_17 
ROOT
HETATM    1  C   UNL     1      -3.798   4.840 -33.726  1.00  0.00     0.032 A 
HETATM    2  C   UNL     1      -3.156   5.059 -32.497  1.00  0.00     0.029 A 
HETATM    3  C   UNL     1      -1.804   5.444 -32.431  1.00  0.00    -0.024 A 
HETATM    4  C   UNL     1      -1.114   5.599 -33.647  1.00  0.00     0.012 A 
HETATM    5  C   UNL     1      -1.747   5.385 -34.876  1.00  0.00     0.002 A 
HETATM    6  C   UNL     1      -3.089   5.013 -34.918  1.00  0.00     0.017 A 
ENDROOT
BRANCH   1   7
HETATM    7  C   UNL     1      -5.245   4.487 -33.710  1.00  0.00     0.252 C 
HETATM    8  N   UNL     1      -5.590   3.325 -33.048  1.00  0.00    -0.352 N 
HETATM    9  H   UNL     1      -4.914   2.920 -32.414  1.00  0.00     0.163 HD
HETATM   10  O   UNL     1      -6.059   5.223 -34.257  1.00  0.00    -0.268 OA
BRANCH   8  11
HETATM   11  C   UNL     1      -6.982   2.909 -32.918  1.00  0.00     0.084 C 
HETATM   12  C   UNL     1      -7.513   2.367 -34.242  1.00  0.00     0.026 C 
HETATM   13  C   UNL     1      -6.931   1.000 -34.611  1.00  0.00     0.016 C 
HETATM   14  C   UNL     1      -7.061  -0.091 -33.505  1.00  0.00    -0.017 C 
HETATM   15  C   UNL     1      -8.540  -0.519 -33.372  1.00  0.00     0.020 C 
HETATM   16  C   UNL     1      -6.563   0.515 -32.158  1.00  0.00     0.016 C 
HETATM   17  C   UNL     1      -7.160   1.879 -31.804  1.00  0.00     0.026 C 
BRANCH  14  18
HETATM   18  C   UNL     1      -6.263  -1.369 -33.873  1.00  0.00    -0.050 A 
HETATM   19  C   UNL     1      -6.859  -2.437 -34.570  1.00  0.00     0.008 A 
HETATM   20  C   UNL     1      -6.143  -3.599 -34.880  1.00  0.00     0.001 A 
HETATM   21  C   UNL     1      -4.815  -3.729 -34.489  1.00  0.00     0.000 A 
HETATM   22  C   UNL     1      -4.208  -2.700 -33.779  1.00  0.00     0.001 A 
HETATM   23  C   UNL     1      -4.925  -1.540 -33.469  1.00  0.00     0.008 A 
ENDBRANCH  14  18
ENDBRANCH   8  11
ENDBRANCH   1   7
BRANCH   3  24
HETATM   24  C   UNL     1      -1.143   5.694 -31.135  1.00  0.00    -0.006 A 
HETATM   25  C   UNL     1       0.003   4.965 -30.735  1.00  0.00     0.131 A 
HETATM   26  N   UNL     1       0.690   5.128 -29.569  1.00  0.00    -0.240 NA
HETATM   27  C   UNL     1       0.176   6.066 -28.776  1.00  0.00     0.158 A 
HETATM   28  C   UNL     1      -0.946   6.837 -29.057  1.00  0.00     0.085 A 
HETATM   29  N   UNL     1       0.656   6.449 -27.534  1.00  0.00    -0.291 N 
HETATM   30  N   UNL     1      -1.163   7.696 -27.975  1.00  0.00    -0.300 N 
HETATM   31  C   UNL     1      -1.624   6.670 -30.242  1.00  0.00     0.047 A 
HETATM   32  C   UNL     1      -2.226   8.653 -27.870  1.00  0.00     0.161 C 
HETATM   33  C   UNL     1      -0.160   7.460 -27.016  1.00  0.00     0.328 A 
HETATM   34  O   UNL     1      -0.011   8.016 -25.941  1.00  0.00    -0.247 OA
HETATM   35  H   UNL     1       1.462   6.057 -27.081  1.00  0.00     0.172 HD
ENDBRANCH   3  24
TORSDOF 4
ENDMDL
MODEL 2
REMARK VINA RESULT:     -10.6      3.324     10.521
REMARK  4 active torsions:
REMARK  status: ('A' for Active; 'I' for Inactive)
REMARK    1  A    between atoms: C_2  and  C_3 
REMARK    2  A    between atoms: C_11  and  N_12 
REMARK       I    between atoms: N_12  and  C_13 
REMARK    3  A    between atoms: C_13  and  C_14 
REMARK    4  A    between atoms: C_16  and  C_17 
ROOT
HETATM    1  C   UNL     1      -3.177   3.602 -31.640  1.00  0.00     0.032 A 
HETATM    2  C   UNL     1      -3.066   2.242 -31.971  1.00  0.00     0.029 A 
HETATM    3  C   UNL     1      -4.168   1.372 -31.884  1.00  0.00    -0.024 A 
HETATM    4  C   UNL     1      -5.391   1.914 -31.448  1.00  0.00     0.012 A 
HETATM    5  C   UNL     1      -5.510   3.269 -31.120  1.00  0.00     0.002 A 
HETATM    6  C   UNL     1      -4.407   4.115 -31.221  1.00  0.00     0.017 A 
ENDROOT
BRANCH   1   7
HETATM    7  C   UNL     1      -1.976   4.467 -31.810  1.00  0.00     0.252 C 
HETATM    8  N   UNL     1      -1.352   4.892 -30.653  1.00  0.00    -0.352 N 
HETATM    9  H   UNL     1      -1.573   4.413 -29.790  1.00  0.00     0.163 HD
HETATM   10  O   UNL     1      -1.583   4.753 -32.936  1.00  0.00    -0.268 OA
BRANCH   8  11
HETATM   11  C   UNL     1      -0.135   5.694 -30.697  1.00  0.00     0.084 C 
HETATM   12  C   UNL     1      -0.467   7.183 -30.766  1.00  0.00     0.026 C 
HETATM   13  C   UNL     1      -1.024   7.738 -29.452  1.00  0.00     0.016 C 
HETATM   14  C   UNL     1      -0.150   7.451 -28.194  1.00  0.00    -0.017 C 
HETATM   15  C   UNL     1       1.140   8.301 -28.255  1.00  0.00     0.020 C 
HETATM   16  C   UNL     1       0.217   5.936 -28.186  1.00  0.00     0.016 C 
HETATM   17  C   UNL     1       0.776   5.401 -29.507  1.00  0.00     0.026 C 
BRANCH  14  18
HETATM   18  C   UNL     1      -0.885   7.855 -26.889  1.00  0.00    -0.050 A 
HETATM   19  C   UNL     1      -1.952   7.094 -26.376  1.00  0.00     0.008 A 
HETATM   20  C   UNL     1      -2.629   7.473 -25.211  1.00  0.00     0.001 A 
HETATM   21  C   UNL     1      -2.265   8.632 -24.536  1.00  0.00     0.000 A 
HETATM   22  C   UNL     1      -1.231   9.417 -25.033  1.00  0.00     0.001 A 
HETATM   23  C   UNL     1      -0.556   9.037 -26.198  1.00  0.00     0.008 A 
ENDBRANCH  14  18
ENDBRANCH   8  11
ENDBRANCH   1   7
BRANCH   3  24
HETATM   24  C   UNL     1      -4.049  -0.052 -32.255  1.00  0.00    -0.006 A 
HETATM   25  C   UNL     1      -3.026  -0.874 -31.721  1.00  0.00     0.131 A 
HETATM   26  N   UNL     1      -2.839  -2.196 -31.991  1.00  0.00    -0.240 NA
HETATM   27  C   UNL     1      -3.726  -2.695 -32.850  1.00  0.00     0.158 A 
HETATM   28  C   UNL     1      -4.763  -1.986 -33.444  1.00  0.00     0.085 A 
HETATM   29  N   UNL     1      -3.783  -4.000 -33.311  1.00  0.00    -0.291 N 
HETATM   30  N   UNL     1      -5.461  -2.860 -34.284  1.00  0.00    -0.300 N 
HETATM   31  C   UNL     1      -4.948  -0.654 -33.156  1.00  0.00     0.047 A 
HETATM   32  C   UNL     1      -6.600  -2.518 -35.084  1.00  0.00     0.161 C 
HETATM   33  C   UNL     1      -4.853  -4.128 -34.203  1.00  0.00     0.328 A 
HETATM   34  O   UNL     1      -5.177  -5.149 -34.786  1.00  0.00    -0.247 OA
HETATM   35  H   UNL     1      -3.152  -4.734 -33.044  1.00  0.00     0.172 HD
ENDBRANCH   3  24
TORSDOF 4
ENDMDL
MODEL 3
REMARK VINA RESULT:     -10.2      6.674     11.116
REMARK  4 active torsions:
REMARK  status: ('A' for Active; 'I' for Inactive)
REMARK    1  A    between atoms: C_2  and  C_3 
REMARK    2  A    between atoms: C_11  and  N_12 
REMARK       I    between atoms: N_12  and  C_13 
REMARK    3  A    between atoms: C_13  and  C_14 
REMARK    4  A    between atoms: C_16  and  C_17 
ROOT
HETATM    1  C   UNL     1     -11.662   1.942 -33.166  1.00  0.00     0.032 A 
HETATM    2  C   UNL     1     -12.813   2.639 -32.765  1.00  0.00     0.029 A 
HETATM    3  C   UNL     1     -14.099   2.093 -32.934  1.00  0.00    -0.024 A 
HETATM    4  C   UNL     1     -14.192   0.820 -33.525  1.00  0.00     0.012 A 
HETATM    5  C   UNL     1     -13.050   0.119 -33.925  1.00  0.00     0.002 A 
HETATM    6  C   UNL     1     -11.785   0.674 -33.740  1.00  0.00     0.017 A 
ENDROOT
BRANCH   1   7
HETATM    7  C   UNL     1     -10.335   2.567 -32.904  1.00  0.00     0.252 C 
HETATM    8  N   UNL     1      -9.280   1.705 -32.679  1.00  0.00    -0.352 N 
HETATM    9  H   UNL     1      -9.393   0.735 -32.943  1.00  0.00     0.163 HD
HETATM   10  O   UNL     1     -10.224   3.788 -32.911  1.00  0.00    -0.268 OA
BRANCH   8  11
HETATM   11  C   UNL     1      -7.925   2.201 -32.469  1.00  0.00     0.084 C 
HETATM   12  C   UNL     1      -7.195   1.364 -31.422  1.00  0.00     0.026 C 
HETATM   13  C   UNL     1      -6.819  -0.033 -31.923  1.00  0.00     0.016 C 
HETATM   14  C   UNL     1      -6.027  -0.061 -33.265  1.00  0.00    -0.017 C 
HETATM   15  C   UNL     1      -4.596   0.474 -33.032  1.00  0.00     0.020 C 
HETATM   16  C   UNL     1      -6.769   0.848 -34.291  1.00  0.00     0.016 C 
HETATM   17  C   UNL     1      -7.132   2.242 -33.774  1.00  0.00     0.026 C 
BRANCH  14  18
HETATM   18  C   UNL     1      -5.876  -1.507 -33.805  1.00  0.00    -0.050 A 
HETATM   19  C   UNL     1      -4.617  -2.128 -33.913  1.00  0.00     0.008 A 
HETATM   20  C   UNL     1      -4.481  -3.425 -34.423  1.00  0.00     0.001 A 
HETATM   21  C   UNL     1      -5.601  -4.129 -34.850  1.00  0.00     0.000 A 
HETATM   22  C   UNL     1      -6.854  -3.532 -34.777  1.00  0.00     0.001 A 
HETATM   23  C   UNL     1      -6.988  -2.236 -34.269  1.00  0.00     0.008 A 
ENDBRANCH  14  18
ENDBRANCH   8  11
ENDBRANCH   1   7
BRANCH   3  24
HETATM   24  C   UNL     1     -15.303   2.823 -32.488  1.00  0.00    -0.006 A 
HETATM   25  C   UNL     1     -16.578   2.207 -32.469  1.00  0.00     0.131 A 
HETATM   26  N   UNL     1     -17.743   2.789 -32.066  1.00  0.00    -0.240 NA
HETATM   27  C   UNL     1     -17.599   4.055 -31.680  1.00  0.00     0.158 A 
HETATM   28  C   UNL     1     -16.404   4.765 -31.664  1.00  0.00     0.085 A 
HETATM   29  N   UNL     1     -18.601   4.897 -31.225  1.00  0.00    -0.291 N 
HETATM   30  N   UNL     1     -16.674   6.057 -31.203  1.00  0.00    -0.300 N 
HETATM   31  C   UNL     1     -15.234   4.163 -32.063  1.00  0.00     0.047 A 
HETATM   32  C   UNL     1     -15.708   7.105 -31.043  1.00  0.00     0.161 C 
HETATM   33  C   UNL     1     -18.051   6.147 -30.922  1.00  0.00     0.328 A 
HETATM   34  O   UNL     1     -18.664   7.112 -30.498  1.00  0.00    -0.247 OA
HETATM   35  H   UNL     1     -19.568   4.644 -31.130  1.00  0.00     0.172 HD
ENDBRANCH   3  24
TORSDOF 4
ENDMDL
MODEL 4
REMARK VINA RESULT:     -10.0      2.919     10.660
REMARK  4 active torsions:
REMARK  status: ('A' for Active; 'I' for Inactive)
REMARK    1  A    between atoms: C_2  and  C_3 
REMARK    2  A    between atoms: C_11  and  N_12 
REMARK       I    between atoms: N_12  and  C_13 
REMARK    3  A    between atoms: C_13  and  C_14 
REMARK    4  A    between atoms: C_16  and  C_17 
ROOT
HETATM    1  C   UNL     1      -3.061   4.911 -31.328  1.00  0.00     0.032 A 
HETATM    2  C   UNL     1      -3.465   3.721 -31.954  1.00  0.00     0.029 A 
HETATM    3  C   UNL     1      -4.819   3.464 -32.240  1.00  0.00    -0.024 A 
HETATM    4  C   UNL     1      -5.758   4.444 -31.871  1.00  0.00     0.012 A 
HETATM    5  C   UNL     1      -5.363   5.633 -31.249  1.00  0.00     0.002 A 
HETATM    6  C   UNL     1      -4.015   5.871 -30.982  1.00  0.00     0.017 A 
ENDROOT
BRANCH   1   7
HETATM    7  C   UNL     1      -1.604   5.130 -31.108  1.00  0.00     0.252 C 
HETATM    8  N   UNL     1      -1.256   5.999 -30.093  1.00  0.00    -0.352 N 
HETATM    9  H   UNL     1      -1.961   6.240 -29.410  1.00  0.00     0.163 HD
HETATM   10  O   UNL     1      -0.786   4.537 -31.804  1.00  0.00    -0.268 OA
BRANCH   8  11
HETATM   11  C   UNL     1       0.141   6.245 -29.750  1.00  0.00     0.084 C 
HETATM   12  C   UNL     1       0.420   7.743 -29.651  1.00  0.00     0.026 C 
HETATM   13  C   UNL     1      -0.206   8.393 -28.415  1.00  0.00     0.016 C 
HETATM   14  C   UNL     1       0.139   7.702 -27.061  1.00  0.00    -0.017 C 
HETATM   15  C   UNL     1       1.622   7.964 -26.710  1.00  0.00     0.020 C 
HETATM   16  C   UNL     1      -0.104   6.170 -27.215  1.00  0.00     0.016 C 
HETATM   17  C   UNL     1       0.535   5.538 -28.455  1.00  0.00     0.026 C 
BRANCH  14  18
HETATM   18  C   UNL     1      -0.700   8.287 -25.895  1.00  0.00    -0.050 A 
HETATM   19  C   UNL     1      -0.214   9.330 -25.085  1.00  0.00     0.008 A 
HETATM   20  C   UNL     1      -0.964   9.841 -24.019  1.00  0.00     0.001 A 
HETATM   21  C   UNL     1      -2.215   9.311 -23.727  1.00  0.00     0.000 A 
HETATM   22  C   UNL     1      -2.711   8.264 -24.496  1.00  0.00     0.001 A 
HETATM   23  C   UNL     1      -1.960   7.754 -25.559  1.00  0.00     0.008 A 
ENDBRANCH  14  18
ENDBRANCH   8  11
ENDBRANCH   1   7
BRANCH   3  24
HETATM   24  C   UNL     1      -5.233   2.220 -32.919  1.00  0.00    -0.006 A 
HETATM   25  C   UNL     1      -6.270   2.213 -33.884  1.00  0.00     0.131 A 
HETATM   26  N   UNL     1      -6.716   1.125 -34.572  1.00  0.00    -0.240 NA
HETATM   27  C   UNL     1      -6.084  -0.003 -34.251  1.00  0.00     0.158 A 
HETATM   28  C   UNL     1      -5.062  -0.120 -33.317  1.00  0.00     0.085 A 
HETATM   29  N   UNL     1      -6.323  -1.260 -34.781  1.00  0.00    -0.291 N 
HETATM   30  N   UNL     1      -4.673  -1.462 -33.265  1.00  0.00    -0.300 N 
HETATM   31  C   UNL     1      -4.614   0.988 -32.636  1.00  0.00     0.047 A 
HETATM   32  C   UNL     1      -3.647  -2.002 -32.422  1.00  0.00     0.161 C 
HETATM   33  C   UNL     1      -5.458  -2.185 -34.184  1.00  0.00     0.328 A 
HETATM   34  O   UNL     1      -5.411  -3.378 -34.429  1.00  0.00    -0.247 OA
HETATM   35  H   UNL     1      -7.010  -1.471 -35.482  1.00  0.00     0.172 HD
ENDBRANCH   3  24
TORSDOF 4
ENDMDL
MODEL 5
REMARK VINA RESULT:     -10.0      4.875      9.099
REMARK  4 active torsions:
REMARK  status: ('A' for Active; 'I' for Inactive)
REMARK    1  A    between atoms: C_2  and  C_3 
REMARK    2  A    between atoms: C_11  and  N_12 
REMARK       I    between atoms: N_12  and  C_13 
REMARK    3  A    between atoms: C_13  and  C_14 
REMARK    4  A    between atoms: C_16  and  C_17 
ROOT
HETATM    1  C   UNL     1      -7.280   3.836 -32.432  1.00  0.00     0.032 A 
HETATM    2  C   UNL     1      -8.525   3.187 -32.417  1.00  0.00     0.029 A 
HETATM    3  C   UNL     1      -9.613   3.666 -33.169  1.00  0.00    -0.024 A 
HETATM    4  C   UNL     1      -9.410   4.826 -33.937  1.00  0.00     0.012 A 
HETATM    5  C   UNL     1      -8.173   5.478 -33.959  1.00  0.00     0.002 A 
HETATM    6  C   UNL     1      -7.105   4.981 -33.213  1.00  0.00     0.017 A 
ENDROOT
BRANCH   1   7
HETATM    7  C   UNL     1      -6.164   3.235 -31.649  1.00  0.00     0.252 C 
HETATM    8  N   UNL     1      -5.564   2.115 -32.189  1.00  0.00    -0.352 N 
HETATM    9  H   UNL     1      -5.726   1.913 -33.167  1.00  0.00     0.163 HD
HETATM   10  O   UNL     1      -5.817   3.747 -30.590  1.00  0.00    -0.268 OA
BRANCH   8  11
HETATM   11  C   UNL     1      -4.424   1.476 -31.540  1.00  0.00     0.084 C 
HETATM   12  C   UNL     1      -4.876   0.287 -30.696  1.00  0.00     0.026 C 
HETATM   13  C   UNL     1      -5.324  -0.912 -31.535  1.00  0.00     0.016 C 
HETATM   14  C   UNL     1      -4.297  -1.387 -32.607  1.00  0.00    -0.017 C 
HETATM   15  C   UNL     1      -3.092  -2.056 -31.907  1.00  0.00     0.020 C 
HETATM   16  C   UNL     1      -3.816  -0.142 -33.411  1.00  0.00     0.016 C 
HETATM   17  C   UNL     1      -3.367   1.045 -32.555  1.00  0.00     0.026 C 
BRANCH  14  18
HETATM   18  C   UNL     1      -4.912  -2.456 -33.546  1.00  0.00    -0.050 A 
HETATM   19  C   UNL     1      -6.156  -2.260 -34.176  1.00  0.00     0.008 A 
HETATM   20  C   UNL     1      -6.720  -3.236 -35.006  1.00  0.00     0.001 A 
HETATM   21  C   UNL     1      -6.061  -4.441 -35.216  1.00  0.00     0.000 A 
HETATM   22  C   UNL     1      -4.842  -4.673 -34.588  1.00  0.00     0.001 A 
HETATM   23  C   UNL     1      -4.281  -3.697 -33.758  1.00  0.00     0.008 A 
ENDBRANCH  14  18
ENDBRANCH   8  11
ENDBRANCH   1   7
BRANCH   3  24
HETATM   24  C   UNL     1     -10.912   2.964 -33.166  1.00  0.00    -0.006 A 
HETATM   25  C   UNL     1     -11.028   1.616 -33.584  1.00  0.00     0.131 A 
HETATM   26  N   UNL     1     -12.174   0.880 -33.607  1.00  0.00    -0.240 NA
HETATM   27  C   UNL     1     -13.247   1.553 -33.197  1.00  0.00     0.158 A 
HETATM   28  C   UNL     1     -13.258   2.877 -32.773  1.00  0.00     0.085 A 
HETATM   29  N   UNL     1     -14.542   1.069 -33.115  1.00  0.00    -0.291 N 
HETATM   30  N   UNL     1     -14.572   3.213 -32.434  1.00  0.00    -0.300 N 
HETATM   31  C   UNL     1     -12.092   3.607 -32.745  1.00  0.00     0.047 A 
HETATM   32  C   UNL     1     -15.010   4.491 -31.954  1.00  0.00     0.161 C 
HETATM   33  C   UNL     1     -15.385   2.082 -32.643  1.00  0.00     0.328 A 
HETATM   34  O   UNL     1     -16.586   1.981 -32.457  1.00  0.00    -0.247 OA
HETATM   35  H   UNL     1     -14.826   0.137 -33.357  1.00  0.00     0.172 HD
ENDBRANCH   3  24
TORSDOF 4
ENDMDL
MODEL 6
REMARK VINA RESULT:     -10.0      4.510      8.572
REMARK  4 active torsions:
REMARK  status: ('A' for Active; 'I' for Inactive)
REMARK    1  A    between atoms: C_2  and  C_3 
REMARK    2  A    between atoms: C_11  and  N_12 
REMARK       I    between atoms: N_12  and  C_13 
REMARK    3  A    between atoms: C_13  and  C_14 
REMARK    4  A    between atoms: C_16  and  C_17 
ROOT
HETATM    1  C   UNL     1      -5.571   3.569 -32.236  1.00  0.00     0.032 A 
HETATM    2  C   UNL     1      -5.886   2.352 -32.861  1.00  0.00     0.029 A 
HETATM    3  C   UNL     1      -5.044   1.230 -32.753  1.00  0.00    -0.024 A 
HETATM    4  C   UNL     1      -3.867   1.372 -31.996  1.00  0.00     0.012 A 
HETATM    5  C   UNL     1      -3.547   2.580 -31.369  1.00  0.00     0.002 A 
HETATM    6  C   UNL     1      -4.400   3.677 -31.482  1.00  0.00     0.017 A 
ENDROOT
BRANCH   1   7
HETATM    7  C   UNL     1      -6.541   4.693 -32.355  1.00  0.00     0.252 C 
HETATM    8  N   UNL     1      -7.705   4.433 -33.051  1.00  0.00    -0.352 N 
HETATM    9  H   UNL     1      -7.953   3.467 -33.219  1.00  0.00     0.163 HD
HETATM   10  O   UNL     1      -6.288   5.775 -31.836  1.00  0.00    -0.268 OA
BRANCH   8  11
HETATM   11  C   UNL     1      -8.752   5.440 -33.182  1.00  0.00     0.084 C 
HETATM   12  C   UNL     1      -9.419   5.355 -34.554  1.00  0.00     0.026 C 
HETATM   13  C   UNL     1     -10.308   4.121 -34.716  1.00  0.00     0.016 C 
HETATM   14  C   UNL     1     -11.377   3.927 -33.599  1.00  0.00    -0.017 C 
HETATM   15  C   UNL     1     -12.478   5.003 -33.744  1.00  0.00     0.020 C 
HETATM   16  C   UNL     1     -10.674   4.076 -32.216  1.00  0.00     0.016 C 
HETATM   17  C   UNL     1      -9.792   5.319 -32.071  1.00  0.00     0.026 C 
BRANCH  14  18
HETATM   18  C   UNL     1     -12.084   2.553 -33.722  1.00  0.00    -0.050 A 
HETATM   19  C   UNL     1     -13.456   2.451 -34.025  1.00  0.00     0.008 A 
HETATM   20  C   UNL     1     -14.097   1.210 -34.113  1.00  0.00     0.001 A 
HETATM   21  C   UNL     1     -13.386   0.038 -33.885  1.00  0.00     0.000 A 
HETATM   22  C   UNL     1     -12.036   0.108 -33.561  1.00  0.00     0.001 A 
HETATM   23  C   UNL     1     -11.397   1.349 -33.472  1.00  0.00     0.008 A 
ENDBRANCH  14  18
ENDBRANCH   8  11
ENDBRANCH   1   7
BRANCH   3  24
HETATM   24  C   UNL     1      -5.395  -0.053 -33.395  1.00  0.00    -0.006 A 
HETATM   25  C   UNL     1      -6.513  -0.170 -34.256  1.00  0.00     0.131 A 
HETATM   26  N   UNL     1      -6.912  -1.301 -34.902  1.00  0.00    -0.240 NA
HETATM   27  C   UNL     1      -6.142  -2.357 -34.649  1.00  0.00     0.158 A 
HETATM   28  C   UNL     1      -5.028  -2.366 -33.819  1.00  0.00     0.085 A 
HETATM   29  N   UNL     1      -6.303  -3.635 -35.159  1.00  0.00    -0.291 N 
HETATM   30  N   UNL     1      -4.502  -3.662 -33.811  1.00  0.00    -0.300 N 
HETATM   31  C   UNL     1      -4.630  -1.215 -33.179  1.00  0.00     0.047 A 
HETATM   32  C   UNL     1      -3.351  -4.091 -33.073  1.00  0.00     0.161 C 
HETATM   33  C   UNL     1      -5.296  -4.464 -34.653  1.00  0.00     0.328 A 
HETATM   34  O   UNL     1      -5.153  -5.648 -34.907  1.00  0.00    -0.247 OA
HETATM   35  H   UNL     1      -7.030  -3.917 -35.792  1.00  0.00     0.172 HD
ENDBRANCH   3  24
TORSDOF 4
ENDMDL
MODEL 7
REMARK VINA RESULT:      -9.8      1.362      2.113
REMARK  4 active torsions:
REMARK  status: ('A' for Active; 'I' for Inactive)
REMARK    1  A    between atoms: C_2  and  C_3 
REMARK    2  A    between atoms: C_11  and  N_12 
REMARK       I    between atoms: N_12  and  C_13 
REMARK    3  A    between atoms: C_13  and  C_14 
REMARK    4  A    between atoms: C_16  and  C_17 
ROOT
HETATM    1  C   UNL     1      -3.656   5.162 -32.349  1.00  0.00     0.032 A 
HETATM    2  C   UNL     1      -3.324   6.128 -31.385  1.00  0.00     0.029 A 
HETATM    3  C   UNL     1      -1.987   6.496 -31.142  1.00  0.00    -0.024 A 
HETATM    4  C   UNL     1      -0.990   5.856 -31.900  1.00  0.00     0.012 A 
HETATM    5  C   UNL     1      -1.312   4.895 -32.864  1.00  0.00     0.002 A 
HETATM    6  C   UNL     1      -2.644   4.552 -33.094  1.00  0.00     0.017 A 
ENDROOT
BRANCH   1   7
HETATM    7  C   UNL     1      -5.097   4.868 -32.582  1.00  0.00     0.252 C 
HETATM    8  N   UNL     1      -5.525   3.592 -32.271  1.00  0.00    -0.352 N 
HETATM    9  H   UNL     1      -4.930   3.019 -31.687  1.00  0.00     0.163 HD
HETATM   10  O   UNL     1      -5.837   5.745 -33.015  1.00  0.00    -0.268 OA
BRANCH   8  11
HETATM   11  C   UNL     1      -6.926   3.207 -32.403  1.00  0.00     0.084 C 
HETATM   12  C   UNL     1      -7.251   2.826 -33.846  1.00  0.00     0.026 C 
HETATM   13  C   UNL     1      -6.637   1.490 -34.269  1.00  0.00     0.016 C 
HETATM   14  C   UNL     1      -6.953   0.291 -33.324  1.00  0.00    -0.017 C 
HETATM   15  C   UNL     1      -8.441  -0.103 -33.467  1.00  0.00     0.020 C 
HETATM   16  C   UNL     1      -6.664   0.734 -31.857  1.00  0.00     0.016 C 
HETATM   17  C   UNL     1      -7.290   2.070 -31.451  1.00  0.00     0.026 C 
BRANCH  14  18
HETATM   18  C   UNL     1      -6.125  -0.964 -33.703  1.00  0.00    -0.050 A 
HETATM   19  C   UNL     1      -6.632  -1.950 -34.571  1.00  0.00     0.008 A 
HETATM   20  C   UNL     1      -5.892  -3.093 -34.894  1.00  0.00     0.001 A 
HETATM   21  C   UNL     1      -4.629  -3.287 -34.345  1.00  0.00     0.000 A 
HETATM   22  C   UNL     1      -4.113  -2.342 -33.467  1.00  0.00     0.001 A 
HETATM   23  C   UNL     1      -4.854  -1.201 -33.144  1.00  0.00     0.008 A 
ENDBRANCH  14  18
ENDBRANCH   8  11
ENDBRANCH   1   7
BRANCH   3  24
HETATM   24  C   UNL     1      -1.649   7.528 -30.142  1.00  0.00    -0.006 A 
HETATM   25  C   UNL     1      -2.299   8.786 -30.127  1.00  0.00     0.131 A 
HETATM   26  N   UNL     1      -2.068   9.797 -29.243  1.00  0.00    -0.240 NA
HETATM   27  C   UNL     1      -1.125   9.513 -28.346  1.00  0.00     0.158 A 
HETATM   28  C   UNL     1      -0.414   8.321 -28.268  1.00  0.00     0.085 A 
HETATM   29  N   UNL     1      -0.677  10.343 -27.331  1.00  0.00    -0.291 N 
HETATM   30  N   UNL     1       0.484   8.420 -27.202  1.00  0.00    -0.300 N 
HETATM   31  C   UNL     1      -0.664   7.305 -29.161  1.00  0.00     0.047 A 
HETATM   32  C   UNL     1       1.406   7.402 -26.789  1.00  0.00     0.161 C 
HETATM   33  C   UNL     1       0.324   9.686 -26.606  1.00  0.00     0.328 A 
HETATM   34  O   UNL     1       0.925  10.141 -25.647  1.00  0.00    -0.247 OA
HETATM   35  H   UNL     1      -1.019  11.269 -27.149  1.00  0.00     0.172 HD
ENDBRANCH   3  24
TORSDOF 4
ENDMDL
MODEL 8
REMARK VINA RESULT:      -9.6      5.948     10.305
REMARK  4 active torsions:
REMARK  status: ('A' for Active; 'I' for Inactive)
REMARK    1  A    between atoms: C_2  and  C_3 
REMARK    2  A    between atoms: C_11  and  N_12 
REMARK       I    between atoms: N_12  and  C_13 
REMARK    3  A    between atoms: C_13  and  C_14 
REMARK    4  A    between atoms: C_16  and  C_17 
ROOT
HETATM    1  C   UNL     1      -9.704   3.685 -32.879  1.00  0.00     0.032 A 
HETATM    2  C   UNL     1     -11.032   3.446 -32.490  1.00  0.00     0.029 A 
HETATM    3  C   UNL     1     -12.105   3.638 -33.380  1.00  0.00    -0.024 A 
HETATM    4  C   UNL     1     -11.799   4.084 -34.678  1.00  0.00     0.012 A 
HETATM    5  C   UNL     1     -10.479   4.323 -35.074  1.00  0.00     0.002 A 
HETATM    6  C   UNL     1      -9.431   4.118 -34.178  1.00  0.00     0.017 A 
ENDROOT
BRANCH   1   7
HETATM    7  C   UNL     1      -8.622   3.408 -31.893  1.00  0.00     0.252 C 
HETATM    8  N   UNL     1      -7.510   2.741 -32.368  1.00  0.00    -0.352 N 
HETATM    9  H   UNL     1      -7.372   2.699 -33.369  1.00  0.00     0.163 HD
HETATM   10  O   UNL     1      -8.744   3.782 -30.731  1.00  0.00    -0.268 OA
BRANCH   8  11
HETATM   11  C   UNL     1      -6.364   2.466 -31.509  1.00  0.00     0.084 C 
HETATM   12  C   UNL     1      -6.608   1.220 -30.659  1.00  0.00     0.026 C 
HETATM   13  C   UNL     1      -6.565  -0.079 -31.469  1.00  0.00     0.016 C 
HETATM   14  C   UNL     1      -5.284  -0.274 -32.334  1.00  0.00    -0.017 C 
HETATM   15  C   UNL     1      -4.075  -0.557 -31.413  1.00  0.00     0.020 C 
HETATM   16  C   UNL     1      -5.034   1.035 -33.143  1.00  0.00     0.016 C 
HETATM   17  C   UNL     1      -5.076   2.323 -32.316  1.00  0.00     0.026 C 
BRANCH  14  18
HETATM   18  C   UNL     1      -5.417  -1.497 -33.277  1.00  0.00    -0.050 A 
HETATM   19  C   UNL     1      -4.307  -2.294 -33.616  1.00  0.00     0.008 A 
HETATM   20  C   UNL     1      -4.425  -3.384 -34.486  1.00  0.00     0.001 A 
HETATM   21  C   UNL     1      -5.656  -3.698 -35.051  1.00  0.00     0.000 A 
HETATM   22  C   UNL     1      -6.765  -2.915 -34.753  1.00  0.00     0.001 A 
HETATM   23  C   UNL     1      -6.645  -1.825 -33.885  1.00  0.00     0.008 A 
ENDBRANCH  14  18
ENDBRANCH   8  11
ENDBRANCH   1   7
BRANCH   3  24
HETATM   24  C   UNL     1     -13.496   3.362 -32.969  1.00  0.00    -0.006 A 
HETATM   25  C   UNL     1     -14.044   2.058 -33.037  1.00  0.00     0.131 A 
HETATM   26  N   UNL     1     -15.307   1.700 -32.673  1.00  0.00    -0.240 NA
HETATM   27  C   UNL     1     -16.043   2.719 -32.234  1.00  0.00     0.158 A 
HETATM   28  C   UNL     1     -15.619   4.038 -32.131  1.00  0.00     0.085 A 
HETATM   29  N   UNL     1     -17.357   2.659 -31.799  1.00  0.00    -0.291 N 
HETATM   30  N   UNL     1     -16.682   4.799 -31.636  1.00  0.00    -0.300 N 
HETATM   31  C   UNL     1     -14.337   4.385 -32.492  1.00  0.00     0.047 A 
HETATM   32  C   UNL     1     -16.655   6.211 -31.389  1.00  0.00     0.161 C 
HETATM   33  C   UNL     1     -17.777   3.940 -31.423  1.00  0.00     0.328 A 
HETATM   34  O   UNL     1     -18.881   4.231 -30.995  1.00  0.00    -0.247 OA
HETATM   35  H   UNL     1     -17.916   1.826 -31.763  1.00  0.00     0.172 HD
ENDBRANCH   3  24
TORSDOF 4
ENDMDL
MODEL 9
REMARK VINA RESULT:      -9.6      4.825      9.510
REMARK  4 active torsions:
REMARK  status: ('A' for Active; 'I' for Inactive)
REMARK    1  A    between atoms: C_2  and  C_3 
REMARK    2  A    between atoms: C_11  and  N_12 
REMARK       I    between atoms: N_12  and  C_13 
REMARK    3  A    between atoms: C_13  and  C_14 
REMARK    4  A    between atoms: C_16  and  C_17 
ROOT
HETATM    1  C   UNL     1      -8.342   5.086 -30.603  1.00  0.00     0.032 A 
HETATM    2  C   UNL     1      -9.497   4.339 -30.884  1.00  0.00     0.029 A 
HETATM    3  C   UNL     1     -10.583   4.899 -31.583  1.00  0.00    -0.024 A 
HETATM    4  C   UNL     1     -10.471   6.241 -31.989  1.00  0.00     0.012 A 
HETATM    5  C   UNL     1      -9.322   6.990 -31.715  1.00  0.00     0.002 A 
HETATM    6  C   UNL     1      -8.255   6.413 -31.029  1.00  0.00     0.017 A 
ENDROOT
BRANCH   1   7
HETATM    7  C   UNL     1      -7.216   4.403 -29.905  1.00  0.00     0.252 C 
HETATM    8  N   UNL     1      -6.561   3.414 -30.611  1.00  0.00    -0.352 N 
HETATM    9  H   UNL     1      -6.698   3.373 -31.612  1.00  0.00     0.163 HD
HETATM   10  O   UNL     1      -6.909   4.742 -28.767  1.00  0.00    -0.268 OA
BRANCH   8  11
HETATM   11  C   UNL     1      -5.408   2.718 -30.050  1.00  0.00     0.084 C 
HETATM   12  C   UNL     1      -5.806   1.341 -29.525  1.00  0.00     0.026 C 
HETATM   13  C   UNL     1      -6.121   0.339 -30.639  1.00  0.00     0.016 C 
HETATM   14  C   UNL     1      -5.011   0.188 -31.722  1.00  0.00    -0.017 C 
HETATM   15  C   UNL     1      -3.792  -0.544 -31.115  1.00  0.00     0.020 C 
HETATM   16  C   UNL     1      -4.589   1.613 -32.194  1.00  0.00     0.016 C 
HETATM   17  C   UNL     1      -4.274   2.599 -31.066  1.00  0.00     0.026 C 
BRANCH  14  18
HETATM   18  C   UNL     1      -5.496  -0.675 -32.915  1.00  0.00    -0.050 A 
HETATM   19  C   UNL     1      -6.788  -0.529 -33.456  1.00  0.00     0.008 A 
HETATM   20  C   UNL     1      -7.232  -1.326 -34.518  1.00  0.00     0.001 A 
HETATM   21  C   UNL     1      -6.400  -2.299 -35.058  1.00  0.00     0.000 A 
HETATM   22  C   UNL     1      -5.128  -2.482 -34.529  1.00  0.00     0.001 A 
HETATM   23  C   UNL     1      -4.686  -1.686 -33.467  1.00  0.00     0.008 A 
ENDBRANCH  14  18
ENDBRANCH   8  11
ENDBRANCH   1   7
BRANCH   3  24
HETATM   24  C   UNL     1     -11.785   4.100 -31.893  1.00  0.00    -0.006 A 
HETATM   25  C   UNL     1     -12.911   4.091 -31.035  1.00  0.00     0.131 A 
HETATM   26  N   UNL     1     -14.067   3.399 -31.237  1.00  0.00    -0.240 NA
HETATM   27  C   UNL     1     -14.067   2.678 -32.357  1.00  0.00     0.158 A 
HETATM   28  C   UNL     1     -13.021   2.602 -33.270  1.00  0.00     0.085 A 
HETATM   29  N   UNL     1     -15.096   1.877 -32.822  1.00  0.00    -0.291 N 
HETATM   30  N   UNL     1     -13.406   1.740 -34.301  1.00  0.00    -0.300 N 
HETATM   31  C   UNL     1     -11.862   3.313 -33.058  1.00  0.00     0.047 A 
HETATM   32  C   UNL     1     -12.608   1.389 -35.438  1.00  0.00     0.161 C 
HETATM   33  C   UNL     1     -14.710   1.282 -34.028  1.00  0.00     0.328 A 
HETATM   34  O   UNL     1     -15.388   0.520 -34.697  1.00  0.00    -0.247 OA
HETATM   35  H   UNL     1     -15.979   1.745 -32.361  1.00  0.00     0.172 HD
ENDBRANCH   3  24
TORSDOF 4
ENDMDL
MODEL 10
REMARK VINA RESULT:      -9.3      4.048      9.265
REMARK  4 active torsions:
REMARK  status: ('A' for Active; 'I' for Inactive)
REMARK    1  A    between atoms: C_2  and  C_3 
REMARK    2  A    between atoms: C_11  and  N_12 
REMARK       I    between atoms: N_12  and  C_13 
REMARK    3  A    between atoms: C_13  and  C_14 
REMARK    4  A    between atoms: C_16  and  C_17 
ROOT
HETATM    1  C   UNL     1      -9.145   2.620 -32.179  1.00  0.00     0.032 A 
HETATM    2  C   UNL     1      -8.032   1.767 -32.246  1.00  0.00     0.029 A 
HETATM    3  C   UNL     1      -8.085   0.543 -32.940  1.00  0.00    -0.024 A 
HETATM    4  C   UNL     1      -9.298   0.203 -33.563  1.00  0.00     0.012 A 
HETATM    5  C   UNL     1     -10.410   1.048 -33.503  1.00  0.00     0.002 A 
HETATM    6  C   UNL     1     -10.334   2.260 -32.818  1.00  0.00     0.017 A 
ENDROOT
BRANCH   1   7
HETATM    7  C   UNL     1      -8.991   3.921 -31.469  1.00  0.00     0.252 C 
HETATM    8  N   UNL     1      -7.700   4.367 -31.270  1.00  0.00    -0.352 N 
HETATM    9  H   UNL     1      -6.960   3.942 -31.813  1.00  0.00     0.163 HD
HETATM   10  O   UNL     1      -9.986   4.541 -31.109  1.00  0.00    -0.268 OA
BRANCH   8  11
HETATM   11  C   UNL     1      -7.429   5.654 -30.638  1.00  0.00     0.084 C 
HETATM   12  C   UNL     1      -6.141   5.598 -29.821  1.00  0.00     0.026 C 
HETATM   13  C   UNL     1      -4.880   5.533 -30.686  1.00  0.00     0.016 C 
HETATM   14  C   UNL     1      -4.768   6.646 -31.771  1.00  0.00    -0.017 C 
HETATM   15  C   UNL     1      -4.488   8.006 -31.090  1.00  0.00     0.020 C 
HETATM   16  C   UNL     1      -6.118   6.713 -32.548  1.00  0.00     0.016 C 
HETATM   17  C   UNL     1      -7.366   6.783 -31.665  1.00  0.00     0.026 C 
BRANCH  14  18
HETATM   18  C   UNL     1      -3.581   6.382 -32.734  1.00  0.00    -0.050 A 
HETATM   19  C   UNL     1      -2.373   7.098 -32.632  1.00  0.00     0.008 A 
HETATM   20  C   UNL     1      -1.312   6.874 -33.517  1.00  0.00     0.001 A 
HETATM   21  C   UNL     1      -1.436   5.938 -34.536  1.00  0.00     0.000 A 
HETATM   22  C   UNL     1      -2.627   5.233 -34.676  1.00  0.00     0.001 A 
HETATM   23  C   UNL     1      -3.687   5.459 -33.792  1.00  0.00     0.008 A 
ENDBRANCH  14  18
ENDBRANCH   8  11
ENDBRANCH   1   7
BRANCH   3  24
HETATM   24  C   UNL     1      -6.903  -0.338 -33.025  1.00  0.00    -0.006 A 
HETATM   25  C   UNL     1      -5.692  -0.020 -32.362  1.00  0.00     0.131 A 
HETATM   26  N   UNL     1      -4.555  -0.770 -32.369  1.00  0.00    -0.240 NA
HETATM   27  C   UNL     1      -4.656  -1.884 -33.093  1.00  0.00     0.158 A 
HETATM   28  C   UNL     1      -5.785  -2.295 -33.791  1.00  0.00     0.085 A 
HETATM   29  N   UNL     1      -3.668  -2.835 -33.285  1.00  0.00    -0.291 N 
HETATM   30  N   UNL     1      -5.487  -3.505 -34.425  1.00  0.00    -0.300 N 
HETATM   31  C   UNL     1      -6.931  -1.533 -33.768  1.00  0.00     0.047 A 
HETATM   32  C   UNL     1      -6.385  -4.258 -35.250  1.00  0.00     0.161 C 
HETATM   33  C   UNL     1      -4.159  -3.852 -34.109  1.00  0.00     0.328 A 
HETATM   34  O   UNL     1      -3.541  -4.839 -34.471  1.00  0.00    -0.247 OA
HETATM   35  H   UNL     1      -2.744  -2.795 -32.892  1.00  0.00     0.172 HD
ENDBRANCH   3  24
TORSDOF 4
ENDMDL
