MODEL 1
REMARK VINA RESULT:      -9.0      0.000      0.000
REMARK  2 active torsions:
REMARK  status: ('A' for Active; 'I' for Inactive)
REMARK    1  A    between atoms: C_6  and  N_7 
REMARK    2  A    between atoms: N_7  and  C_8 
ROOT
HETATM    1  C   UNL     1      -5.923   3.417 -31.216  1.00  0.00     0.093 C 
HETATM    2  C   UNL     1      -6.041   2.065 -31.850  1.00  0.00     0.125 A 
HETATM    3  N   UNL     1      -4.913   1.448 -32.195  1.00  0.00    -0.226 NA
HETATM    4  C   UNL     1      -5.120   0.258 -32.777  1.00  0.00     0.114 A 
HETATM    5  C   UNL     1      -6.345  -0.344 -33.042  1.00  0.00     0.053 A 
HETATM    6  C   UNL     1      -7.487   0.381 -32.611  1.00  0.00     0.143 A 
HETATM    7  N   UNL     1      -7.283   1.589 -32.029  1.00  0.00    -0.215 NA
HETATM    8  S   UNL     1      -3.785  -0.680 -33.261  1.00  0.00    -0.073 SA
HETATM    9  C   UNL     1      -4.789  -1.915 -33.842  1.00  0.00    -0.008 A 
HETATM   10  C   UNL     1      -6.137  -1.620 -33.714  1.00  0.00    -0.028 A 
HETATM   11  C   UNL     1      -7.183  -2.585 -34.199  1.00  0.00     0.041 C 
HETATM   12  C   UNL     1      -6.604  -3.692 -35.095  1.00  0.00     0.005 C 
HETATM   13  C   UNL     1      -5.291  -4.252 -34.538  1.00  0.00     0.005 C 
HETATM   14  C   UNL     1      -4.219  -3.159 -34.452  1.00  0.00     0.047 C 
ENDROOT
BRANCH   6  15
HETATM   15  N   UNL     1      -8.793  -0.104 -32.779  1.00  0.00    -0.340 N 
HETATM   16  H   UNL     1      -8.970  -0.969 -32.297  1.00  0.00     0.167 HD
BRANCH  15  17
HETATM   17  C   UNL     1      -9.949   0.450 -33.364  1.00  0.00     0.036 A 
HETATM   18  C   UNL     1     -11.186  -0.165 -33.094  1.00  0.00     0.069 A 
HETATM   19  C   UNL     1     -12.328   0.346 -33.677  1.00  0.00     0.107 A 
HETATM   20  C   UNL     1     -12.289   1.430 -34.517  1.00  0.00     0.105 A 
HETATM   21  O   UNL     1     -13.590  -0.133 -33.506  1.00  0.00    -0.323 OA
HETATM   22  O   UNL     1     -13.519   1.774 -34.981  1.00  0.00    -0.323 OA
HETATM   23  C   UNL     1     -11.104   2.055 -34.823  1.00  0.00     0.042 A 
HETATM   24  C   UNL     1     -14.339   0.778 -34.337  1.00  0.00     0.352 A 
HETATM   25  C   UNL     1      -9.930   1.552 -34.244  1.00  0.00     0.032 A 
ENDBRANCH  15  17
ENDBRANCH   6  15
TORSDOF 2
ENDMDL
MODEL 2
REMARK VINA RESULT:      -8.9      1.550      2.161
REMARK  2 active torsions:
REMARK  status: ('A' for Active; 'I' for Inactive)
REMARK    1  A    between atoms: C_6  and  N_7 
REMARK    2  A    between atoms: N_7  and  C_8 
ROOT
HETATM    1  C   UNL     1      -3.760   2.972 -31.177  1.00  0.00     0.093 C 
HETATM    2  C   UNL     1      -4.153   1.707 -31.875  1.00  0.00     0.125 A 
HETATM    3  N   UNL     1      -3.416   0.623 -31.644  1.00  0.00    -0.226 NA
HETATM    4  C   UNL     1      -3.829  -0.451 -32.332  1.00  0.00     0.114 A 
HETATM    5  C   UNL     1      -4.896  -0.519 -33.221  1.00  0.00     0.053 A 
HETATM    6  C   UNL     1      -5.637   0.682 -33.376  1.00  0.00     0.143 A 
HETATM    7  N   UNL     1      -5.218   1.774 -32.690  1.00  0.00    -0.215 NA
HETATM    8  S   UNL     1      -3.013  -1.932 -32.139  1.00  0.00    -0.073 SA
HETATM    9  C   UNL     1      -4.047  -2.712 -33.232  1.00  0.00    -0.008 A 
HETATM   10  C   UNL     1      -4.991  -1.860 -33.782  1.00  0.00    -0.028 A 
HETATM   11  C   UNL     1      -5.982  -2.365 -34.795  1.00  0.00     0.041 C 
HETATM   12  C   UNL     1      -5.615  -3.750 -35.350  1.00  0.00     0.005 C 
HETATM   13  C   UNL     1      -5.145  -4.703 -34.246  1.00  0.00     0.005 C 
HETATM   14  C   UNL     1      -3.885  -4.166 -33.554  1.00  0.00     0.047 C 
ENDROOT
BRANCH   6  15
HETATM   15  N   UNL     1      -6.759   0.770 -34.216  1.00  0.00    -0.340 N 
HETATM   16  H   UNL     1      -6.541   0.687 -35.194  1.00  0.00     0.167 HD
BRANCH  15  17
HETATM   17  C   UNL     1      -8.144   0.800 -33.957  1.00  0.00     0.036 A 
HETATM   18  C   UNL     1      -8.887   1.882 -34.465  1.00  0.00     0.069 A 
HETATM   19  C   UNL     1     -10.240   1.945 -34.203  1.00  0.00     0.107 A 
HETATM   20  C   UNL     1     -10.878   0.989 -33.453  1.00  0.00     0.105 A 
HETATM   21  O   UNL     1     -11.088   2.919 -34.631  1.00  0.00    -0.323 OA
HETATM   22  O   UNL     1     -12.207   1.235 -33.315  1.00  0.00    -0.323 OA
HETATM   23  C   UNL     1     -10.193  -0.078 -32.923  1.00  0.00     0.042 A 
HETATM   24  C   UNL     1     -12.334   2.462 -34.063  1.00  0.00     0.352 A 
HETATM   25  C   UNL     1      -8.816  -0.162 -33.175  1.00  0.00     0.032 A 
ENDBRANCH  15  17
ENDBRANCH   6  15
TORSDOF 2
ENDMDL
MODEL 3
REMARK VINA RESULT:      -8.8      3.449      6.518
REMARK  2 active torsions:
REMARK  status: ('A' for Active; 'I' for Inactive)
REMARK    1  A    between atoms: C_6  and  N_7 
REMARK    2  A    between atoms: N_7  and  C_8 
ROOT
HETATM    1  C   UNL     1      -5.747   5.306 -33.697  1.00  0.00     0.093 C 
HETATM    2  C   UNL     1      -6.940   4.403 -33.761  1.00  0.00     0.125 A 
HETATM    3  N   UNL     1      -8.067   4.910 -34.257  1.00  0.00    -0.226 NA
HETATM    4  C   UNL     1      -9.085   4.037 -34.250  1.00  0.00     0.114 A 
HETATM    5  C   UNL     1      -9.063   2.726 -33.786  1.00  0.00     0.053 A 
HETATM    6  C   UNL     1      -7.807   2.271 -33.304  1.00  0.00     0.143 A 
HETATM    7  N   UNL     1      -6.777   3.153 -33.300  1.00  0.00    -0.215 NA
HETATM    8  S   UNL     1     -10.597   4.509 -34.871  1.00  0.00    -0.073 SA
HETATM    9  C   UNL     1     -11.274   2.991 -34.542  1.00  0.00    -0.008 A 
HETATM   10  C   UNL     1     -10.383   2.126 -33.927  1.00  0.00    -0.028 A 
HETATM   11  C   UNL     1     -10.809   0.739 -33.533  1.00  0.00     0.041 C 
HETATM   12  C   UNL     1     -12.334   0.546 -33.582  1.00  0.00     0.005 C 
HETATM   13  C   UNL     1     -12.949   1.174 -34.836  1.00  0.00     0.005 C 
HETATM   14  C   UNL     1     -12.703   2.687 -34.872  1.00  0.00     0.047 C 
ENDROOT
BRANCH   6  15
HETATM   15  N   UNL     1      -7.613   0.965 -32.827  1.00  0.00    -0.340 N 
HETATM   16  H   UNL     1      -8.263   0.695 -32.109  1.00  0.00     0.167 HD
BRANCH  15  17
HETATM   17  C   UNL     1      -6.789  -0.094 -33.256  1.00  0.00     0.036 A 
HETATM   18  C   UNL     1      -7.402  -1.203 -33.869  1.00  0.00     0.069 A 
HETATM   19  C   UNL     1      -6.617  -2.263 -34.273  1.00  0.00     0.107 A 
HETATM   20  C   UNL     1      -5.258  -2.269 -34.086  1.00  0.00     0.105 A 
HETATM   21  O   UNL     1      -7.062  -3.394 -34.883  1.00  0.00    -0.323 OA
HETATM   22  O   UNL     1      -4.672  -3.402 -34.556  1.00  0.00    -0.323 OA
HETATM   23  C   UNL     1      -4.614  -1.218 -33.479  1.00  0.00     0.042 A 
HETATM   24  C   UNL     1      -5.822  -4.112 -35.059  1.00  0.00     0.352 A 
HETATM   25  C   UNL     1      -5.393  -0.130 -33.058  1.00  0.00     0.032 A 
ENDBRANCH  15  17
ENDBRANCH   6  15
TORSDOF 2
ENDMDL
MODEL 4
REMARK VINA RESULT:      -8.7      1.066      1.754
REMARK  2 active torsions:
REMARK  status: ('A' for Active; 'I' for Inactive)
REMARK    1  A    between atoms: C_6  and  N_7 
REMARK    2  A    between atoms: N_7  and  C_8 
ROOT
HETATM    1  C   UNL     1      -6.453   3.664 -30.232  1.00  0.00     0.093 C 
HETATM    2  C   UNL     1      -6.470   2.402 -31.038  1.00  0.00     0.125 A 
HETATM    3  N   UNL     1      -5.296   1.889 -31.401  1.00  0.00    -0.226 NA
HETATM    4  C   UNL     1      -5.414   0.777 -32.140  1.00  0.00     0.114 A 
HETATM    5  C   UNL     1      -6.592   0.157 -32.543  1.00  0.00     0.053 A 
HETATM    6  C   UNL     1      -7.789   0.765 -32.081  1.00  0.00     0.143 A 
HETATM    7  N   UNL     1      -7.676   1.896 -31.341  1.00  0.00    -0.215 NA
HETATM    8  S   UNL     1      -4.011  -0.027 -32.671  1.00  0.00    -0.073 SA
HETATM    9  C   UNL     1      -4.921  -1.222 -33.456  1.00  0.00    -0.008 A 
HETATM   10  C   UNL     1      -6.286  -1.009 -33.361  1.00  0.00    -0.028 A 
HETATM   11  C   UNL     1      -7.257  -1.951 -34.018  1.00  0.00     0.041 C 
HETATM   12  C   UNL     1      -6.581  -2.904 -35.017  1.00  0.00     0.005 C 
HETATM   13  C   UNL     1      -5.266  -3.469 -34.469  1.00  0.00     0.005 C 
HETATM   14  C   UNL     1      -4.259  -2.347 -34.190  1.00  0.00     0.047 C 
ENDROOT
BRANCH   6  15
HETATM   15  N   UNL     1      -9.059   0.245 -32.377  1.00  0.00    -0.340 N 
HETATM   16  H   UNL     1      -9.293  -0.578 -31.850  1.00  0.00     0.167 HD
BRANCH  15  17
HETATM   17  C   UNL     1     -10.131   0.729 -33.153  1.00  0.00     0.036 A 
HETATM   18  C   UNL     1      -9.934   1.914 -33.886  1.00  0.00     0.069 A 
HETATM   19  C   UNL     1     -10.979   2.420 -34.632  1.00  0.00     0.107 A 
HETATM   20  C   UNL     1     -12.204   1.804 -34.673  1.00  0.00     0.105 A 
HETATM   21  O   UNL     1     -10.938   3.546 -35.395  1.00  0.00    -0.323 OA
HETATM   22  O   UNL     1     -13.091   2.460 -35.467  1.00  0.00    -0.323 OA
HETATM   23  C   UNL     1     -12.450   0.653 -33.964  1.00  0.00     0.042 A 
HETATM   24  C   UNL     1     -12.282   3.565 -35.921  1.00  0.00     0.352 A 
HETATM   25  C   UNL     1     -11.404   0.122 -33.196  1.00  0.00     0.032 A 
ENDBRANCH  15  17
ENDBRANCH   6  15
TORSDOF 2
ENDMDL
MODEL 5
REMARK VINA RESULT:      -8.4      3.647      6.794
REMARK  2 active torsions:
REMARK  status: ('A' for Active; 'I' for Inactive)
REMARK    1  A    between atoms: C_6  and  N_7 
REMARK    2  A    between atoms: N_7  and  C_8 
ROOT
HETATM    1  C   UNL     1     -11.310   0.589 -33.431  1.00  0.00     0.093 C 
HETATM    2  C   UNL     1      -9.872   0.924 -33.180  1.00  0.00     0.125 A 
HETATM    3  N   UNL     1      -9.610   1.868 -32.277  1.00  0.00    -0.226 NA
HETATM    4  C   UNL     1      -8.299   2.116 -32.141  1.00  0.00     0.114 A 
HETATM    5  C   UNL     1      -7.254   1.511 -32.830  1.00  0.00     0.053 A 
HETATM    6  C   UNL     1      -7.636   0.498 -33.749  1.00  0.00     0.143 A 
HETATM    7  N   UNL     1      -8.960   0.249 -33.898  1.00  0.00    -0.215 NA
HETATM    8  S   UNL     1      -7.781   3.278 -31.011  1.00  0.00    -0.073 SA
HETATM    9  C   UNL     1      -6.153   3.020 -31.402  1.00  0.00    -0.008 A 
HETATM   10  C   UNL     1      -5.983   2.086 -32.412  1.00  0.00    -0.028 A 
HETATM   11  C   UNL     1      -4.607   1.742 -32.915  1.00  0.00     0.041 C 
HETATM   12  C   UNL     1      -3.534   2.735 -32.442  1.00  0.00     0.005 C 
HETATM   13  C   UNL     1      -3.704   3.101 -30.964  1.00  0.00     0.005 C 
HETATM   14  C   UNL     1      -5.058   3.778 -30.717  1.00  0.00     0.047 C 
ENDROOT
BRANCH   6  15
HETATM   15  N   UNL     1      -6.698  -0.226 -34.502  1.00  0.00    -0.340 N 
HETATM   16  H   UNL     1      -6.122   0.348 -35.093  1.00  0.00     0.167 HD
BRANCH  15  17
HETATM   17  C   UNL     1      -6.300  -1.578 -34.485  1.00  0.00     0.036 A 
HETATM   18  C   UNL     1      -5.032  -1.887 -33.958  1.00  0.00     0.069 A 
HETATM   19  C   UNL     1      -4.612  -3.201 -33.955  1.00  0.00     0.107 A 
HETATM   20  C   UNL     1      -5.391  -4.212 -34.459  1.00  0.00     0.105 A 
HETATM   21  O   UNL     1      -3.422  -3.653 -33.474  1.00  0.00    -0.323 OA
HETATM   22  O   UNL     1      -4.795  -5.429 -34.359  1.00  0.00    -0.323 OA
HETATM   23  C   UNL     1      -6.629  -3.959 -34.998  1.00  0.00     0.042 A 
HETATM   24  C   UNL     1      -3.546  -5.068 -33.735  1.00  0.00     0.352 A 
HETATM   25  C   UNL     1      -7.077  -2.630 -35.014  1.00  0.00     0.032 A 
ENDBRANCH  15  17
ENDBRANCH   6  15
TORSDOF 2
ENDMDL
MODEL 6
REMARK VINA RESULT:      -8.3      5.217      7.793
REMARK  2 active torsions:
REMARK  status: ('A' for Active; 'I' for Inactive)
REMARK    1  A    between atoms: C_6  and  N_7 
REMARK    2  A    between atoms: N_7  and  C_8 
ROOT
HETATM    1  C   UNL     1      -7.986   5.368 -33.279  1.00  0.00     0.093 C 
HETATM    2  C   UNL     1      -7.307   4.037 -33.376  1.00  0.00     0.125 A 
HETATM    3  N   UNL     1      -8.024   3.014 -33.837  1.00  0.00    -0.226 NA
HETATM    4  C   UNL     1      -7.339   1.861 -33.862  1.00  0.00     0.114 A 
HETATM    5  C   UNL     1      -6.024   1.657 -33.462  1.00  0.00     0.053 A 
HETATM    6  C   UNL     1      -5.337   2.816 -33.013  1.00  0.00     0.143 A 
HETATM    7  N   UNL     1      -6.026   3.983 -32.977  1.00  0.00    -0.215 NA
HETATM    8  S   UNL     1      -8.095   0.452 -34.446  1.00  0.00    -0.073 SA
HETATM    9  C   UNL     1      -6.702  -0.476 -34.183  1.00  0.00    -0.008 A 
HETATM   10  C   UNL     1      -5.667   0.253 -33.619  1.00  0.00    -0.028 A 
HETATM   11  C   UNL     1      -4.357  -0.406 -33.288  1.00  0.00     0.041 C 
HETATM   12  C   UNL     1      -4.432  -1.940 -33.332  1.00  0.00     0.005 C 
HETATM   13  C   UNL     1      -5.217  -2.440 -34.549  1.00  0.00     0.005 C 
HETATM   14  C   UNL     1      -6.665  -1.936 -34.515  1.00  0.00     0.047 C 
ENDROOT
BRANCH   6  15
HETATM   15  N   UNL     1      -3.995   2.782 -32.602  1.00  0.00    -0.340 N 
HETATM   16  H   UNL     1      -3.665   1.861 -32.371  1.00  0.00     0.167 HD
BRANCH  15  17
HETATM   17  C   UNL     1      -2.976   3.755 -32.590  1.00  0.00     0.036 A 
HETATM   18  C   UNL     1      -2.485   4.183 -31.342  1.00  0.00     0.069 A 
HETATM   19  C   UNL     1      -1.505   5.154 -31.306  1.00  0.00     0.107 A 
HETATM   20  C   UNL     1      -1.002   5.717 -32.452  1.00  0.00     0.105 A 
HETATM   21  O   UNL     1      -0.930   5.661 -30.182  1.00  0.00    -0.323 OA
HETATM   22  O   UNL     1      -0.046   6.648 -32.198  1.00  0.00    -0.323 OA
HETATM   23  C   UNL     1      -1.458   5.343 -33.693  1.00  0.00     0.042 A 
HETATM   24  C   UNL     1      -0.005   6.609 -30.757  1.00  0.00     0.352 A 
HETATM   25  C   UNL     1      -2.456   4.360 -33.754  1.00  0.00     0.032 A 
ENDBRANCH  15  17
ENDBRANCH   6  15
TORSDOF 2
ENDMDL
MODEL 7
REMARK VINA RESULT:      -8.3      1.286      3.858
REMARK  2 active torsions:
REMARK  status: ('A' for Active; 'I' for Inactive)
REMARK    1  A    between atoms: C_6  and  N_7 
REMARK    2  A    between atoms: N_7  and  C_8 
ROOT
HETATM    1  C   UNL     1      -6.652  -3.494 -34.969  1.00  0.00     0.093 C 
HETATM    2  C   UNL     1      -6.424  -2.228 -34.203  1.00  0.00     0.125 A 
HETATM    3  N   UNL     1      -5.164  -1.838 -34.022  1.00  0.00    -0.226 NA
HETATM    4  C   UNL     1      -5.060  -0.710 -33.304  1.00  0.00     0.114 A 
HETATM    5  C   UNL     1      -6.098   0.037 -32.758  1.00  0.00     0.053 A 
HETATM    6  C   UNL     1      -7.405  -0.446 -33.032  1.00  0.00     0.143 A 
HETATM    7  N   UNL     1      -7.516  -1.592 -33.750  1.00  0.00    -0.215 NA
HETATM    8  S   UNL     1      -3.520  -0.054 -32.995  1.00  0.00    -0.073 SA
HETATM    9  C   UNL     1      -4.181   1.241 -32.124  1.00  0.00    -0.008 A 
HETATM   10  C   UNL     1      -5.561   1.174 -32.023  1.00  0.00    -0.028 A 
HETATM   11  C   UNL     1      -6.326   2.222 -31.263  1.00  0.00     0.041 C 
HETATM   12  C   UNL     1      -5.421   3.109 -30.394  1.00  0.00     0.005 C 
HETATM   13  C   UNL     1      -4.145   3.524 -31.135  1.00  0.00     0.005 C 
HETATM   14  C   UNL     1      -3.309   2.298 -31.521  1.00  0.00     0.047 C 
ENDROOT
BRANCH   6  15
HETATM   15  N   UNL     1      -8.560   0.210 -32.577  1.00  0.00    -0.340 N 
HETATM   16  H   UNL     1      -8.528   0.458 -31.603  1.00  0.00     0.167 HD
BRANCH  15  17
HETATM   17  C   UNL     1      -9.691   0.723 -33.242  1.00  0.00     0.036 A 
HETATM   18  C   UNL     1     -10.927   0.082 -33.034  1.00  0.00     0.069 A 
HETATM   19  C   UNL     1     -12.043   0.552 -33.695  1.00  0.00     0.107 A 
HETATM   20  C   UNL     1     -11.980   1.619 -34.554  1.00  0.00     0.105 A 
HETATM   21  O   UNL     1     -13.301   0.044 -33.590  1.00  0.00    -0.323 OA
HETATM   22  O   UNL     1     -13.187   1.923 -35.099  1.00  0.00    -0.323 OA
HETATM   23  C   UNL     1     -10.794   2.269 -34.802  1.00  0.00     0.042 A 
HETATM   24  C   UNL     1     -14.021   0.920 -34.484  1.00  0.00     0.352 A 
HETATM   25  C   UNL     1      -9.646   1.807 -34.143  1.00  0.00     0.032 A 
ENDBRANCH  15  17
ENDBRANCH   6  15
TORSDOF 2
ENDMDL
MODEL 8
REMARK VINA RESULT:      -8.3      2.224      4.446
REMARK  2 active torsions:
REMARK  status: ('A' for Active; 'I' for Inactive)
REMARK    1  A    between atoms: C_6  and  N_7 
REMARK    2  A    between atoms: N_7  and  C_8 
ROOT
HETATM    1  C   UNL     1      -6.095  -4.483 -35.429  1.00  0.00     0.093 C 
HETATM    2  C   UNL     1      -5.806  -3.168 -34.771  1.00  0.00     0.125 A 
HETATM    3  N   UNL     1      -4.803  -3.127 -33.896  1.00  0.00    -0.226 NA
HETATM    4  C   UNL     1      -4.638  -1.917 -33.342  1.00  0.00     0.114 A 
HETATM    5  C   UNL     1      -5.390  -0.773 -33.585  1.00  0.00     0.053 A 
HETATM    6  C   UNL     1      -6.417  -0.913 -34.555  1.00  0.00     0.143 A 
HETATM    7  N   UNL     1      -6.594  -2.137 -35.112  1.00  0.00    -0.215 NA
HETATM    8  S   UNL     1      -3.384  -1.677 -32.217  1.00  0.00    -0.073 SA
HETATM    9  C   UNL     1      -3.800  -0.047 -32.012  1.00  0.00    -0.008 A 
HETATM   10  C   UNL     1      -4.908   0.324 -32.757  1.00  0.00    -0.028 A 
HETATM   11  C   UNL     1      -5.444   1.728 -32.686  1.00  0.00     0.041 C 
HETATM   12  C   UNL     1      -4.862   2.531 -31.512  1.00  0.00     0.005 C 
HETATM   13  C   UNL     1      -3.352   2.315 -31.364  1.00  0.00     0.005 C 
HETATM   14  C   UNL     1      -3.032   0.842 -31.082  1.00  0.00     0.047 C 
ENDROOT
BRANCH   6  15
HETATM   15  N   UNL     1      -7.245   0.156 -34.933  1.00  0.00    -0.340 N 
HETATM   16  H   UNL     1      -7.078   0.487 -35.867  1.00  0.00     0.167 HD
BRANCH  15  17
HETATM   17  C   UNL     1      -8.363   0.758 -34.323  1.00  0.00     0.036 A 
HETATM   18  C   UNL     1      -8.584   2.129 -34.556  1.00  0.00     0.069 A 
HETATM   19  C   UNL     1      -9.658   2.746 -33.948  1.00  0.00     0.107 A 
HETATM   20  C   UNL     1     -10.511   2.063 -33.118  1.00  0.00     0.105 A 
HETATM   21  O   UNL     1     -10.003   4.055 -34.083  1.00  0.00    -0.323 OA
HETATM   22  O   UNL     1     -11.502   2.851 -32.626  1.00  0.00    -0.323 OA
HETATM   23  C   UNL     1     -10.329   0.728 -32.848  1.00  0.00     0.042 A 
HETATM   24  C   UNL     1     -11.174   4.114 -33.240  1.00  0.00     0.352 A 
HETATM   25  C   UNL     1      -9.242   0.080 -33.453  1.00  0.00     0.032 A 
ENDBRANCH  15  17
ENDBRANCH   6  15
TORSDOF 2
ENDMDL
MODEL 9
REMARK VINA RESULT:      -8.3      1.666      2.262
REMARK  2 active torsions:
REMARK  status: ('A' for Active; 'I' for Inactive)
REMARK    1  A    between atoms: C_6  and  N_7 
REMARK    2  A    between atoms: N_7  and  C_8 
ROOT
HETATM    1  C   UNL     1      -7.322   4.693 -29.517  1.00  0.00     0.093 C 
HETATM    2  C   UNL     1      -7.279   3.602 -30.543  1.00  0.00     0.125 A 
HETATM    3  N   UNL     1      -6.525   2.537 -30.275  1.00  0.00    -0.226 NA
HETATM    4  C   UNL     1      -6.530   1.629 -31.262  1.00  0.00     0.114 A 
HETATM    5  C   UNL     1      -7.209   1.707 -32.472  1.00  0.00     0.053 A 
HETATM    6  C   UNL     1      -8.007   2.868 -32.649  1.00  0.00     0.143 A 
HETATM    7  N   UNL     1      -7.999   3.795 -31.659  1.00  0.00    -0.215 NA
HETATM    8  S   UNL     1      -5.638   0.191 -31.078  1.00  0.00    -0.073 SA
HETATM    9  C   UNL     1      -6.121  -0.373 -32.601  1.00  0.00    -0.008 A 
HETATM   10  C   UNL     1      -6.925   0.529 -33.279  1.00  0.00    -0.028 A 
HETATM   11  C   UNL     1      -7.432   0.215 -34.661  1.00  0.00     0.041 C 
HETATM   12  C   UNL     1      -6.714  -0.982 -35.303  1.00  0.00     0.005 C 
HETATM   13  C   UNL     1      -6.526  -2.135 -34.312  1.00  0.00     0.005 C 
HETATM   14  C   UNL     1      -5.664  -1.702 -33.120  1.00  0.00     0.047 C 
ENDROOT
BRANCH   6  15
HETATM   15  N   UNL     1      -8.776   3.084 -33.804  1.00  0.00    -0.340 N 
HETATM   16  H   UNL     1      -8.247   3.438 -34.583  1.00  0.00     0.167 HD
BRANCH  15  17
HETATM   17  C   UNL     1     -10.106   2.763 -34.138  1.00  0.00     0.036 A 
HETATM   18  C   UNL     1     -10.658   1.586 -33.599  1.00  0.00     0.069 A 
HETATM   19  C   UNL     1     -11.951   1.239 -33.933  1.00  0.00     0.107 A 
HETATM   20  C   UNL     1     -12.710   2.005 -34.781  1.00  0.00     0.105 A 
HETATM   21  O   UNL     1     -12.620   0.141 -33.487  1.00  0.00    -0.323 OA
HETATM   22  O   UNL     1     -13.952   1.492 -34.977  1.00  0.00    -0.323 OA
HETATM   23  C   UNL     1     -12.212   3.155 -35.345  1.00  0.00     0.042 A 
HETATM   24  C   UNL     1     -13.889   0.309 -34.155  1.00  0.00     0.352 A 
HETATM   25  C   UNL     1     -10.898   3.526 -35.022  1.00  0.00     0.032 A 
ENDBRANCH  15  17
ENDBRANCH   6  15
TORSDOF 2
ENDMDL
MODEL 10
REMARK VINA RESULT:      -8.2      3.895      6.841
REMARK  2 active torsions:
REMARK  status: ('A' for Active; 'I' for Inactive)
REMARK    1  A    between atoms: C_6  and  N_7 
REMARK    2  A    between atoms: N_7  and  C_8 
ROOT
HETATM    1  C   UNL     1      -2.070   4.592 -32.912  1.00  0.00     0.093 C 
HETATM    2  C   UNL     1      -3.400   3.906 -32.869  1.00  0.00     0.125 A 
HETATM    3  N   UNL     1      -4.468   4.612 -33.235  1.00  0.00    -0.226 NA
HETATM    4  C   UNL     1      -5.614   3.923 -33.140  1.00  0.00     0.114 A 
HETATM    5  C   UNL     1      -5.770   2.611 -32.707  1.00  0.00     0.053 A 
HETATM    6  C   UNL     1      -4.569   1.934 -32.366  1.00  0.00     0.143 A 
HETATM    7  N   UNL     1      -3.408   2.629 -32.453  1.00  0.00    -0.215 NA
HETATM    8  S   UNL     1      -7.077   4.665 -33.591  1.00  0.00    -0.073 SA
HETATM    9  C   UNL     1      -7.967   3.271 -33.222  1.00  0.00    -0.008 A 
HETATM   10  C   UNL     1      -7.180   2.247 -32.721  1.00  0.00    -0.028 A 
HETATM   11  C   UNL     1      -7.797   0.937 -32.312  1.00  0.00     0.041 C 
HETATM   12  C   UNL     1      -9.328   1.005 -32.206  1.00  0.00     0.005 C 
HETATM   13  C   UNL     1      -9.949   1.774 -33.377  1.00  0.00     0.005 C 
HETATM   14  C   UNL     1      -9.453   3.224 -33.409  1.00  0.00     0.047 C 
ENDROOT
BRANCH   6  15
HETATM   15  N   UNL     1      -4.555   0.597 -31.939  1.00  0.00    -0.340 N 
HETATM   16  H   UNL     1      -4.669   0.488 -30.946  1.00  0.00     0.167 HD
BRANCH  15  17
HETATM   17  C   UNL     1      -4.563  -0.628 -32.635  1.00  0.00     0.036 A 
HETATM   18  C   UNL     1      -3.798  -1.689 -32.115  1.00  0.00     0.069 A 
HETATM   19  C   UNL     1      -3.772  -2.890 -32.795  1.00  0.00     0.107 A 
HETATM   20  C   UNL     1      -4.462  -3.074 -33.966  1.00  0.00     0.105 A 
HETATM   21  O   UNL     1      -3.088  -4.003 -32.414  1.00  0.00    -0.323 OA
HETATM   22  O   UNL     1      -4.306  -4.325 -34.472  1.00  0.00    -0.323 OA
HETATM   23  C   UNL     1      -5.211  -2.065 -34.521  1.00  0.00     0.042 A 
HETATM   24  C   UNL     1      -3.432  -4.909 -33.484  1.00  0.00     0.352 A 
HETATM   25  C   UNL     1      -5.251  -0.834 -33.849  1.00  0.00     0.032 A 
ENDBRANCH  15  17
ENDBRANCH   6  15
TORSDOF 2
ENDMDL
