MODEL 1
REMARK VINA RESULT:      -7.4      0.000      0.000
REMARK  7 active torsions:
REMARK  status: ('A' for Active; 'I' for Inactive)
REMARK    1  A    between atoms: C_5  and  C_6 
REMARK    2  A    between atoms: C_6  and  C_7 
REMARK    3  A    between atoms: C_7  and  N_8 
REMARK       I    between atoms: N_8  and  C_9 
REMARK       I    between atoms: C_9  and  N_10 
REMARK    4  A    between atoms: N_10  and  N_11 
REMARK       I    between atoms: N_11  and  C_12 
REMARK    5  A    between atoms: C_12  and  C_13 
REMARK    6  A    between atoms: C_13  and  O_14 
REMARK    7  A    between atoms: O_14  and  C_15 
ROOT
HETATM    1  N   UNL     1      -4.462   4.676 -34.274  1.00  0.00    -0.341 N 
HETATM    2  C   UNL     1      -5.278   5.362 -33.419  1.00  0.00     0.334 C 
HETATM    3  N   UNL     1      -6.290   4.625 -32.846  1.00  0.00    -0.249 N 
HETATM    4  O   UNL     1      -5.159   6.555 -33.161  1.00  0.00    -0.246 OA
HETATM    5  H   UNL     1      -4.979   3.944 -34.754  1.00  0.00     0.164 HD
HETATM    6  H   UNL     1      -6.865   5.140 -32.189  1.00  0.00     0.192 HD
ENDROOT
BRANCH   3   7
HETATM    7  N   UNL     1      -6.288   3.216 -32.742  1.00  0.00    -0.264 N 
HETATM    8  C   UNL     1      -5.934   2.602 -31.549  1.00  0.00     0.260 C 
HETATM    9  O   UNL     1      -5.883   3.188 -30.468  1.00  0.00    -0.269 OA
HETATM   10  H   UNL     1      -6.142   2.708 -33.611  1.00  0.00     0.190 HD
BRANCH   8  11
HETATM   11  C   UNL     1      -5.715   1.102 -31.674  1.00  0.00     0.280 C 
BRANCH  11  12
HETATM   12  O   UNL     1      -5.054   0.848 -32.912  1.00  0.00    -0.342 OA
BRANCH  12  13
HETATM   13  C   UNL     1      -5.399  -0.354 -33.472  1.00  0.00     0.069 A 
HETATM   14  C   UNL     1      -6.682  -0.649 -33.937  1.00  0.00     0.038 A 
HETATM   15  C   UNL     1      -6.947  -1.900 -34.501  1.00  0.00     0.022 A 
HETATM   16  C   UNL     1      -5.926  -2.844 -34.606  1.00  0.00     0.011 A 
HETATM   17 BR   UNL     1      -6.289  -4.538 -35.362  1.00  0.00    -0.051 Br
HETATM   18  C   UNL     1      -4.639  -2.544 -34.164  1.00  0.00     0.022 A 
HETATM   19  C   UNL     1      -4.375  -1.292 -33.604  1.00  0.00     0.038 A 
ENDBRANCH  12  13
ENDBRANCH  11  12
ENDBRANCH   8  11
ENDBRANCH   3   7
BRANCH   1  20
HETATM   20  C   UNL     1      -3.500   5.376 -35.108  1.00  0.00     0.130 C 
BRANCH  20  21
HETATM   21  C   UNL     1      -2.047   4.989 -34.836  1.00  0.00     0.079 C 
BRANCH  21  22
HETATM   22  C   UNL     1      -1.536   5.650 -33.595  1.00  0.00     0.043 A 
HETATM   23  C   UNL     1      -1.560   7.002 -33.313  1.00  0.00     0.078 A 
HETATM   24  S   UNL     1      -0.848   7.296 -31.783  1.00  0.00    -0.085 SA
HETATM   25  C   UNL     1      -0.551   5.613 -31.611  1.00  0.00     0.071 A 
HETATM   26  C   UNL     1       0.112   5.087 -30.387  1.00  0.00     0.078 C 
HETATM   27  N   UNL     1      -0.954   4.862 -32.613  1.00  0.00    -0.251 NA
ENDBRANCH  21  22
ENDBRANCH  20  21
ENDBRANCH   1  20
TORSDOF 7
ENDMDL
MODEL 2
REMARK VINA RESULT:      -7.3      5.357      7.666
REMARK  7 active torsions:
REMARK  status: ('A' for Active; 'I' for Inactive)
REMARK    1  A    between atoms: C_5  and  C_6 
REMARK    2  A    between atoms: C_6  and  C_7 
REMARK    3  A    between atoms: C_7  and  N_8 
REMARK       I    between atoms: N_8  and  C_9 
REMARK       I    between atoms: C_9  and  N_10 
REMARK    4  A    between atoms: N_10  and  N_11 
REMARK       I    between atoms: N_11  and  C_12 
REMARK    5  A    between atoms: C_12  and  C_13 
REMARK    6  A    between atoms: C_13  and  O_14 
REMARK    7  A    between atoms: O_14  and  C_15 
ROOT
HETATM    1  N   UNL     1      -9.684   3.023 -32.626  1.00  0.00    -0.341 N 
HETATM    2  C   UNL     1      -9.941   3.066 -31.284  1.00  0.00     0.334 C 
HETATM    3  N   UNL     1      -9.333   2.087 -30.532  1.00  0.00    -0.249 N 
HETATM    4  O   UNL     1     -10.667   3.898 -30.748  1.00  0.00    -0.246 OA
HETATM    5  H   UNL     1      -9.552   2.064 -32.935  1.00  0.00     0.164 HD
HETATM    6  H   UNL     1      -9.508   2.154 -29.535  1.00  0.00     0.192 HD
ENDROOT
BRANCH   3   7
HETATM    7  N   UNL     1      -8.198   1.355 -30.945  1.00  0.00    -0.264 N 
HETATM    8  C   UNL     1      -6.923   1.837 -30.689  1.00  0.00     0.260 C 
HETATM    9  O   UNL     1      -6.679   2.730 -29.877  1.00  0.00    -0.269 OA
HETATM   10  H   UNL     1      -8.334   0.743 -31.746  1.00  0.00     0.190 HD
BRANCH   8  11
HETATM   11  C   UNL     1      -5.826   1.087 -31.429  1.00  0.00     0.280 C 
BRANCH  11  12
HETATM   12  O   UNL     1      -6.155   1.065 -32.816  1.00  0.00    -0.342 OA
BRANCH  12  13
HETATM   13  C   UNL     1      -6.081  -0.186 -33.369  1.00  0.00     0.069 A 
HETATM   14  C   UNL     1      -4.893  -0.908 -33.491  1.00  0.00     0.038 A 
HETATM   15  C   UNL     1      -4.908  -2.183 -34.063  1.00  0.00     0.022 A 
HETATM   16  C   UNL     1      -6.113  -2.732 -34.500  1.00  0.00     0.011 A 
HETATM   17 BR   UNL     1      -6.130  -4.453 -35.281  1.00  0.00    -0.051 Br
HETATM   18  C   UNL     1      -7.304  -2.024 -34.359  1.00  0.00     0.022 A 
HETATM   19  C   UNL     1      -7.288  -0.752 -33.782  1.00  0.00     0.038 A 
ENDBRANCH  12  13
ENDBRANCH  11  12
ENDBRANCH   8  11
ENDBRANCH   3   7
BRANCH   1  20
HETATM   20  C   UNL     1     -10.429   3.855 -33.555  1.00  0.00     0.130 C 
BRANCH  20  21
HETATM   21  C   UNL     1     -11.047   3.083 -34.720  1.00  0.00     0.079 C 
BRANCH  21  22
HETATM   22  C   UNL     1     -12.286   2.363 -34.292  1.00  0.00     0.043 A 
HETATM   23  C   UNL     1     -12.809   1.217 -34.860  1.00  0.00     0.078 A 
HETATM   24  S   UNL     1     -14.251   0.766 -34.051  1.00  0.00    -0.085 SA
HETATM   25  C   UNL     1     -14.082   2.126 -33.016  1.00  0.00     0.071 A 
HETATM   26  C   UNL     1     -15.085   2.389 -31.949  1.00  0.00     0.078 C 
HETATM   27  N   UNL     1     -13.024   2.877 -33.237  1.00  0.00    -0.251 NA
ENDBRANCH  21  22
ENDBRANCH  20  21
ENDBRANCH   1  20
TORSDOF 7
ENDMDL
MODEL 3
REMARK VINA RESULT:      -7.3      2.320      3.177
REMARK  7 active torsions:
REMARK  status: ('A' for Active; 'I' for Inactive)
REMARK    1  A    between atoms: C_5  and  C_6 
REMARK    2  A    between atoms: C_6  and  C_7 
REMARK    3  A    between atoms: C_7  and  N_8 
REMARK       I    between atoms: N_8  and  C_9 
REMARK       I    between atoms: C_9  and  N_10 
REMARK    4  A    between atoms: N_10  and  N_11 
REMARK       I    between atoms: N_11  and  C_12 
REMARK    5  A    between atoms: C_12  and  C_13 
REMARK    6  A    between atoms: C_13  and  O_14 
REMARK    7  A    between atoms: O_14  and  C_15 
ROOT
HETATM    1  N   UNL     1      -5.935   2.590 -30.907  1.00  0.00    -0.341 N 
HETATM    2  C   UNL     1      -7.074   2.910 -30.223  1.00  0.00     0.334 C 
HETATM    3  N   UNL     1      -8.214   2.257 -30.632  1.00  0.00    -0.249 N 
HETATM    4  O   UNL     1      -7.122   3.726 -29.308  1.00  0.00    -0.246 OA
HETATM    5  H   UNL     1      -6.149   2.366 -31.875  1.00  0.00     0.164 HD
HETATM    6  H   UNL     1      -9.043   2.481 -30.092  1.00  0.00     0.192 HD
ENDROOT
BRANCH   3   7
HETATM    7  N   UNL     1      -8.222   1.048 -31.362  1.00  0.00    -0.264 N 
HETATM    8  C   UNL     1      -8.144   1.065 -32.746  1.00  0.00     0.260 C 
HETATM    9  O   UNL     1      -7.787   2.045 -33.399  1.00  0.00    -0.269 OA
HETATM   10  H   UNL     1      -8.686   0.263 -30.911  1.00  0.00     0.190 HD
BRANCH   8  11
HETATM   11  C   UNL     1      -8.441  -0.280 -33.392  1.00  0.00     0.280 C 
BRANCH  11  12
HETATM   12  O   UNL     1      -7.602  -0.422 -34.536  1.00  0.00    -0.342 OA
BRANCH  12  13
HETATM   13  C   UNL     1      -6.615  -1.358 -34.370  1.00  0.00     0.069 A 
HETATM   14  C   UNL     1      -5.381  -1.081 -33.778  1.00  0.00     0.038 A 
HETATM   15  C   UNL     1      -4.431  -2.098 -33.642  1.00  0.00     0.022 A 
HETATM   16  C   UNL     1      -4.725  -3.386 -34.087  1.00  0.00     0.011 A 
HETATM   17 BR   UNL     1      -3.435  -4.756 -33.909  1.00  0.00    -0.051 Br
HETATM   18  C   UNL     1      -5.964  -3.670 -34.657  1.00  0.00     0.022 A 
HETATM   19  C   UNL     1      -6.914  -2.655 -34.789  1.00  0.00     0.038 A 
ENDBRANCH  12  13
ENDBRANCH  11  12
ENDBRANCH   8  11
ENDBRANCH   3   7
BRANCH   1  20
HETATM   20  C   UNL     1      -4.716   3.360 -30.726  1.00  0.00     0.130 C 
BRANCH  20  21
HETATM   21  C   UNL     1      -3.487   2.739 -31.389  1.00  0.00     0.079 C 
BRANCH  21  22
HETATM   22  C   UNL     1      -2.604   3.791 -31.980  1.00  0.00     0.043 A 
HETATM   23  C   UNL     1      -2.674   4.300 -33.263  1.00  0.00     0.078 A 
HETATM   24  S   UNL     1      -1.447   5.473 -33.498  1.00  0.00    -0.085 SA
HETATM   25  C   UNL     1      -0.906   5.212 -31.889  1.00  0.00     0.071 A 
HETATM   26  C   UNL     1       0.250   5.978 -31.351  1.00  0.00     0.078 C 
HETATM   27  N   UNL     1      -1.586   4.320 -31.201  1.00  0.00    -0.251 NA
ENDBRANCH  21  22
ENDBRANCH  20  21
ENDBRANCH   1  20
TORSDOF 7
ENDMDL
MODEL 4
REMARK VINA RESULT:      -7.2      4.710      8.780
REMARK  7 active torsions:
REMARK  status: ('A' for Active; 'I' for Inactive)
REMARK    1  A    between atoms: C_5  and  C_6 
REMARK    2  A    between atoms: C_6  and  C_7 
REMARK    3  A    between atoms: C_7  and  N_8 
REMARK       I    between atoms: N_8  and  C_9 
REMARK       I    between atoms: C_9  and  N_10 
REMARK    4  A    between atoms: N_10  and  N_11 
REMARK       I    between atoms: N_11  and  C_12 
REMARK    5  A    between atoms: C_12  and  C_13 
REMARK    6  A    between atoms: C_13  and  O_14 
REMARK    7  A    between atoms: O_14  and  C_15 
ROOT
HETATM    1  N   UNL     1      -5.588   1.862 -32.099  1.00  0.00    -0.341 N 
HETATM    2  C   UNL     1      -6.034   2.593 -31.034  1.00  0.00     0.334 C 
HETATM    3  N   UNL     1      -5.267   3.686 -30.701  1.00  0.00    -0.249 N 
HETATM    4  O   UNL     1      -7.039   2.321 -30.385  1.00  0.00    -0.246 OA
HETATM    5  H   UNL     1      -4.573   1.885 -32.150  1.00  0.00     0.164 HD
HETATM    6  H   UNL     1      -5.631   4.235 -29.930  1.00  0.00     0.192 HD
ENDROOT
BRANCH   3   7
HETATM    7  N   UNL     1      -4.360   4.320 -31.579  1.00  0.00    -0.264 N 
HETATM    8  C   UNL     1      -3.042   3.892 -31.653  1.00  0.00     0.260 C 
HETATM    9  O   UNL     1      -2.649   2.811 -31.215  1.00  0.00    -0.269 OA
HETATM   10  H   UNL     1      -4.569   5.289 -31.807  1.00  0.00     0.190 HD
BRANCH   8  11
HETATM   11  C   UNL     1      -2.135   4.838 -32.424  1.00  0.00     0.280 C 
BRANCH  11  12
HETATM   12  O   UNL     1      -0.791   4.613 -32.002  1.00  0.00    -0.342 OA
BRANCH  12  13
HETATM   13  C   UNL     1      -0.376   5.487 -31.032  1.00  0.00     0.069 A 
HETATM   14  C   UNL     1      -0.608   6.863 -31.081  1.00  0.00     0.038 A 
HETATM   15  C   UNL     1      -0.154   7.683 -30.044  1.00  0.00     0.022 A 
HETATM   16  C   UNL     1       0.518   7.121 -28.960  1.00  0.00     0.011 A 
HETATM   17 BR   UNL     1       1.138   8.234 -27.563  1.00  0.00    -0.051 Br
HETATM   18  C   UNL     1       0.731   5.746 -28.897  1.00  0.00     0.022 A 
HETATM   19  C   UNL     1       0.274   4.927 -29.932  1.00  0.00     0.038 A 
ENDBRANCH  12  13
ENDBRANCH  11  12
ENDBRANCH   8  11
ENDBRANCH   3   7
BRANCH   1  20
HETATM   20  C   UNL     1      -6.175   0.572 -32.416  1.00  0.00     0.130 C 
BRANCH  20  21
HETATM   21  C   UNL     1      -6.126   0.217 -33.902  1.00  0.00     0.079 C 
BRANCH  21  22
HETATM   22  C   UNL     1      -5.673  -1.193 -34.105  1.00  0.00     0.043 A 
HETATM   23  C   UNL     1      -4.449  -1.725 -33.746  1.00  0.00     0.078 A 
HETATM   24  S   UNL     1      -4.371  -3.377 -34.193  1.00  0.00    -0.085 SA
HETATM   25  C   UNL     1      -5.959  -3.264 -34.839  1.00  0.00     0.071 A 
HETATM   26  C   UNL     1      -6.606  -4.453 -35.457  1.00  0.00     0.078 C 
HETATM   27  N   UNL     1      -6.531  -2.084 -34.732  1.00  0.00    -0.251 NA
ENDBRANCH  21  22
ENDBRANCH  20  21
ENDBRANCH   1  20
TORSDOF 7
ENDMDL
MODEL 5
REMARK VINA RESULT:      -7.1      4.150      6.835
REMARK  7 active torsions:
REMARK  status: ('A' for Active; 'I' for Inactive)
REMARK    1  A    between atoms: C_5  and  C_6 
REMARK    2  A    between atoms: C_6  and  C_7 
REMARK    3  A    between atoms: C_7  and  N_8 
REMARK       I    between atoms: N_8  and  C_9 
REMARK       I    between atoms: C_9  and  N_10 
REMARK    4  A    between atoms: N_10  and  N_11 
REMARK       I    between atoms: N_11  and  C_12 
REMARK    5  A    between atoms: C_12  and  C_13 
REMARK    6  A    between atoms: C_13  and  O_14 
REMARK    7  A    between atoms: O_14  and  C_15 
ROOT
HETATM    1  N   UNL     1      -8.550   0.856 -33.318  1.00  0.00    -0.341 N 
HETATM    2  C   UNL     1      -9.433   0.409 -32.375  1.00  0.00     0.334 C 
HETATM    3  N   UNL     1      -9.253   0.915 -31.107  1.00  0.00    -0.249 N 
HETATM    4  O   UNL     1     -10.333  -0.394 -32.599  1.00  0.00    -0.246 OA
HETATM    5  H   UNL     1      -7.642   1.041 -32.899  1.00  0.00     0.164 HD
HETATM    6  H   UNL     1      -9.937   0.599 -30.428  1.00  0.00     0.192 HD
ENDROOT
BRANCH   3   7
HETATM    7  N   UNL     1      -8.550   2.106 -30.816  1.00  0.00    -0.264 N 
HETATM    8  C   UNL     1      -7.205   2.061 -30.483  1.00  0.00     0.260 C 
HETATM    9  O   UNL     1      -6.482   1.085 -30.687  1.00  0.00    -0.269 OA
HETATM   10  H   UNL     1      -9.113   2.875 -30.462  1.00  0.00     0.190 HD
BRANCH   8  11
HETATM   11  C   UNL     1      -6.667   3.373 -29.933  1.00  0.00     0.280 C 
BRANCH  11  12
HETATM   12  O   UNL     1      -5.247   3.275 -29.851  1.00  0.00    -0.342 OA
BRANCH  12  13
HETATM   13  C   UNL     1      -4.605   3.780 -30.951  1.00  0.00     0.069 A 
HETATM   14  C   UNL     1      -4.896   5.025 -31.511  1.00  0.00     0.038 A 
HETATM   15  C   UNL     1      -4.188   5.466 -32.633  1.00  0.00     0.022 A 
HETATM   16  C   UNL     1      -3.186   4.666 -33.179  1.00  0.00     0.011 A 
HETATM   17 BR   UNL     1      -2.235   5.262 -34.700  1.00  0.00    -0.051 Br
HETATM   18  C   UNL     1      -2.877   3.433 -32.608  1.00  0.00     0.022 A 
HETATM   19  C   UNL     1      -3.583   2.995 -31.485  1.00  0.00     0.038 A 
ENDBRANCH  12  13
ENDBRANCH  11  12
ENDBRANCH   8  11
ENDBRANCH   3   7
BRANCH   1  20
HETATM   20  C   UNL     1      -8.490   0.241 -34.632  1.00  0.00     0.130 C 
BRANCH  20  21
HETATM   21  C   UNL     1      -7.118   0.337 -35.299  1.00  0.00     0.079 C 
BRANCH  21  22
HETATM   22  C   UNL     1      -6.124  -0.546 -34.616  1.00  0.00     0.043 A 
HETATM   23  C   UNL     1      -5.922  -1.893 -34.847  1.00  0.00     0.078 A 
HETATM   24  S   UNL     1      -4.691  -2.489 -33.816  1.00  0.00    -0.085 SA
HETATM   25  C   UNL     1      -4.523  -0.923 -33.130  1.00  0.00     0.071 A 
HETATM   26  C   UNL     1      -3.525  -0.675 -32.056  1.00  0.00     0.078 C 
HETATM   27  N   UNL     1      -5.318   0.000 -33.628  1.00  0.00    -0.251 NA
ENDBRANCH  21  22
ENDBRANCH  20  21
ENDBRANCH   1  20
TORSDOF 7
ENDMDL
MODEL 6
REMARK VINA RESULT:      -7.1      2.765      3.864
REMARK  7 active torsions:
REMARK  status: ('A' for Active; 'I' for Inactive)
REMARK    1  A    between atoms: C_5  and  C_6 
REMARK    2  A    between atoms: C_6  and  C_7 
REMARK    3  A    between atoms: C_7  and  N_8 
REMARK       I    between atoms: N_8  and  C_9 
REMARK       I    between atoms: C_9  and  N_10 
REMARK    4  A    between atoms: N_10  and  N_11 
REMARK       I    between atoms: N_11  and  C_12 
REMARK    5  A    between atoms: C_12  and  C_13 
REMARK    6  A    between atoms: C_13  and  O_14 
REMARK    7  A    between atoms: O_14  and  C_15 
ROOT
HETATM    1  N   UNL     1      -1.894   6.521 -32.088  1.00  0.00    -0.341 N 
HETATM    2  C   UNL     1      -2.009   6.711 -33.437  1.00  0.00     0.334 C 
HETATM    3  N   UNL     1      -2.444   5.621 -34.155  1.00  0.00    -0.249 N 
HETATM    4  O   UNL     1      -1.743   7.763 -34.009  1.00  0.00    -0.246 OA
HETATM    5  H   UNL     1      -1.634   5.560 -31.883  1.00  0.00     0.164 HD
HETATM    6  H   UNL     1      -2.556   5.789 -35.149  1.00  0.00     0.192 HD
ENDROOT
BRANCH   3   7
HETATM    7  N   UNL     1      -3.147   4.529 -33.598  1.00  0.00    -0.264 N 
HETATM    8  C   UNL     1      -4.492   4.343 -33.884  1.00  0.00     0.260 C 
HETATM    9  O   UNL     1      -5.076   4.897 -34.815  1.00  0.00    -0.269 OA
HETATM   10  H   UNL     1      -2.784   4.172 -32.717  1.00  0.00     0.190 HD
BRANCH   8  11
HETATM   11  C   UNL     1      -5.166   3.303 -33.003  1.00  0.00     0.280 C 
BRANCH  11  12
HETATM   12  O   UNL     1      -6.375   2.893 -33.638  1.00  0.00    -0.342 OA
BRANCH  12  13
HETATM   13  C   UNL     1      -6.406   1.555 -33.928  1.00  0.00     0.069 A 
HETATM   14  C   UNL     1      -7.223   0.998 -34.915  1.00  0.00     0.038 A 
HETATM   15  C   UNL     1      -7.188  -0.380 -35.151  1.00  0.00     0.022 A 
HETATM   16  C   UNL     1      -6.331  -1.189 -34.408  1.00  0.00     0.011 A 
HETATM   17 BR   UNL     1      -6.293  -3.052 -34.724  1.00  0.00    -0.051 Br
HETATM   18  C   UNL     1      -5.498  -0.634 -33.439  1.00  0.00     0.022 A 
HETATM   19  C   UNL     1      -5.530   0.743 -33.207  1.00  0.00     0.038 A 
ENDBRANCH  12  13
ENDBRANCH  11  12
ENDBRANCH   8  11
ENDBRANCH   3   7
BRANCH   1  20
HETATM   20  C   UNL     1      -1.243   7.511 -31.249  1.00  0.00     0.130 C 
BRANCH  20  21
HETATM   21  C   UNL     1       0.074   7.035 -30.637  1.00  0.00     0.079 C 
BRANCH  21  22
HETATM   22  C   UNL     1       0.050   7.155 -29.146  1.00  0.00     0.043 A 
HETATM   23  C   UNL     1      -0.986   6.793 -28.308  1.00  0.00     0.078 A 
HETATM   24  S   UNL     1      -0.571   7.131 -26.680  1.00  0.00    -0.085 SA
HETATM   25  C   UNL     1       0.946   7.741 -27.206  1.00  0.00     0.071 A 
HETATM   26  C   UNL     1       1.931   8.261 -26.220  1.00  0.00     0.078 C 
HETATM   27  N   UNL     1       1.153   7.698 -28.505  1.00  0.00    -0.251 NA
ENDBRANCH  21  22
ENDBRANCH  20  21
ENDBRANCH   1  20
TORSDOF 7
ENDMDL
MODEL 7
REMARK VINA RESULT:      -6.9      2.489      3.335
REMARK  7 active torsions:
REMARK  status: ('A' for Active; 'I' for Inactive)
REMARK    1  A    between atoms: C_5  and  C_6 
REMARK    2  A    between atoms: C_6  and  C_7 
REMARK    3  A    between atoms: C_7  and  N_8 
REMARK       I    between atoms: N_8  and  C_9 
REMARK       I    between atoms: C_9  and  N_10 
REMARK    4  A    between atoms: N_10  and  N_11 
REMARK       I    between atoms: N_11  and  C_12 
REMARK    5  A    between atoms: C_12  and  C_13 
REMARK    6  A    between atoms: C_13  and  O_14 
REMARK    7  A    between atoms: O_14  and  C_15 
ROOT
HETATM    1  N   UNL     1      -4.127   5.955 -29.067  1.00  0.00    -0.341 N 
HETATM    2  C   UNL     1      -5.316   5.700 -28.443  1.00  0.00     0.334 C 
HETATM    3  N   UNL     1      -5.917   4.508 -28.778  1.00  0.00    -0.249 N 
HETATM    4  O   UNL     1      -5.850   6.460 -27.641  1.00  0.00    -0.246 OA
HETATM    5  H   UNL     1      -4.118   5.553 -30.000  1.00  0.00     0.164 HD
HETATM    6  H   UNL     1      -6.781   4.320 -28.281  1.00  0.00     0.192 HD
ENDROOT
BRANCH   3   7
HETATM    7  N   UNL     1      -5.241   3.406 -29.346  1.00  0.00    -0.264 N 
HETATM    8  C   UNL     1      -5.171   3.261 -30.724  1.00  0.00     0.260 C 
HETATM    9  O   UNL     1      -5.415   4.168 -31.519  1.00  0.00    -0.269 OA
HETATM   10  H   UNL     1      -5.192   2.571 -28.767  1.00  0.00     0.190 HD
BRANCH   8  11
HETATM   11  C   UNL     1      -4.660   1.900 -31.171  1.00  0.00     0.280 C 
BRANCH  11  12
HETATM   12  O   UNL     1      -4.666   1.866 -32.596  1.00  0.00    -0.342 OA
BRANCH  12  13
HETATM   13  C   UNL     1      -4.965   0.630 -33.106  1.00  0.00     0.069 A 
HETATM   14  C   UNL     1      -4.103  -0.466 -33.030  1.00  0.00     0.038 A 
HETATM   15  C   UNL     1      -4.489  -1.695 -33.572  1.00  0.00     0.022 A 
HETATM   16  C   UNL     1      -5.739  -1.824 -34.175  1.00  0.00     0.011 A 
HETATM   17 BR   UNL     1      -6.256  -3.485 -34.915  1.00  0.00    -0.051 Br
HETATM   18  C   UNL     1      -6.611  -0.739 -34.232  1.00  0.00     0.022 A 
HETATM   19  C   UNL     1      -6.225   0.488 -33.687  1.00  0.00     0.038 A 
ENDBRANCH  12  13
ENDBRANCH  11  12
ENDBRANCH   8  11
ENDBRANCH   3   7
BRANCH   1  20
HETATM   20  C   UNL     1      -3.501   7.263 -28.972  1.00  0.00     0.130 C 
BRANCH  20  21
HETATM   21  C   UNL     1      -2.065   7.302 -29.494  1.00  0.00     0.079 C 
BRANCH  21  22
HETATM   22  C   UNL     1      -2.014   6.989 -30.955  1.00  0.00     0.043 A 
HETATM   23  C   UNL     1      -1.839   7.893 -31.985  1.00  0.00     0.078 A 
HETATM   24  S   UNL     1      -1.866   7.080 -33.493  1.00  0.00    -0.085 SA
HETATM   25  C   UNL     1      -2.118   5.592 -32.672  1.00  0.00     0.071 A 
HETATM   26  C   UNL     1      -2.246   4.323 -33.437  1.00  0.00     0.078 C 
HETATM   27  N   UNL     1      -2.174   5.673 -31.360  1.00  0.00    -0.251 NA
ENDBRANCH  21  22
ENDBRANCH  20  21
ENDBRANCH   1  20
TORSDOF 7
ENDMDL
MODEL 8
REMARK VINA RESULT:      -6.9      4.283      8.371
REMARK  7 active torsions:
REMARK  status: ('A' for Active; 'I' for Inactive)
REMARK    1  A    between atoms: C_5  and  C_6 
REMARK    2  A    between atoms: C_6  and  C_7 
REMARK    3  A    between atoms: C_7  and  N_8 
REMARK       I    between atoms: N_8  and  C_9 
REMARK       I    between atoms: C_9  and  N_10 
REMARK    4  A    between atoms: N_10  and  N_11 
REMARK       I    between atoms: N_11  and  C_12 
REMARK    5  A    between atoms: C_12  and  C_13 
REMARK    6  A    between atoms: C_13  and  O_14 
REMARK    7  A    between atoms: O_14  and  C_15 
ROOT
HETATM    1  N   UNL     1      -4.831   2.442 -31.957  1.00  0.00    -0.341 N 
HETATM    2  C   UNL     1      -5.641   2.842 -32.982  1.00  0.00     0.334 C 
HETATM    3  N   UNL     1      -5.298   4.033 -33.580  1.00  0.00    -0.249 N 
HETATM    4  O   UNL     1      -6.624   2.216 -33.368  1.00  0.00    -0.246 OA
HETATM    5  H   UNL     1      -4.461   3.246 -31.458  1.00  0.00     0.164 HD
HETATM    6  H   UNL     1      -5.889   4.298 -34.360  1.00  0.00     0.192 HD
ENDROOT
BRANCH   3   7
HETATM    7  N   UNL     1      -4.013   4.618 -33.511  1.00  0.00    -0.264 N 
HETATM    8  C   UNL     1      -3.428   5.157 -34.646  1.00  0.00     0.260 C 
HETATM    9  O   UNL     1      -4.049   5.424 -35.675  1.00  0.00    -0.269 OA
HETATM   10  H   UNL     1      -3.408   4.269 -32.771  1.00  0.00     0.190 HD
BRANCH   8  11
HETATM   11  C   UNL     1      -1.954   5.493 -34.474  1.00  0.00     0.280 C 
BRANCH  11  12
HETATM   12  O   UNL     1      -1.837   6.895 -34.245  1.00  0.00    -0.342 OA
BRANCH  12  13
HETATM   13  C   UNL     1      -1.560   7.208 -32.941  1.00  0.00     0.069 A 
HETATM   14  C   UNL     1      -2.301   8.126 -32.193  1.00  0.00     0.038 A 
HETATM   15  C   UNL     1      -1.952   8.383 -30.864  1.00  0.00     0.022 A 
HETATM   16  C   UNL     1      -0.873   7.714 -30.288  1.00  0.00     0.011 A 
HETATM   17 BR   UNL     1      -0.399   8.071 -28.493  1.00  0.00    -0.051 Br
HETATM   18  C   UNL     1      -0.146   6.782 -31.024  1.00  0.00     0.022 A 
HETATM   19  C   UNL     1      -0.498   6.522 -32.351  1.00  0.00     0.038 A 
ENDBRANCH  12  13
ENDBRANCH  11  12
ENDBRANCH   8  11
ENDBRANCH   3   7
BRANCH   1  20
HETATM   20  C   UNL     1      -5.204   1.327 -31.104  1.00  0.00     0.130 C 
BRANCH  20  21
HETATM   21  C   UNL     1      -4.140   0.233 -31.013  1.00  0.00     0.079 C 
BRANCH  21  22
HETATM   22  C   UNL     1      -4.363  -0.823 -32.047  1.00  0.00     0.043 A 
HETATM   23  C   UNL     1      -3.507  -1.860 -32.363  1.00  0.00     0.078 A 
HETATM   24  S   UNL     1      -4.172  -2.810 -33.624  1.00  0.00    -0.085 SA
HETATM   25  C   UNL     1      -5.539  -1.772 -33.667  1.00  0.00     0.071 A 
HETATM   26  C   UNL     1      -6.646  -2.025 -34.629  1.00  0.00     0.078 C 
HETATM   27  N   UNL     1      -5.525  -0.781 -32.802  1.00  0.00    -0.251 NA
ENDBRANCH  21  22
ENDBRANCH  20  21
ENDBRANCH   1  20
TORSDOF 7
ENDMDL
MODEL 9
REMARK VINA RESULT:      -6.6      2.125      2.969
REMARK  7 active torsions:
REMARK  status: ('A' for Active; 'I' for Inactive)
REMARK    1  A    between atoms: C_5  and  C_6 
REMARK    2  A    between atoms: C_6  and  C_7 
REMARK    3  A    between atoms: C_7  and  N_8 
REMARK       I    between atoms: N_8  and  C_9 
REMARK       I    between atoms: C_9  and  N_10 
REMARK    4  A    between atoms: N_10  and  N_11 
REMARK       I    between atoms: N_11  and  C_12 
REMARK    5  A    between atoms: C_12  and  C_13 
REMARK    6  A    between atoms: C_13  and  O_14 
REMARK    7  A    between atoms: O_14  and  C_15 
ROOT
HETATM    1  N   UNL     1      -2.795   6.410 -32.507  1.00  0.00    -0.341 N 
HETATM    2  C   UNL     1      -2.249   5.586 -33.452  1.00  0.00     0.334 C 
HETATM    3  N   UNL     1      -2.714   4.290 -33.448  1.00  0.00    -0.249 N 
HETATM    4  O   UNL     1      -1.394   5.934 -34.259  1.00  0.00    -0.246 OA
HETATM    5  H   UNL     1      -3.026   5.888 -31.667  1.00  0.00     0.164 HD
HETATM    6  H   UNL     1      -2.324   3.702 -34.176  1.00  0.00     0.192 HD
ENDROOT
BRANCH   3   7
HETATM    7  N   UNL     1      -3.938   3.885 -32.871  1.00  0.00    -0.264 N 
HETATM    8  C   UNL     1      -3.983   2.791 -32.019  1.00  0.00     0.260 C 
HETATM    9  O   UNL     1      -2.987   2.295 -31.491  1.00  0.00    -0.269 OA
HETATM   10  H   UNL     1      -4.775   4.125 -33.397  1.00  0.00     0.190 HD
BRANCH   8  11
HETATM   11  C   UNL     1      -5.393   2.316 -31.706  1.00  0.00     0.280 C 
BRANCH  11  12
HETATM   12  O   UNL     1      -6.083   2.117 -32.937  1.00  0.00    -0.342 OA
BRANCH  12  13
HETATM   13  C   UNL     1      -6.095   0.810 -33.345  1.00  0.00     0.069 A 
HETATM   14  C   UNL     1      -5.536  -0.235 -32.606  1.00  0.00     0.038 A 
HETATM   15  C   UNL     1      -5.597  -1.544 -33.093  1.00  0.00     0.022 A 
HETATM   16  C   UNL     1      -6.226  -1.801 -34.310  1.00  0.00     0.011 A 
HETATM   17 BR   UNL     1      -6.299  -3.571 -34.971  1.00  0.00    -0.051 Br
HETATM   18  C   UNL     1      -6.804  -0.765 -35.040  1.00  0.00     0.022 A 
HETATM   19  C   UNL     1      -6.746   0.542 -34.550  1.00  0.00     0.038 A 
ENDBRANCH  12  13
ENDBRANCH  11  12
ENDBRANCH   8  11
ENDBRANCH   3   7
BRANCH   1  20
HETATM   20  C   UNL     1      -2.240   7.729 -32.260  1.00  0.00     0.130 C 
BRANCH  20  21
HETATM   21  C   UNL     1      -2.357   8.189 -30.807  1.00  0.00     0.079 C 
BRANCH  21  22
HETATM   22  C   UNL     1      -1.300   7.561 -29.956  1.00  0.00     0.043 A 
HETATM   23  C   UNL     1      -0.857   8.011 -28.728  1.00  0.00     0.078 A 
HETATM   24  S   UNL     1       0.379   6.983 -28.135  1.00  0.00    -0.085 SA
HETATM   25  C   UNL     1       0.245   6.025 -29.554  1.00  0.00     0.071 A 
HETATM   26  C   UNL     1       1.110   4.828 -29.738  1.00  0.00     0.078 C 
HETATM   27  N   UNL     1      -0.660   6.422 -30.422  1.00  0.00    -0.251 NA
ENDBRANCH  21  22
ENDBRANCH  20  21
ENDBRANCH   1  20
TORSDOF 7
ENDMDL
MODEL 10
REMARK VINA RESULT:      -6.6      5.336      7.572
REMARK  7 active torsions:
REMARK  status: ('A' for Active; 'I' for Inactive)
REMARK    1  A    between atoms: C_5  and  C_6 
REMARK    2  A    between atoms: C_6  and  C_7 
REMARK    3  A    between atoms: C_7  and  N_8 
REMARK       I    between atoms: N_8  and  C_9 
REMARK       I    between atoms: C_9  and  N_10 
REMARK    4  A    between atoms: N_10  and  N_11 
REMARK       I    between atoms: N_11  and  C_12 
REMARK    5  A    between atoms: C_12  and  C_13 
REMARK    6  A    between atoms: C_13  and  O_14 
REMARK    7  A    between atoms: O_14  and  C_15 
ROOT
HETATM    1  N   UNL     1      -6.758   0.718 -31.099  1.00  0.00    -0.341 N 
HETATM    2  C   UNL     1      -6.452   1.165 -29.845  1.00  0.00     0.334 C 
HETATM    3  N   UNL     1      -6.972   2.395 -29.510  1.00  0.00    -0.249 N 
HETATM    4  O   UNL     1      -5.756   0.549 -29.044  1.00  0.00    -0.246 OA
HETATM    5  H   UNL     1      -6.845   1.497 -31.746  1.00  0.00     0.164 HD
HETATM    6  H   UNL     1      -6.763   2.696 -28.565  1.00  0.00     0.192 HD
ENDROOT
BRANCH   3   7
HETATM    7  N   UNL     1      -8.077   2.994 -30.154  1.00  0.00    -0.264 N 
HETATM    8  C   UNL     1      -7.882   3.853 -31.226  1.00  0.00     0.260 C 
HETATM    9  O   UNL     1      -6.828   3.931 -31.856  1.00  0.00    -0.269 OA
HETATM   10  H   UNL     1      -8.911   3.112 -29.583  1.00  0.00     0.190 HD
BRANCH   8  11
HETATM   11  C   UNL     1      -9.130   4.624 -31.627  1.00  0.00     0.280 C 
BRANCH  11  12
HETATM   12  O   UNL     1      -9.367   4.404 -33.015  1.00  0.00    -0.342 OA
BRANCH  12  13
HETATM   13  C   UNL     1     -10.284   3.415 -33.257  1.00  0.00     0.069 A 
HETATM   14  C   UNL     1      -9.962   2.191 -33.847  1.00  0.00     0.038 A 
HETATM   15  C   UNL     1     -10.959   1.234 -34.052  1.00  0.00     0.022 A 
HETATM   16  C   UNL     1     -12.269   1.501 -33.657  1.00  0.00     0.011 A 
HETATM   17 BR   UNL     1     -13.618   0.208 -33.944  1.00  0.00    -0.051 Br
HETATM   18  C   UNL     1     -12.589   2.713 -33.048  1.00  0.00     0.022 A 
HETATM   19  C   UNL     1     -11.591   3.667 -32.839  1.00  0.00     0.038 A 
ENDBRANCH  12  13
ENDBRANCH  11  12
ENDBRANCH   8  11
ENDBRANCH   3   7
BRANCH   1  20
HETATM   20  C   UNL     1      -6.099  -0.452 -31.655  1.00  0.00     0.130 C 
BRANCH  20  21
HETATM   21  C   UNL     1      -5.872  -0.377 -33.164  1.00  0.00     0.079 C 
BRANCH  21  22
HETATM   22  C   UNL     1      -5.461  -1.705 -33.714  1.00  0.00     0.043 A 
HETATM   23  C   UNL     1      -4.204  -2.274 -33.640  1.00  0.00     0.078 A 
HETATM   24  S   UNL     1      -4.200  -3.796 -34.427  1.00  0.00    -0.085 SA
HETATM   25  C   UNL     1      -5.859  -3.585 -34.817  1.00  0.00     0.071 A 
HETATM   26  C   UNL     1      -6.593  -4.633 -35.576  1.00  0.00     0.078 C 
HETATM   27  N   UNL     1      -6.402  -2.465 -34.392  1.00  0.00    -0.251 NA
ENDBRANCH  21  22
ENDBRANCH  20  21
ENDBRANCH   1  20
TORSDOF 7
ENDMDL
