MODEL 1
REMARK VINA RESULT:      -8.3      0.000      0.000
REMARK  6 active torsions:
REMARK  status: ('A' for Active; 'I' for Inactive)
REMARK    1  A    between atoms: O_2  and  C_3 
REMARK    2  A    between atoms: C_7  and  C_8 
REMARK    3  A    between atoms: C_8  and  N_9 
REMARK    4  A    between atoms: N_9  and  C_10 
REMARK       I    between atoms: N_9  and  C_13 
REMARK       I    between atoms: C_13  and  N_15 
REMARK    5  A    between atoms: N_15  and  C_16 
REMARK    6  A    between atoms: C_19  and  C_22 
ROOT
HETATM    1  N   UNL     1      -5.048   4.333 -31.801  1.00  0.00    -0.325 N 
HETATM    2  C   UNL     1      -4.826   2.944 -31.768  1.00  0.00     0.323 C 
HETATM    3  O   UNL     1      -4.190   2.417 -30.857  1.00  0.00    -0.247 OA
HETATM    4  N   UNL     1      -5.363   2.261 -32.840  1.00  0.00    -0.309 N 
HETATM    5  H   UNL     1      -5.930   2.805 -33.467  1.00  0.00     0.170 HD
ENDROOT
BRANCH   1   6
HETATM    6  C   UNL     1      -4.338   5.146 -30.809  1.00  0.00     0.166 C 
BRANCH   6   7
HETATM    7  C   UNL     1      -3.132   5.849 -31.391  1.00  0.00    -0.037 A 
HETATM    8  C   UNL     1      -2.040   5.116 -31.871  1.00  0.00     0.009 A 
HETATM    9  C   UNL     1      -0.935   5.768 -32.416  1.00  0.00     0.003 A 
HETATM   10  C   UNL     1      -0.904   7.163 -32.483  1.00  0.00     0.037 A 
HETATM   11  C   UNL     1      -1.980   7.911 -32.006  1.00  0.00     0.068 A 
HETATM   12  C   UNL     1      -3.090   7.250 -31.470  1.00  0.00     0.045 A 
BRANCH  11  13
HETATM   13  O   UNL     1      -2.075   9.275 -32.010  1.00  0.00    -0.356 OA
HETATM   14  C   UNL     1      -2.506   9.889 -30.802  1.00  0.00     0.210 C 
ENDBRANCH  11  13
ENDBRANCH   6   7
ENDBRANCH   1   6
BRANCH   1  15
HETATM   15  C   UNL     1      -5.669   5.037 -32.903  1.00  0.00     0.089 A 
HETATM   16  C   UNL     1      -7.171   5.073 -33.064  1.00  0.00     0.027 A 
HETATM   17  C   UNL     1      -6.432   6.326 -32.713  1.00  0.00     0.027 A 
ENDBRANCH   1  15
BRANCH   4  18
HETATM   18  C   UNL     1      -5.239   0.891 -33.150  1.00  0.00     0.036 A 
HETATM   19  C   UNL     1      -4.111   0.122 -32.866  1.00  0.00     0.030 A 
HETATM   20  C   UNL     1      -4.060  -1.232 -33.228  1.00  0.00     0.014 A 
HETATM   21  C   UNL     1      -5.134  -1.841 -33.886  1.00  0.00    -0.023 A 
HETATM   22  C   UNL     1      -6.268  -1.070 -34.164  1.00  0.00     0.014 A 
HETATM   23  C   UNL     1      -6.318   0.282 -33.800  1.00  0.00     0.030 A 
BRANCH  21  24
HETATM   24  C   UNL     1      -5.062  -3.243 -34.261  1.00  0.00     0.010 A 
HETATM   25  C   UNL     1      -5.975  -4.057 -34.974  1.00  0.00     0.152 A 
HETATM   26  N   UNL     1      -5.555  -5.319 -35.100  1.00  0.00    -0.187 NA
HETATM   27  N   UNL     1      -4.376  -5.322 -34.459  1.00  0.00    -0.289 N 
HETATM   28  H   UNL     1      -3.858  -6.192 -34.411  1.00  0.00     0.188 HD
HETATM   29  C   UNL     1      -4.035  -4.105 -33.941  1.00  0.00     0.123 A 
ENDBRANCH  21  24
ENDBRANCH   4  18
TORSDOF 6
ENDMDL
MODEL 2
REMARK VINA RESULT:      -8.1      4.055      5.667
REMARK  6 active torsions:
REMARK  status: ('A' for Active; 'I' for Inactive)
REMARK    1  A    between atoms: O_2  and  C_3 
REMARK    2  A    between atoms: C_7  and  C_8 
REMARK    3  A    between atoms: C_8  and  N_9 
REMARK    4  A    between atoms: N_9  and  C_10 
REMARK       I    between atoms: N_9  and  C_13 
REMARK       I    between atoms: C_13  and  N_15 
REMARK    5  A    between atoms: N_15  and  C_16 
REMARK    6  A    between atoms: C_19  and  C_22 
ROOT
HETATM    1  N   UNL     1      -4.716   2.138 -32.053  1.00  0.00    -0.325 N 
HETATM    2  C   UNL     1      -6.078   2.379 -32.311  1.00  0.00     0.323 C 
HETATM    3  O   UNL     1      -6.615   3.437 -31.986  1.00  0.00    -0.247 OA
HETATM    4  N   UNL     1      -6.730   1.331 -32.928  1.00  0.00    -0.309 N 
HETATM    5  H   UNL     1      -6.150   0.561 -33.212  1.00  0.00     0.170 HD
ENDROOT
BRANCH   1   6
HETATM    6  C   UNL     1      -4.011   3.119 -31.221  1.00  0.00     0.166 C 
BRANCH   6   7
HETATM    7  C   UNL     1      -3.009   3.934 -32.010  1.00  0.00    -0.037 A 
HETATM    8  C   UNL     1      -3.193   4.159 -33.379  1.00  0.00     0.009 A 
HETATM    9  C   UNL     1      -2.272   4.918 -34.100  1.00  0.00     0.003 A 
HETATM   10  C   UNL     1      -1.153   5.458 -33.463  1.00  0.00     0.037 A 
HETATM   11  C   UNL     1      -0.951   5.240 -32.100  1.00  0.00     0.068 A 
HETATM   12  C   UNL     1      -1.883   4.486 -31.381  1.00  0.00     0.045 A 
BRANCH  11  13
HETATM   13  O   UNL     1       0.100   5.707 -31.358  1.00  0.00    -0.356 OA
HETATM   14  C   UNL     1       0.352   5.048 -30.123  1.00  0.00     0.210 C 
ENDBRANCH  11  13
ENDBRANCH   6   7
ENDBRANCH   1   6
BRANCH   1  15
HETATM   15  C   UNL     1      -4.050   0.874 -32.284  1.00  0.00     0.089 A 
HETATM   16  C   UNL     1      -3.147   0.260 -31.242  1.00  0.00     0.027 A 
HETATM   17  C   UNL     1      -4.450  -0.395 -31.571  1.00  0.00     0.027 A 
ENDBRANCH   1  15
BRANCH   4  18
HETATM   18  C   UNL     1      -8.101   1.219 -33.235  1.00  0.00     0.036 A 
HETATM   19  C   UNL     1      -8.786   2.076 -34.095  1.00  0.00     0.030 A 
HETATM   20  C   UNL     1     -10.158   1.907 -34.330  1.00  0.00     0.014 A 
HETATM   21  C   UNL     1     -10.874   0.880 -33.704  1.00  0.00    -0.023 A 
HETATM   22  C   UNL     1     -10.184   0.017 -32.845  1.00  0.00     0.014 A 
HETATM   23  C   UNL     1      -8.813   0.186 -32.613  1.00  0.00     0.030 A 
BRANCH  21  24
HETATM   24  C   UNL     1     -12.296   0.724 -33.952  1.00  0.00     0.010 A 
HETATM   25  C   UNL     1     -13.220   1.574 -34.606  1.00  0.00     0.152 A 
HETATM   26  N   UNL     1     -14.462   1.085 -34.612  1.00  0.00    -0.187 NA
HETATM   27  N   UNL     1     -14.343  -0.078 -33.952  1.00  0.00    -0.289 N 
HETATM   28  H   UNL     1     -15.175  -0.642 -33.817  1.00  0.00     0.188 HD
HETATM   29  C   UNL     1     -13.068  -0.341 -33.538  1.00  0.00     0.123 A 
ENDBRANCH  21  24
ENDBRANCH   4  18
TORSDOF 6
ENDMDL
MODEL 3
REMARK VINA RESULT:      -8.0      1.614      2.511
REMARK  6 active torsions:
REMARK  status: ('A' for Active; 'I' for Inactive)
REMARK    1  A    between atoms: O_2  and  C_3 
REMARK    2  A    between atoms: C_7  and  C_8 
REMARK    3  A    between atoms: C_8  and  N_9 
REMARK    4  A    between atoms: N_9  and  C_10 
REMARK       I    between atoms: N_9  and  C_13 
REMARK       I    between atoms: C_13  and  N_15 
REMARK    5  A    between atoms: N_15  and  C_16 
REMARK    6  A    between atoms: C_19  and  C_22 
ROOT
HETATM    1  N   UNL     1      -5.778   4.708 -32.075  1.00  0.00    -0.325 N 
HETATM    2  C   UNL     1      -5.608   3.571 -32.885  1.00  0.00     0.323 C 
HETATM    3  O   UNL     1      -5.268   3.667 -34.064  1.00  0.00    -0.247 OA
HETATM    4  N   UNL     1      -5.872   2.377 -32.246  1.00  0.00    -0.309 N 
HETATM    5  H   UNL     1      -6.058   2.440 -31.260  1.00  0.00     0.170 HD
ENDROOT
BRANCH   1   6
HETATM    6  C   UNL     1      -5.713   6.015 -32.737  1.00  0.00     0.166 C 
BRANCH   6   7
HETATM    7  C   UNL     1      -4.345   6.651 -32.633  1.00  0.00    -0.037 A 
HETATM    8  C   UNL     1      -4.073   7.601 -31.641  1.00  0.00     0.009 A 
HETATM    9  C   UNL     1      -2.807   8.177 -31.543  1.00  0.00     0.003 A 
HETATM   10  C   UNL     1      -1.798   7.815 -32.438  1.00  0.00     0.037 A 
HETATM   11  C   UNL     1      -2.051   6.874 -33.435  1.00  0.00     0.068 A 
HETATM   12  C   UNL     1      -3.320   6.292 -33.522  1.00  0.00     0.045 A 
BRANCH  11  13
HETATM   13  O   UNL     1      -1.157   6.435 -34.373  1.00  0.00    -0.356 OA
HETATM   14  C   UNL     1      -1.438   5.184 -34.988  1.00  0.00     0.210 C 
ENDBRANCH  11  13
ENDBRANCH   6   7
ENDBRANCH   1   6
BRANCH   1  15
HETATM   15  C   UNL     1      -6.300   4.681 -30.726  1.00  0.00     0.089 A 
HETATM   16  C   UNL     1      -5.407   4.922 -29.532  1.00  0.00     0.027 A 
HETATM   17  C   UNL     1      -6.452   5.930 -29.890  1.00  0.00     0.027 A 
ENDBRANCH   1  15
BRANCH   4  18
HETATM   18  C   UNL     1      -5.886   1.079 -32.796  1.00  0.00     0.036 A 
HETATM   19  C   UNL     1      -6.987   0.509 -33.434  1.00  0.00     0.030 A 
HETATM   20  C   UNL     1      -6.925  -0.799 -33.935  1.00  0.00     0.014 A 
HETATM   21  C   UNL     1      -5.761  -1.564 -33.804  1.00  0.00    -0.023 A 
HETATM   22  C   UNL     1      -4.655  -0.989 -33.170  1.00  0.00     0.014 A 
HETATM   23  C   UNL     1      -4.718   0.318 -32.670  1.00  0.00     0.030 A 
BRANCH  21  24
HETATM   24  C   UNL     1      -5.716  -2.920 -34.322  1.00  0.00     0.010 A 
HETATM   25  C   UNL     1      -6.729  -3.725 -34.898  1.00  0.00     0.152 A 
HETATM   26  N   UNL     1      -6.295  -4.942 -35.235  1.00  0.00    -0.187 NA
HETATM   27  N   UNL     1      -5.004  -4.927 -34.869  1.00  0.00    -0.289 N 
HETATM   28  H   UNL     1      -4.452  -5.764 -35.020  1.00  0.00     0.188 HD
HETATM   29  C   UNL     1      -4.608  -3.742 -34.320  1.00  0.00     0.123 A 
ENDBRANCH  21  24
ENDBRANCH   4  18
TORSDOF 6
ENDMDL
MODEL 4
REMARK VINA RESULT:      -8.0      1.903      2.272
REMARK  6 active torsions:
REMARK  status: ('A' for Active; 'I' for Inactive)
REMARK    1  A    between atoms: O_2  and  C_3 
REMARK    2  A    between atoms: C_7  and  C_8 
REMARK    3  A    between atoms: C_8  and  N_9 
REMARK    4  A    between atoms: N_9  and  C_10 
REMARK       I    between atoms: N_9  and  C_13 
REMARK       I    between atoms: C_13  and  N_15 
REMARK    5  A    between atoms: N_15  and  C_16 
REMARK    6  A    between atoms: C_19  and  C_22 
ROOT
HETATM    1  N   UNL     1      -4.114   4.661 -31.893  1.00  0.00    -0.325 N 
HETATM    2  C   UNL     1      -3.924   3.373 -32.425  1.00  0.00     0.323 C 
HETATM    3  O   UNL     1      -2.931   3.094 -33.094  1.00  0.00    -0.247 OA
HETATM    4  N   UNL     1      -4.946   2.489 -32.142  1.00  0.00    -0.309 N 
HETATM    5  H   UNL     1      -5.655   2.826 -31.514  1.00  0.00     0.170 HD
ENDROOT
BRANCH   1   6
HETATM    6  C   UNL     1      -3.175   5.704 -32.320  1.00  0.00     0.166 C 
BRANCH   6   7
HETATM    7  C   UNL     1      -1.942   5.767 -31.446  1.00  0.00    -0.037 A 
HETATM    8  C   UNL     1      -0.738   5.192 -31.868  1.00  0.00     0.009 A 
HETATM    9  C   UNL     1       0.399   5.261 -31.063  1.00  0.00     0.003 A 
HETATM   10  C   UNL     1       0.345   5.902 -29.823  1.00  0.00     0.037 A 
HETATM   11  C   UNL     1      -0.848   6.477 -29.384  1.00  0.00     0.068 A 
HETATM   12  C   UNL     1      -1.981   6.413 -30.201  1.00  0.00     0.045 A 
BRANCH  11  13
HETATM   13  O   UNL     1      -1.037   7.128 -28.196  1.00  0.00    -0.356 OA
HETATM   14  C   UNL     1      -0.492   6.511 -27.036  1.00  0.00     0.210 C 
ENDBRANCH  11  13
ENDBRANCH   6   7
ENDBRANCH   1   6
BRANCH   1  15
HETATM   15  C   UNL     1      -5.313   5.097 -31.211  1.00  0.00     0.089 A 
HETATM   16  C   UNL     1      -5.339   5.293 -29.714  1.00  0.00     0.027 A 
HETATM   17  C   UNL     1      -5.452   6.479 -30.618  1.00  0.00     0.027 A 
ENDBRANCH   1  15
BRANCH   4  18
HETATM   18  C   UNL     1      -5.104   1.166 -32.601  1.00  0.00     0.036 A 
HETATM   19  C   UNL     1      -4.361   0.080 -32.139  1.00  0.00     0.030 A 
HETATM   20  C   UNL     1      -4.567  -1.203 -32.665  1.00  0.00     0.014 A 
HETATM   21  C   UNL     1      -5.517  -1.425 -33.668  1.00  0.00    -0.023 A 
HETATM   22  C   UNL     1      -6.267  -0.337 -34.126  1.00  0.00     0.014 A 
HETATM   23  C   UNL     1      -6.061   0.945 -33.598  1.00  0.00     0.030 A 
BRANCH  21  24
HETATM   24  C   UNL     1      -5.712  -2.759 -34.208  1.00  0.00     0.010 A 
HETATM   25  C   UNL     1      -4.806  -3.836 -34.364  1.00  0.00     0.152 A 
HETATM   26  N   UNL     1      -5.366  -4.908 -34.930  1.00  0.00    -0.187 NA
HETATM   27  N   UNL     1      -6.632  -4.521 -35.147  1.00  0.00    -0.289 N 
HETATM   28  H   UNL     1      -7.267  -5.178 -35.588  1.00  0.00     0.188 HD
HETATM   29  C   UNL     1      -6.891  -3.246 -34.733  1.00  0.00     0.123 A 
ENDBRANCH  21  24
ENDBRANCH   4  18
TORSDOF 6
ENDMDL
MODEL 5
REMARK VINA RESULT:      -7.7      1.551      2.397
REMARK  6 active torsions:
REMARK  status: ('A' for Active; 'I' for Inactive)
REMARK    1  A    between atoms: O_2  and  C_3 
REMARK    2  A    between atoms: C_7  and  C_8 
REMARK    3  A    between atoms: C_8  and  N_9 
REMARK    4  A    between atoms: N_9  and  C_10 
REMARK       I    between atoms: N_9  and  C_13 
REMARK       I    between atoms: C_13  and  N_15 
REMARK    5  A    between atoms: N_15  and  C_16 
REMARK    6  A    between atoms: C_19  and  C_22 
ROOT
HETATM    1  N   UNL     1      -6.922   4.542 -32.717  1.00  0.00    -0.325 N 
HETATM    2  C   UNL     1      -6.281   3.370 -33.157  1.00  0.00     0.323 C 
HETATM    3  O   UNL     1      -5.153   3.400 -33.647  1.00  0.00    -0.247 OA
HETATM    4  N   UNL     1      -7.034   2.223 -33.005  1.00  0.00    -0.309 N 
HETATM    5  H   UNL     1      -7.904   2.332 -32.514  1.00  0.00     0.170 HD
ENDROOT
BRANCH   1   6
HETATM    6  C   UNL     1      -6.270   5.817 -33.031  1.00  0.00     0.166 C 
BRANCH   6   7
HETATM    7  C   UNL     1      -5.138   6.139 -32.081  1.00  0.00    -0.037 A 
HETATM    8  C   UNL     1      -5.318   6.035 -30.696  1.00  0.00     0.009 A 
HETATM    9  C   UNL     1      -4.269   6.323 -29.824  1.00  0.00     0.003 A 
HETATM   10  C   UNL     1      -3.028   6.725 -30.324  1.00  0.00     0.037 A 
HETATM   11  C   UNL     1      -2.832   6.839 -31.700  1.00  0.00     0.068 A 
HETATM   12  C   UNL     1      -3.885   6.539 -32.570  1.00  0.00     0.045 A 
BRANCH  11  13
HETATM   13  O   UNL     1      -1.674   7.224 -32.319  1.00  0.00    -0.356 OA
HETATM   14  C   UNL     1      -1.622   7.070 -33.731  1.00  0.00     0.210 C 
ENDBRANCH  11  13
ENDBRANCH   6   7
ENDBRANCH   1   6
BRANCH   1  15
HETATM   15  C   UNL     1      -8.292   4.602 -32.256  1.00  0.00     0.089 A 
HETATM   16  C   UNL     1      -8.628   4.559 -30.784  1.00  0.00     0.027 A 
HETATM   17  C   UNL     1      -8.862   5.815 -31.560  1.00  0.00     0.027 A 
ENDBRANCH   1  15
BRANCH   4  18
HETATM   18  C   UNL     1      -6.723   0.915 -33.428  1.00  0.00     0.036 A 
HETATM   19  C   UNL     1      -7.103   0.375 -34.656  1.00  0.00     0.030 A 
HETATM   20  C   UNL     1      -6.770  -0.945 -34.991  1.00  0.00     0.014 A 
HETATM   21  C   UNL     1      -6.055  -1.754 -34.101  1.00  0.00    -0.023 A 
HETATM   22  C   UNL     1      -5.668  -1.209 -32.872  1.00  0.00     0.014 A 
HETATM   23  C   UNL     1      -6.000   0.111 -32.539  1.00  0.00     0.030 A 
BRANCH  21  24
HETATM   24  C   UNL     1      -5.725  -3.122 -34.460  1.00  0.00     0.010 A 
HETATM   25  C   UNL     1      -6.502  -4.128 -35.083  1.00  0.00     0.152 A 
HETATM   26  N   UNL     1      -5.843  -5.280 -35.224  1.00  0.00    -0.187 NA
HETATM   27  N   UNL     1      -4.641  -5.022 -34.685  1.00  0.00    -0.289 N 
HETATM   28  H   UNL     1      -3.952  -5.765 -34.667  1.00  0.00     0.188 HD
HETATM   29  C   UNL     1      -4.519  -3.745 -34.215  1.00  0.00     0.123 A 
ENDBRANCH  21  24
ENDBRANCH   4  18
TORSDOF 6
ENDMDL
MODEL 6
REMARK VINA RESULT:      -7.6      4.976      7.970
REMARK  6 active torsions:
REMARK  status: ('A' for Active; 'I' for Inactive)
REMARK    1  A    between atoms: O_2  and  C_3 
REMARK    2  A    between atoms: C_7  and  C_8 
REMARK    3  A    between atoms: C_8  and  N_9 
REMARK    4  A    between atoms: N_9  and  C_10 
REMARK       I    between atoms: N_9  and  C_13 
REMARK       I    between atoms: C_13  and  N_15 
REMARK    5  A    between atoms: N_15  and  C_16 
REMARK    6  A    between atoms: C_19  and  C_22 
ROOT
HETATM    1  N   UNL     1     -10.362   4.100 -33.641  1.00  0.00    -0.325 N 
HETATM    2  C   UNL     1      -9.909   2.897 -34.212  1.00  0.00     0.323 C 
HETATM    3  O   UNL     1     -10.501   2.368 -35.151  1.00  0.00    -0.247 OA
HETATM    4  N   UNL     1      -8.778   2.378 -33.613  1.00  0.00    -0.309 N 
HETATM    5  H   UNL     1      -8.350   2.957 -32.912  1.00  0.00     0.170 HD
ENDROOT
BRANCH   1   6
HETATM    6  C   UNL     1     -11.665   4.601 -34.088  1.00  0.00     0.166 C 
BRANCH   6   7
HETATM    7  C   UNL     1     -12.809   4.061 -33.259  1.00  0.00    -0.037 A 
HETATM    8  C   UNL     1     -13.418   4.856 -32.279  1.00  0.00     0.009 A 
HETATM    9  C   UNL     1     -14.478   4.357 -31.523  1.00  0.00     0.003 A 
HETATM   10  C   UNL     1     -14.940   3.056 -31.732  1.00  0.00     0.037 A 
HETATM   11  C   UNL     1     -14.344   2.248 -32.700  1.00  0.00     0.068 A 
HETATM   12  C   UNL     1     -13.288   2.758 -33.462  1.00  0.00     0.045 A 
BRANCH  11  13
HETATM   13  O   UNL     1     -14.696   0.961 -33.002  1.00  0.00    -0.356 OA
HETATM   14  C   UNL     1     -15.047   0.696 -34.354  1.00  0.00     0.210 C 
ENDBRANCH  11  13
ENDBRANCH   6   7
ENDBRANCH   1   6
BRANCH   1  15
HETATM   15  C   UNL     1      -9.796   4.708 -32.456  1.00  0.00     0.089 A 
HETATM   16  C   UNL     1      -8.658   5.697 -32.547  1.00  0.00     0.027 A 
HETATM   17  C   UNL     1     -10.011   6.162 -32.110  1.00  0.00     0.027 A 
ENDBRANCH   1  15
BRANCH   4  18
HETATM   18  C   UNL     1      -8.134   1.154 -33.883  1.00  0.00     0.036 A 
HETATM   19  C   UNL     1      -7.298   0.930 -34.976  1.00  0.00     0.030 A 
HETATM   20  C   UNL     1      -6.713  -0.327 -35.183  1.00  0.00     0.014 A 
HETATM   21  C   UNL     1      -6.957  -1.388 -34.304  1.00  0.00    -0.023 A 
HETATM   22  C   UNL     1      -7.791  -1.160 -33.203  1.00  0.00     0.014 A 
HETATM   23  C   UNL     1      -8.374   0.097 -32.997  1.00  0.00     0.030 A 
BRANCH  21  24
HETATM   24  C   UNL     1      -6.349  -2.686 -34.537  1.00  0.00     0.010 A 
HETATM   25  C   UNL     1      -6.932  -3.935 -34.859  1.00  0.00     0.152 A 
HETATM   26  N   UNL     1      -6.031  -4.914 -34.973  1.00  0.00    -0.187 NA
HETATM   27  N   UNL     1      -4.867  -4.299 -34.716  1.00  0.00    -0.289 N 
HETATM   28  H   UNL     1      -4.017  -4.852 -34.734  1.00  0.00     0.188 HD
HETATM   29  C   UNL     1      -5.002  -2.966 -34.450  1.00  0.00     0.123 A 
ENDBRANCH  21  24
ENDBRANCH   4  18
TORSDOF 6
ENDMDL
MODEL 7
REMARK VINA RESULT:      -7.4      4.839      7.845
REMARK  6 active torsions:
REMARK  status: ('A' for Active; 'I' for Inactive)
REMARK    1  A    between atoms: O_2  and  C_3 
REMARK    2  A    between atoms: C_7  and  C_8 
REMARK    3  A    between atoms: C_8  and  N_9 
REMARK    4  A    between atoms: N_9  and  C_10 
REMARK       I    between atoms: N_9  and  C_13 
REMARK       I    between atoms: C_13  and  N_15 
REMARK    5  A    between atoms: N_15  and  C_16 
REMARK    6  A    between atoms: C_19  and  C_22 
ROOT
HETATM    1  N   UNL     1      -6.037   2.553 -32.040  1.00  0.00    -0.325 N 
HETATM    2  C   UNL     1      -7.383   2.190 -31.848  1.00  0.00     0.323 C 
HETATM    3  O   UNL     1      -7.739   1.542 -30.865  1.00  0.00    -0.247 OA
HETATM    4  N   UNL     1      -8.229   2.608 -32.855  1.00  0.00    -0.309 N 
HETATM    5  H   UNL     1      -7.818   3.201 -33.555  1.00  0.00     0.170 HD
ENDROOT
BRANCH   1   6
HETATM    6  C   UNL     1      -5.052   1.973 -31.121  1.00  0.00     0.166 C 
BRANCH   6   7
HETATM    7  C   UNL     1      -4.472   0.675 -31.637  1.00  0.00    -0.037 A 
HETATM    8  C   UNL     1      -3.192   0.261 -31.249  1.00  0.00     0.009 A 
HETATM    9  C   UNL     1      -2.665  -0.941 -31.720  1.00  0.00     0.003 A 
HETATM   10  C   UNL     1      -3.408  -1.742 -32.590  1.00  0.00     0.037 A 
HETATM   11  C   UNL     1      -4.682  -1.344 -32.992  1.00  0.00     0.068 A 
HETATM   12  C   UNL     1      -5.209  -0.142 -32.507  1.00  0.00     0.045 A 
BRANCH  11  13
HETATM   13  O   UNL     1      -5.510  -2.030 -33.838  1.00  0.00    -0.356 OA
HETATM   14  C   UNL     1      -6.464  -1.262 -34.560  1.00  0.00     0.210 C 
ENDBRANCH  11  13
ENDBRANCH   6   7
ENDBRANCH   1   6
BRANCH   1  15
HETATM   15  C   UNL     1      -5.524   3.196 -33.231  1.00  0.00     0.089 A 
HETATM   16  C   UNL     1      -5.523   4.700 -33.372  1.00  0.00     0.027 A 
HETATM   17  C   UNL     1      -4.226   3.967 -33.240  1.00  0.00     0.027 A 
ENDBRANCH   1  15
BRANCH   4  18
HETATM   18  C   UNL     1      -9.603   2.330 -33.008  1.00  0.00     0.036 A 
HETATM   19  C   UNL     1     -10.110   1.130 -33.505  1.00  0.00     0.030 A 
HETATM   20  C   UNL     1     -11.492   0.942 -33.647  1.00  0.00     0.014 A 
HETATM   21  C   UNL     1     -12.394   1.953 -33.299  1.00  0.00    -0.023 A 
HETATM   22  C   UNL     1     -11.885   3.154 -32.795  1.00  0.00     0.014 A 
HETATM   23  C   UNL     1     -10.504   3.340 -32.653  1.00  0.00     0.030 A 
BRANCH  21  24
HETATM   24  C   UNL     1     -13.823   1.745 -33.459  1.00  0.00     0.010 A 
HETATM   25  C   UNL     1     -14.912   2.142 -32.646  1.00  0.00     0.152 A 
HETATM   26  N   UNL     1     -16.091   1.737 -33.125  1.00  0.00    -0.187 NA
HETATM   27  N   UNL     1     -15.763   1.069 -34.242  1.00  0.00    -0.289 N 
HETATM   28  H   UNL     1     -16.508   0.650 -34.787  1.00  0.00     0.188 HD
HETATM   29  C   UNL     1     -14.420   1.046 -34.487  1.00  0.00     0.123 A 
ENDBRANCH  21  24
ENDBRANCH   4  18
TORSDOF 6
ENDMDL
MODEL 8
REMARK VINA RESULT:      -7.2      5.653      8.452
REMARK  6 active torsions:
REMARK  status: ('A' for Active; 'I' for Inactive)
REMARK    1  A    between atoms: O_2  and  C_3 
REMARK    2  A    between atoms: C_7  and  C_8 
REMARK    3  A    between atoms: C_8  and  N_9 
REMARK    4  A    between atoms: N_9  and  C_10 
REMARK       I    between atoms: N_9  and  C_13 
REMARK       I    between atoms: C_13  and  N_15 
REMARK    5  A    between atoms: N_15  and  C_16 
REMARK    6  A    between atoms: C_19  and  C_22 
ROOT
HETATM    1  N   UNL     1      -7.875   0.109 -33.090  1.00  0.00    -0.325 N 
HETATM    2  C   UNL     1      -9.005   0.764 -32.567  1.00  0.00     0.323 C 
HETATM    3  O   UNL     1      -9.068   1.089 -31.383  1.00  0.00    -0.247 OA
HETATM    4  N   UNL     1     -10.010   0.980 -33.488  1.00  0.00    -0.309 N 
HETATM    5  H   UNL     1      -9.791   0.740 -34.440  1.00  0.00     0.170 HD
ENDROOT
BRANCH   1   6
HETATM    6  C   UNL     1      -6.857  -0.333 -32.132  1.00  0.00     0.166 C 
BRANCH   6   7
HETATM    7  C   UNL     1      -5.669   0.602 -32.075  1.00  0.00    -0.037 A 
HETATM    8  C   UNL     1      -4.440   0.165 -31.566  1.00  0.00     0.009 A 
HETATM    9  C   UNL     1      -3.346   1.027 -31.524  1.00  0.00     0.003 A 
HETATM   10  C   UNL     1      -3.466   2.340 -31.986  1.00  0.00     0.037 A 
HETATM   11  C   UNL     1      -4.684   2.795 -32.492  1.00  0.00     0.068 A 
HETATM   12  C   UNL     1      -5.775   1.922 -32.541  1.00  0.00     0.045 A 
BRANCH  11  13
HETATM   13  O   UNL     1      -4.937   4.051 -32.971  1.00  0.00    -0.356 OA
HETATM   14  C   UNL     1      -5.777   4.142 -34.115  1.00  0.00     0.210 C 
ENDBRANCH  11  13
ENDBRANCH   6   7
ENDBRANCH   1   6
BRANCH   1  15
HETATM   15  C   UNL     1      -7.784  -0.418 -34.435  1.00  0.00     0.089 A 
HETATM   16  C   UNL     1      -7.041   0.323 -35.521  1.00  0.00     0.027 A 
HETATM   17  C   UNL     1      -6.500  -0.971 -35.003  1.00  0.00     0.027 A 
ENDBRANCH   1  15
BRANCH   4  18
HETATM   18  C   UNL     1     -11.293   1.520 -33.266  1.00  0.00     0.036 A 
HETATM   19  C   UNL     1     -11.530   2.806 -32.784  1.00  0.00     0.030 A 
HETATM   20  C   UNL     1     -12.840   3.260 -32.570  1.00  0.00     0.014 A 
HETATM   21  C   UNL     1     -13.938   2.433 -32.830  1.00  0.00    -0.023 A 
HETATM   22  C   UNL     1     -13.699   1.144 -33.321  1.00  0.00     0.014 A 
HETATM   23  C   UNL     1     -12.390   0.694 -33.535  1.00  0.00     0.030 A 
BRANCH  21  24
HETATM   24  C   UNL     1     -15.288   2.915 -32.596  1.00  0.00     0.010 A 
HETATM   25  C   UNL     1     -15.753   4.151 -32.087  1.00  0.00     0.152 A 
HETATM   26  N   UNL     1     -17.085   4.208 -31.998  1.00  0.00    -0.187 NA
HETATM   27  N   UNL     1     -17.479   3.004 -32.442  1.00  0.00    -0.289 N 
HETATM   28  H   UNL     1     -18.472   2.801 -32.460  1.00  0.00     0.188 HD
HETATM   29  C   UNL     1     -16.444   2.195 -32.813  1.00  0.00     0.123 A 
ENDBRANCH  21  24
ENDBRANCH   4  18
TORSDOF 6
ENDMDL
MODEL 9
REMARK VINA RESULT:      -7.2      3.464      5.560
REMARK  6 active torsions:
REMARK  status: ('A' for Active; 'I' for Inactive)
REMARK    1  A    between atoms: O_2  and  C_3 
REMARK    2  A    between atoms: C_7  and  C_8 
REMARK    3  A    between atoms: C_8  and  N_9 
REMARK    4  A    between atoms: N_9  and  C_10 
REMARK       I    between atoms: N_9  and  C_13 
REMARK       I    between atoms: C_13  and  N_15 
REMARK    5  A    between atoms: N_15  and  C_16 
REMARK    6  A    between atoms: C_19  and  C_22 
ROOT
HETATM    1  N   UNL     1      -7.688   4.005 -31.777  1.00  0.00    -0.325 N 
HETATM    2  C   UNL     1      -7.741   2.623 -32.035  1.00  0.00     0.323 C 
HETATM    3  O   UNL     1      -8.657   1.924 -31.607  1.00  0.00    -0.247 OA
HETATM    4  N   UNL     1      -6.680   2.147 -32.779  1.00  0.00    -0.309 N 
HETATM    5  H   UNL     1      -6.047   2.842 -33.135  1.00  0.00     0.170 HD
ENDROOT
BRANCH   1   6
HETATM    6  C   UNL     1      -8.667   4.544 -30.827  1.00  0.00     0.166 C 
BRANCH   6   7
HETATM    7  C   UNL     1     -10.043   4.696 -31.436  1.00  0.00    -0.037 A 
HETATM    8  C   UNL     1     -11.178   4.229 -30.762  1.00  0.00     0.009 A 
HETATM    9  C   UNL     1     -12.445   4.380 -31.323  1.00  0.00     0.003 A 
HETATM   10  C   UNL     1     -12.595   4.994 -32.569  1.00  0.00     0.037 A 
HETATM   11  C   UNL     1     -11.475   5.461 -33.258  1.00  0.00     0.068 A 
HETATM   12  C   UNL     1     -10.208   5.316 -32.685  1.00  0.00     0.045 A 
BRANCH  11  13
HETATM   13  O   UNL     1     -11.482   6.075 -34.480  1.00  0.00    -0.356 OA
HETATM   14  C   UNL     1     -10.305   5.944 -35.267  1.00  0.00     0.210 C 
ENDBRANCH  11  13
ENDBRANCH   6   7
ENDBRANCH   1   6
BRANCH   1  15
HETATM   15  C   UNL     1      -6.579   4.863 -32.134  1.00  0.00     0.089 A 
HETATM   16  C   UNL     1      -6.530   5.570 -33.468  1.00  0.00     0.027 A 
HETATM   17  C   UNL     1      -6.709   6.365 -32.215  1.00  0.00     0.027 A 
ENDBRANCH   1  15
BRANCH   4  18
HETATM   18  C   UNL     1      -6.390   0.812 -33.125  1.00  0.00     0.036 A 
HETATM   19  C   UNL     1      -5.597  -0.043 -32.360  1.00  0.00     0.030 A 
HETATM   20  C   UNL     1      -5.339  -1.353 -32.788  1.00  0.00     0.014 A 
HETATM   21  C   UNL     1      -5.865  -1.833 -33.992  1.00  0.00    -0.023 A 
HETATM   22  C   UNL     1      -6.666  -0.977 -34.756  1.00  0.00     0.014 A 
HETATM   23  C   UNL     1      -6.924   0.332 -34.327  1.00  0.00     0.030 A 
BRANCH  21  24
HETATM   24  C   UNL     1      -5.582  -3.190 -34.425  1.00  0.00     0.010 A 
HETATM   25  C   UNL     1      -6.395  -4.136 -35.094  1.00  0.00     0.152 A 
HETATM   26  N   UNL     1      -5.775  -5.301 -35.300  1.00  0.00    -0.187 NA
HETATM   27  N   UNL     1      -4.563  -5.110 -34.756  1.00  0.00    -0.289 N 
HETATM   28  H   UNL     1      -3.898  -5.875 -34.782  1.00  0.00     0.188 HD
HETATM   29  C   UNL     1      -4.396  -3.864 -34.221  1.00  0.00     0.123 A 
ENDBRANCH  21  24
ENDBRANCH   4  18
TORSDOF 6
ENDMDL
MODEL 10
REMARK VINA RESULT:      -7.1      2.312      3.303
REMARK  6 active torsions:
REMARK  status: ('A' for Active; 'I' for Inactive)
REMARK    1  A    between atoms: O_2  and  C_3 
REMARK    2  A    between atoms: C_7  and  C_8 
REMARK    3  A    between atoms: C_8  and  N_9 
REMARK    4  A    between atoms: N_9  and  C_10 
REMARK       I    between atoms: N_9  and  C_13 
REMARK       I    between atoms: C_13  and  N_15 
REMARK    5  A    between atoms: N_15  and  C_16 
REMARK    6  A    between atoms: C_19  and  C_22 
ROOT
HETATM    1  N   UNL     1      -7.041   5.005 -32.868  1.00  0.00    -0.325 N 
HETATM    2  C   UNL     1      -6.413   3.758 -33.040  1.00  0.00     0.323 C 
HETATM    3  O   UNL     1      -5.197   3.628 -32.911  1.00  0.00    -0.247 OA
HETATM    4  N   UNL     1      -7.274   2.734 -33.378  1.00  0.00    -0.309 N 
HETATM    5  H   UNL     1      -8.253   2.963 -33.368  1.00  0.00     0.170 HD
ENDROOT
BRANCH   1   6
HETATM    6  C   UNL     1      -6.170   6.174 -32.709  1.00  0.00     0.166 C 
BRANCH   6   7
HETATM    7  C   UNL     1      -5.652   6.323 -31.296  1.00  0.00    -0.037 A 
HETATM    8  C   UNL     1      -4.279   6.433 -31.047  1.00  0.00     0.009 A 
HETATM    9  C   UNL     1      -3.807   6.579 -29.743  1.00  0.00     0.003 A 
HETATM   10  C   UNL     1      -4.701   6.612 -28.670  1.00  0.00     0.037 A 
HETATM   11  C   UNL     1      -6.072   6.500 -28.899  1.00  0.00     0.068 A 
HETATM   12  C   UNL     1      -6.540   6.363 -30.210  1.00  0.00     0.045 A 
BRANCH  11  13
HETATM   13  O   UNL     1      -7.051   6.514 -27.943  1.00  0.00    -0.356 OA
HETATM   14  C   UNL     1      -8.388   6.344 -28.395  1.00  0.00     0.210 C 
ENDBRANCH  11  13
ENDBRANCH   6   7
ENDBRANCH   1   6
BRANCH   1  15
HETATM   15  C   UNL     1      -8.440   5.261 -33.133  1.00  0.00     0.089 A 
HETATM   16  C   UNL     1      -9.465   5.247 -32.024  1.00  0.00     0.027 A 
HETATM   17  C   UNL     1      -9.127   6.535 -32.704  1.00  0.00     0.027 A 
ENDBRANCH   1  15
BRANCH   4  18
HETATM   18  C   UNL     1      -6.955   1.401 -33.708  1.00  0.00     0.036 A 
HETATM   19  C   UNL     1      -7.355   0.766 -34.883  1.00  0.00     0.030 A 
HETATM   20  C   UNL     1      -7.013  -0.572 -35.125  1.00  0.00     0.014 A 
HETATM   21  C   UNL     1      -6.267  -1.303 -34.194  1.00  0.00    -0.023 A 
HETATM   22  C   UNL     1      -5.861  -0.663 -33.018  1.00  0.00     0.014 A 
HETATM   23  C   UNL     1      -6.202   0.674 -32.778  1.00  0.00     0.030 A 
BRANCH  21  24
HETATM   24  C   UNL     1      -5.927  -2.690 -34.456  1.00  0.00     0.010 A 
HETATM   25  C   UNL     1      -6.722  -3.765 -34.924  1.00  0.00     0.152 A 
HETATM   26  N   UNL     1      -6.043  -4.911 -35.015  1.00  0.00    -0.187 NA
HETATM   27  N   UNL     1      -4.811  -4.579 -34.598  1.00  0.00    -0.289 N 
HETATM   28  H   UNL     1      -4.102  -5.303 -34.570  1.00  0.00     0.188 HD
HETATM   29  C   UNL     1      -4.690  -3.263 -34.254  1.00  0.00     0.123 A 
ENDBRANCH  21  24
ENDBRANCH   4  18
TORSDOF 6
ENDMDL
