MODEL 1
REMARK VINA RESULT:      -8.5      0.000      0.000
REMARK  8 active torsions:
REMARK  status: ('A' for Active; 'I' for Inactive)
REMARK    1  A    between atoms: C_9  and  S_10 
REMARK    2  A    between atoms: S_10  and  C_11 
REMARK    3  A    between atoms: C_11  and  C_12 
REMARK       I    between atoms: C_12  and  N_13 
REMARK    4  A    between atoms: N_13  and  C_14 
REMARK    5  A    between atoms: C_15  and  O_16 
REMARK    6  A    between atoms: C_19  and  O_20 
REMARK    7  A    between atoms: N_25  and  C_26 
REMARK    8  A    between atoms: C_33  and  N_34 
ROOT
HETATM    1  C   UNL     1      -4.056  -3.202 -33.831  1.00  0.00     0.073 C 
HETATM    2  C   UNL     1      -4.094  -2.093 -32.842  1.00  0.00     0.068 A 
HETATM    3  N   UNL     1      -3.032  -1.887 -32.055  1.00  0.00    -0.177 NA
HETATM    4  N   UNL     1      -3.373  -0.829 -31.305  1.00  0.00    -0.260 N 
HETATM    5  H   UNL     1      -2.710  -0.478 -30.620  1.00  0.00     0.191 HD
HETATM    6  C   UNL     1      -4.620  -0.355 -31.590  1.00  0.00     0.162 A 
HETATM    7  C   UNL     1      -5.139  -1.153 -32.587  1.00  0.00     0.081 A 
HETATM    8  N   UNL     1      -5.216   0.684 -31.008  1.00  0.00    -0.204 NA
HETATM    9  C   UNL     1      -6.449   0.917 -31.508  1.00  0.00     0.177 A 
HETATM   10  N   UNL     1      -7.035   0.191 -32.504  1.00  0.00    -0.276 N 
HETATM   11  C   UNL     1      -6.432  -0.895 -33.073  1.00  0.00     0.124 A 
ENDROOT
BRANCH   9  12
HETATM   12  S   UNL     1      -7.242   2.362 -30.790  1.00  0.00    -0.082 SA
BRANCH  12  13
HETATM   13  C   UNL     1      -6.467   3.671 -31.798  1.00  0.00     0.185 C 
BRANCH  13  14
HETATM   14  C   UNL     1      -5.281   4.248 -31.052  1.00  0.00     0.232 C 
HETATM   15  N   UNL     1      -4.474   5.044 -31.847  1.00  0.00    -0.324 N 
HETATM   16  H   UNL     1      -4.938   5.584 -32.565  1.00  0.00     0.169 HD
HETATM   17  O   UNL     1      -5.149   4.042 -29.848  1.00  0.00    -0.272 OA
BRANCH  15  18
HETATM   18  C   UNL     1      -3.159   5.443 -31.514  1.00  0.00     0.068 A 
HETATM   19  C   UNL     1      -2.015   5.036 -32.233  1.00  0.00     0.097 A 
HETATM   20  C   UNL     1      -0.748   5.482 -31.820  1.00  0.00     0.075 A 
HETATM   21  C   UNL     1      -0.619   6.351 -30.734  1.00  0.00     0.070 A 
HETATM   22  C   UNL     1      -1.762   6.797 -30.072  1.00  0.00     0.039 A 
HETATM   23  C   UNL     1      -3.025   6.357 -30.464  1.00  0.00     0.035 A 
BRANCH  19  24
HETATM   24  O   UNL     1      -2.231   4.307 -33.376  1.00  0.00    -0.354 OA
HETATM   25  C   UNL     1      -1.981   4.936 -34.626  1.00  0.00     0.210 C 
ENDBRANCH  19  24
BRANCH  21  26
HETATM   26  O   UNL     1       0.553   6.859 -30.243  1.00  0.00    -0.356 OA
HETATM   27  C   UNL     1       0.483   7.600 -29.031  1.00  0.00     0.210 C 
ENDBRANCH  21  26
ENDBRANCH  15  18
ENDBRANCH  13  14
ENDBRANCH  12  13
ENDBRANCH   9  12
BRANCH  10  28
HETATM   28  C   UNL     1      -8.313   0.600 -33.024  1.00  0.00     0.043 A 
HETATM   29  C   UNL     1      -8.341   1.532 -34.066  1.00  0.00     0.031 A 
HETATM   30  C   UNL     1      -9.572   1.886 -34.620  1.00  0.00     0.021 A 
HETATM   31  C   UNL     1     -10.745   1.304 -34.132  1.00  0.00     0.011 A 
HETATM   32 BR   UNL     1     -12.408   1.782 -34.892  1.00  0.00    -0.051 Br
HETATM   33  C   UNL     1     -10.703   0.367 -33.095  1.00  0.00     0.021 A 
HETATM   34  C   UNL     1      -9.476   0.000 -32.534  1.00  0.00     0.031 A 
ENDBRANCH  10  28
BRANCH  11  35
HETATM   35  N   UNL     1      -7.037  -1.674 -34.053  1.00  0.00    -0.384 N 
HETATM   36  H   UNL     1      -6.673  -1.707 -34.999  1.00  0.00     0.157 HD
HETATM   37  H   UNL     1      -8.037  -1.832 -33.993  1.00  0.00     0.157 HD
ENDBRANCH  11  35
TORSDOF 8
ENDMDL
MODEL 2
REMARK VINA RESULT:      -8.4      4.097      8.016
REMARK  8 active torsions:
REMARK  status: ('A' for Active; 'I' for Inactive)
REMARK    1  A    between atoms: C_9  and  S_10 
REMARK    2  A    between atoms: S_10  and  C_11 
REMARK    3  A    between atoms: C_11  and  C_12 
REMARK       I    between atoms: C_12  and  N_13 
REMARK    4  A    between atoms: N_13  and  C_14 
REMARK    5  A    between atoms: C_15  and  O_16 
REMARK    6  A    between atoms: C_19  and  O_20 
REMARK    7  A    between atoms: N_25  and  C_26 
REMARK    8  A    between atoms: C_33  and  N_34 
ROOT
HETATM    1  C   UNL     1      -2.621  -3.516 -31.624  1.00  0.00     0.073 C 
HETATM    2  C   UNL     1      -3.554  -2.995 -32.656  1.00  0.00     0.068 A 
HETATM    3  N   UNL     1      -3.893  -3.784 -33.683  1.00  0.00    -0.177 NA
HETATM    4  N   UNL     1      -4.739  -3.041 -34.410  1.00  0.00    -0.260 N 
HETATM    5  H   UNL     1      -5.140  -3.437 -35.255  1.00  0.00     0.191 HD
HETATM    6  C   UNL     1      -4.950  -1.801 -33.879  1.00  0.00     0.162 A 
HETATM    7  C   UNL     1      -4.190  -1.718 -32.731  1.00  0.00     0.081 A 
HETATM    8  N   UNL     1      -5.741  -0.856 -34.382  1.00  0.00    -0.204 NA
HETATM    9  C   UNL     1      -5.749   0.264 -33.627  1.00  0.00     0.177 A 
HETATM   10  N   UNL     1      -5.044   0.428 -32.470  1.00  0.00    -0.276 N 
HETATM   11  C   UNL     1      -4.208  -0.533 -31.978  1.00  0.00     0.124 A 
ENDROOT
BRANCH   9  12
HETATM   12  S   UNL     1      -6.870   1.527 -34.248  1.00  0.00    -0.082 SA
BRANCH  12  13
HETATM   13  C   UNL     1      -8.205   0.463 -34.892  1.00  0.00     0.185 C 
BRANCH  13  14
HETATM   14  C   UNL     1      -9.433   0.605 -34.017  1.00  0.00     0.232 C 
HETATM   15  N   UNL     1     -10.448   1.328 -34.618  1.00  0.00    -0.324 N 
HETATM   16  H   UNL     1     -10.544   1.225 -35.620  1.00  0.00     0.169 HD
HETATM   17  O   UNL     1      -9.477   0.053 -32.920  1.00  0.00    -0.272 OA
BRANCH  15  18
HETATM   18  C   UNL     1     -11.558   1.880 -33.936  1.00  0.00     0.068 A 
HETATM   19  C   UNL     1     -11.555   3.167 -33.356  1.00  0.00     0.097 A 
HETATM   20  C   UNL     1     -12.706   3.624 -32.693  1.00  0.00     0.075 A 
HETATM   21  C   UNL     1     -13.858   2.835 -32.639  1.00  0.00     0.070 A 
HETATM   22  C   UNL     1     -13.869   1.593 -33.273  1.00  0.00     0.039 A 
HETATM   23  C   UNL     1     -12.732   1.120 -33.927  1.00  0.00     0.035 A 
BRANCH  19  24
HETATM   24  O   UNL     1     -10.445   3.942 -33.578  1.00  0.00    -0.354 OA
HETATM   25  C   UNL     1     -10.482   4.868 -34.656  1.00  0.00     0.210 C 
ENDBRANCH  19  24
BRANCH  21  26
HETATM   26  O   UNL     1     -15.038   3.171 -32.034  1.00  0.00    -0.356 OA
HETATM   27  C   UNL     1     -16.133   2.278 -32.202  1.00  0.00     0.210 C 
ENDBRANCH  21  26
ENDBRANCH  15  18
ENDBRANCH  13  14
ENDBRANCH  12  13
ENDBRANCH   9  12
BRANCH  10  28
HETATM   28  C   UNL     1      -5.215   1.631 -31.700  1.00  0.00     0.043 A 
HETATM   29  C   UNL     1      -6.216   1.661 -30.723  1.00  0.00     0.031 A 
HETATM   30  C   UNL     1      -6.346   2.799 -29.926  1.00  0.00     0.021 A 
HETATM   31  C   UNL     1      -5.480   3.879 -30.113  1.00  0.00     0.011 A 
HETATM   32 BR   UNL     1      -5.657   5.414 -29.025  1.00  0.00    -0.051 Br
HETATM   33  C   UNL     1      -4.478   3.835 -31.088  1.00  0.00     0.021 A 
HETATM   34  C   UNL     1      -4.333   2.699 -31.889  1.00  0.00     0.031 A 
ENDBRANCH  10  28
BRANCH  11  35
HETATM   35  N   UNL     1      -3.445  -0.360 -30.828  1.00  0.00    -0.384 N 
HETATM   36  H   UNL     1      -2.447  -0.541 -30.825  1.00  0.00     0.157 HD
HETATM   37  H   UNL     1      -3.892  -0.507 -29.928  1.00  0.00     0.157 HD
ENDBRANCH  11  35
TORSDOF 8
ENDMDL
MODEL 3
REMARK VINA RESULT:      -8.4      4.435      7.618
REMARK  8 active torsions:
REMARK  status: ('A' for Active; 'I' for Inactive)
REMARK    1  A    between atoms: C_9  and  S_10 
REMARK    2  A    between atoms: S_10  and  C_11 
REMARK    3  A    between atoms: C_11  and  C_12 
REMARK       I    between atoms: C_12  and  N_13 
REMARK    4  A    between atoms: N_13  and  C_14 
REMARK    5  A    between atoms: C_15  and  O_16 
REMARK    6  A    between atoms: C_19  and  O_20 
REMARK    7  A    between atoms: N_25  and  C_26 
REMARK    8  A    between atoms: C_33  and  N_34 
ROOT
HETATM    1  C   UNL     1     -14.914   0.628 -34.175  1.00  0.00     0.073 C 
HETATM    2  C   UNL     1     -13.485   0.494 -33.791  1.00  0.00     0.068 A 
HETATM    3  N   UNL     1     -13.009  -0.715 -33.470  1.00  0.00    -0.177 NA
HETATM    4  N   UNL     1     -11.715  -0.501 -33.193  1.00  0.00    -0.260 N 
HETATM    5  H   UNL     1     -11.133  -1.289 -32.921  1.00  0.00     0.191 HD
HETATM    6  C   UNL     1     -11.351   0.807 -33.326  1.00  0.00     0.162 A 
HETATM    7  C   UNL     1     -12.477   1.504 -33.711  1.00  0.00     0.081 A 
HETATM    8  N   UNL     1     -10.135   1.308 -33.121  1.00  0.00    -0.204 NA
HETATM    9  C   UNL     1     -10.083   2.641 -33.340  1.00  0.00     0.177 A 
HETATM   10  N   UNL     1     -11.141   3.406 -33.737  1.00  0.00    -0.276 N 
HETATM   11  C   UNL     1     -12.394   2.891 -33.913  1.00  0.00     0.124 A 
ENDROOT
BRANCH   9  12
HETATM   12  S   UNL     1      -8.432   3.326 -33.142  1.00  0.00    -0.082 SA
BRANCH  12  13
HETATM   13  C   UNL     1      -8.030   2.686 -31.481  1.00  0.00     0.185 C 
BRANCH  13  14
HETATM   14  C   UNL     1      -7.226   1.408 -31.612  1.00  0.00     0.232 C 
HETATM   15  N   UNL     1      -6.731   1.206 -32.888  1.00  0.00    -0.324 N 
HETATM   16  H   UNL     1      -6.464   2.033 -33.407  1.00  0.00     0.169 HD
HETATM   17  O   UNL     1      -7.021   0.705 -30.626  1.00  0.00    -0.272 OA
BRANCH  15  18
HETATM   18  C   UNL     1      -6.231  -0.025 -33.373  1.00  0.00     0.068 A 
HETATM   19  C   UNL     1      -4.880  -0.416 -33.261  1.00  0.00     0.097 A 
HETATM   20  C   UNL     1      -4.478  -1.658 -33.780  1.00  0.00     0.075 A 
HETATM   21  C   UNL     1      -5.409  -2.518 -34.368  1.00  0.00     0.070 A 
HETATM   22  C   UNL     1      -6.752  -2.148 -34.415  1.00  0.00     0.039 A 
HETATM   23  C   UNL     1      -7.165  -0.915 -33.912  1.00  0.00     0.035 A 
BRANCH  19  24
HETATM   24  O   UNL     1      -4.056   0.411 -32.539  1.00  0.00    -0.354 OA
HETATM   25  C   UNL     1      -3.487  -0.096 -31.338  1.00  0.00     0.210 C 
ENDBRANCH  19  24
BRANCH  21  26
HETATM   26  O   UNL     1      -5.144  -3.750 -34.900  1.00  0.00    -0.356 OA
HETATM   27  C   UNL     1      -4.193  -4.562 -34.221  1.00  0.00     0.210 C 
ENDBRANCH  21  26
ENDBRANCH  15  18
ENDBRANCH  13  14
ENDBRANCH  12  13
ENDBRANCH   9  12
BRANCH  10  28
HETATM   28  C   UNL     1     -10.937   4.798 -34.038  1.00  0.00     0.043 A 
HETATM   29  C   UNL     1     -10.579   5.153 -35.343  1.00  0.00     0.031 A 
HETATM   30  C   UNL     1     -10.444   6.505 -35.659  1.00  0.00     0.021 A 
HETATM   31  C   UNL     1     -10.669   7.473 -34.678  1.00  0.00     0.011 A 
HETATM   32 BR   UNL     1     -10.490   9.303 -35.116  1.00  0.00    -0.051 Br
HETATM   33  C   UNL     1     -11.033   7.106 -33.378  1.00  0.00     0.021 A 
HETATM   34  C   UNL     1     -11.177   5.756 -33.049  1.00  0.00     0.031 A 
ENDBRANCH  10  28
BRANCH  11  35
HETATM   35  N   UNL     1     -13.491   3.667 -34.269  1.00  0.00    -0.384 N 
HETATM   36  H   UNL     1     -13.623   3.988 -35.222  1.00  0.00     0.157 HD
HETATM   37  H   UNL     1     -13.892   4.284 -33.570  1.00  0.00     0.157 HD
ENDBRANCH  11  35
TORSDOF 8
ENDMDL
MODEL 4
REMARK VINA RESULT:      -8.1      2.911      6.716
REMARK  8 active torsions:
REMARK  status: ('A' for Active; 'I' for Inactive)
REMARK    1  A    between atoms: C_9  and  S_10 
REMARK    2  A    between atoms: S_10  and  C_11 
REMARK    3  A    between atoms: C_11  and  C_12 
REMARK       I    between atoms: C_12  and  N_13 
REMARK    4  A    between atoms: N_13  and  C_14 
REMARK    5  A    between atoms: C_15  and  O_16 
REMARK    6  A    between atoms: C_19  and  O_20 
REMARK    7  A    between atoms: N_25  and  C_26 
REMARK    8  A    between atoms: C_33  and  N_34 
ROOT
HETATM    1  C   UNL     1      -1.468   5.513 -34.519  1.00  0.00     0.073 C 
HETATM    2  C   UNL     1      -2.026   4.962 -33.256  1.00  0.00     0.068 A 
HETATM    3  N   UNL     1      -1.215   4.803 -32.203  1.00  0.00    -0.177 NA
HETATM    4  N   UNL     1      -2.011   4.312 -31.242  1.00  0.00    -0.260 N 
HETATM    5  H   UNL     1      -1.612   4.110 -30.329  1.00  0.00     0.191 HD
HETATM    6  C   UNL     1      -3.303   4.152 -31.650  1.00  0.00     0.162 A 
HETATM    7  C   UNL     1      -3.365   4.557 -32.966  1.00  0.00     0.081 A 
HETATM    8  N   UNL     1      -4.308   3.690 -30.910  1.00  0.00    -0.204 NA
HETATM    9  C   UNL     1      -5.474   3.652 -31.591  1.00  0.00     0.177 A 
HETATM   10  N   UNL     1      -5.632   4.048 -32.887  1.00  0.00    -0.276 N 
HETATM   11  C   UNL     1      -4.589   4.489 -33.651  1.00  0.00     0.124 A 
ENDROOT
BRANCH   9  12
HETATM   12  S   UNL     1      -6.861   3.101 -30.587  1.00  0.00    -0.082 SA
BRANCH  12  13
HETATM   13  C   UNL     1      -6.023   1.839 -29.570  1.00  0.00     0.185 C 
BRANCH  13  14
HETATM   14  C   UNL     1      -5.992   0.523 -30.320  1.00  0.00     0.232 C 
HETATM   15  N   UNL     1      -5.345   0.609 -31.540  1.00  0.00    -0.324 N 
HETATM   16  H   UNL     1      -4.561   1.246 -31.593  1.00  0.00     0.169 HD
HETATM   17  O   UNL     1      -6.456  -0.491 -29.806  1.00  0.00    -0.272 OA
BRANCH  15  18
HETATM   18  C   UNL     1      -5.440  -0.354 -32.572  1.00  0.00     0.068 A 
HETATM   19  C   UNL     1      -4.319  -0.946 -33.192  1.00  0.00     0.097 A 
HETATM   20  C   UNL     1      -4.517  -1.889 -34.213  1.00  0.00     0.075 A 
HETATM   21  C   UNL     1      -5.807  -2.272 -34.590  1.00  0.00     0.070 A 
HETATM   22  C   UNL     1      -6.905  -1.727 -33.926  1.00  0.00     0.039 A 
HETATM   23  C   UNL     1      -6.726  -0.783 -32.916  1.00  0.00     0.035 A 
BRANCH  19  24
HETATM   24  O   UNL     1      -3.089  -0.636 -32.668  1.00  0.00    -0.354 OA
HETATM   25  C   UNL     1      -2.534  -1.517 -31.701  1.00  0.00     0.210 C 
ENDBRANCH  19  24
BRANCH  21  26
HETATM   26  O   UNL     1      -6.127  -3.181 -35.560  1.00  0.00    -0.356 OA
HETATM   27  C   UNL     1      -6.670  -4.425 -35.132  1.00  0.00     0.210 C 
ENDBRANCH  21  26
ENDBRANCH  15  18
ENDBRANCH  13  14
ENDBRANCH  12  13
ENDBRANCH   9  12
BRANCH  10  28
HETATM   28  C   UNL     1      -6.946   4.057 -33.472  1.00  0.00     0.043 A 
HETATM   29  C   UNL     1      -7.514   2.838 -33.856  1.00  0.00     0.031 A 
HETATM   30  C   UNL     1      -8.813   2.830 -34.364  1.00  0.00     0.021 A 
HETATM   31  C   UNL     1      -9.521   4.029 -34.475  1.00  0.00     0.011 A 
HETATM   32 BR   UNL     1     -11.284   4.009 -35.156  1.00  0.00    -0.051 Br
HETATM   33  C   UNL     1      -8.946   5.241 -34.080  1.00  0.00     0.021 A 
HETATM   34  C   UNL     1      -7.647   5.263 -33.565  1.00  0.00     0.031 A 
ENDBRANCH  10  28
BRANCH  11  35
HETATM   35  N   UNL     1      -4.725   4.849 -34.988  1.00  0.00    -0.384 N 
HETATM   36  H   UNL     1      -4.110   4.472 -35.701  1.00  0.00     0.157 HD
HETATM   37  H   UNL     1      -5.085   5.773 -35.203  1.00  0.00     0.157 HD
ENDBRANCH  11  35
TORSDOF 8
ENDMDL
MODEL 5
REMARK VINA RESULT:      -8.0      4.206      7.519
REMARK  8 active torsions:
REMARK  status: ('A' for Active; 'I' for Inactive)
REMARK    1  A    between atoms: C_9  and  S_10 
REMARK    2  A    between atoms: S_10  and  C_11 
REMARK    3  A    between atoms: C_11  and  C_12 
REMARK       I    between atoms: C_12  and  N_13 
REMARK    4  A    between atoms: N_13  and  C_14 
REMARK    5  A    between atoms: C_15  and  O_16 
REMARK    6  A    between atoms: C_19  and  O_20 
REMARK    7  A    between atoms: N_25  and  C_26 
REMARK    8  A    between atoms: C_33  and  N_34 
ROOT
HETATM    1  C   UNL     1      -2.755  -3.779 -31.980  1.00  0.00     0.073 C 
HETATM    2  C   UNL     1      -3.741  -3.297 -32.983  1.00  0.00     0.068 A 
HETATM    3  N   UNL     1      -4.105  -4.111 -33.980  1.00  0.00    -0.177 NA
HETATM    4  N   UNL     1      -4.995  -3.398 -34.685  1.00  0.00    -0.260 N 
HETATM    5  H   UNL     1      -5.422  -3.818 -35.506  1.00  0.00     0.191 HD
HETATM    6  C   UNL     1      -5.209  -2.154 -34.168  1.00  0.00     0.162 A 
HETATM    7  C   UNL     1      -4.406  -2.034 -33.054  1.00  0.00     0.081 A 
HETATM    8  N   UNL     1      -6.039  -1.234 -34.654  1.00  0.00    -0.204 NA
HETATM    9  C   UNL     1      -6.040  -0.100 -33.920  1.00  0.00     0.177 A 
HETATM   10  N   UNL     1      -5.292   0.100 -32.797  1.00  0.00    -0.276 N 
HETATM   11  C   UNL     1      -4.417  -0.835 -32.322  1.00  0.00     0.124 A 
ENDROOT
BRANCH   9  12
HETATM   12  S   UNL     1      -7.211   1.128 -34.516  1.00  0.00    -0.082 SA
BRANCH  12  13
HETATM   13  C   UNL     1      -8.766   0.392 -33.905  1.00  0.00     0.185 C 
BRANCH  13  14
HETATM   14  C   UNL     1      -9.819   1.473 -33.772  1.00  0.00     0.232 C 
HETATM   15  N   UNL     1     -10.111   2.099 -34.971  1.00  0.00    -0.324 N 
HETATM   16  H   UNL     1     -10.071   1.524 -35.803  1.00  0.00     0.169 HD
HETATM   17  O   UNL     1     -10.362   1.674 -32.688  1.00  0.00    -0.272 OA
BRANCH  15  18
HETATM   18  C   UNL     1     -10.800   3.328 -35.092  1.00  0.00     0.068 A 
HETATM   19  C   UNL     1     -12.144   3.431 -35.507  1.00  0.00     0.097 A 
HETATM   20  C   UNL     1     -12.739   4.700 -35.602  1.00  0.00     0.075 A 
HETATM   21  C   UNL     1     -12.026   5.849 -35.252  1.00  0.00     0.070 A 
HETATM   22  C   UNL     1     -10.719   5.728 -34.782  1.00  0.00     0.039 A 
HETATM   23  C   UNL     1     -10.111   4.477 -34.690  1.00  0.00     0.035 A 
BRANCH  19  24
HETATM   24  O   UNL     1     -12.826   2.254 -35.688  1.00  0.00    -0.354 OA
HETATM   25  C   UNL     1     -13.581   1.745 -34.596  1.00  0.00     0.210 C 
ENDBRANCH  19  24
BRANCH  21  26
HETATM   26  O   UNL     1     -12.495   7.133 -35.294  1.00  0.00    -0.356 OA
HETATM   27  C   UNL     1     -11.881   8.021 -36.221  1.00  0.00     0.210 C 
ENDBRANCH  21  26
ENDBRANCH  15  18
ENDBRANCH  13  14
ENDBRANCH  12  13
ENDBRANCH   9  12
BRANCH  10  28
HETATM   28  C   UNL     1      -5.456   1.313 -32.041  1.00  0.00     0.043 A 
HETATM   29  C   UNL     1      -6.410   1.338 -31.019  1.00  0.00     0.031 A 
HETATM   30  C   UNL     1      -6.531   2.488 -30.238  1.00  0.00     0.021 A 
HETATM   31  C   UNL     1      -5.701   3.584 -30.485  1.00  0.00     0.011 A 
HETATM   32 BR   UNL     1      -5.865   5.136 -29.419  1.00  0.00    -0.051 Br
HETATM   33  C   UNL     1      -4.745   3.545 -31.506  1.00  0.00     0.021 A 
HETATM   34  C   UNL     1      -4.611   2.398 -32.292  1.00  0.00     0.031 A 
ENDBRANCH  10  28
BRANCH  11  35
HETATM   35  N   UNL     1      -3.612  -0.626 -31.208  1.00  0.00    -0.384 N 
HETATM   36  H   UNL     1      -3.551   0.283 -30.763  1.00  0.00     0.157 HD
HETATM   37  H   UNL     1      -2.772  -1.188 -31.109  1.00  0.00     0.157 HD
ENDBRANCH  11  35
TORSDOF 8
ENDMDL
MODEL 6
REMARK VINA RESULT:      -8.0      3.097      5.190
REMARK  8 active torsions:
REMARK  status: ('A' for Active; 'I' for Inactive)
REMARK    1  A    between atoms: C_9  and  S_10 
REMARK    2  A    between atoms: S_10  and  C_11 
REMARK    3  A    between atoms: C_11  and  C_12 
REMARK       I    between atoms: C_12  and  N_13 
REMARK    4  A    between atoms: N_13  and  C_14 
REMARK    5  A    between atoms: C_15  and  O_16 
REMARK    6  A    between atoms: C_19  and  O_20 
REMARK    7  A    between atoms: N_25  and  C_26 
REMARK    8  A    between atoms: C_33  and  N_34 
ROOT
HETATM    1  C   UNL     1      -9.476   6.048 -29.813  1.00  0.00     0.073 C 
HETATM    2  C   UNL     1      -7.994   5.952 -29.849  1.00  0.00     0.068 A 
HETATM    3  N   UNL     1      -7.266   6.892 -29.234  1.00  0.00    -0.177 NA
HETATM    4  N   UNL     1      -5.996   6.516 -29.437  1.00  0.00    -0.260 N 
HETATM    5  H   UNL     1      -5.247   7.085 -29.052  1.00  0.00     0.191 HD
HETATM    6  C   UNL     1      -5.890   5.365 -30.162  1.00  0.00     0.162 A 
HETATM    7  C   UNL     1      -7.172   4.958 -30.464  1.00  0.00     0.081 A 
HETATM    8  N   UNL     1      -4.758   4.758 -30.509  1.00  0.00    -0.204 NA
HETATM    9  C   UNL     1      -4.975   3.632 -31.223  1.00  0.00     0.177 A 
HETATM   10  N   UNL     1      -6.206   3.145 -31.552  1.00  0.00    -0.276 N 
HETATM   11  C   UNL     1      -7.363   3.791 -31.222  1.00  0.00     0.124 A 
ENDROOT
BRANCH   9  12
HETATM   12  S   UNL     1      -3.461   2.754 -31.638  1.00  0.00    -0.082 SA
BRANCH  12  13
HETATM   13  C   UNL     1      -2.815   3.855 -32.943  1.00  0.00     0.185 C 
BRANCH  13  14
HETATM   14  C   UNL     1      -1.731   4.742 -32.367  1.00  0.00     0.232 C 
HETATM   15  N   UNL     1      -1.795   4.853 -30.989  1.00  0.00    -0.324 N 
HETATM   16  H   UNL     1      -2.108   4.034 -30.483  1.00  0.00     0.169 HD
HETATM   17  O   UNL     1      -0.876   5.228 -33.103  1.00  0.00    -0.272 OA
BRANCH  15  18
HETATM   18  C   UNL     1      -1.129   5.842 -30.228  1.00  0.00     0.068 A 
HETATM   19  C   UNL     1      -1.671   7.118 -29.961  1.00  0.00     0.097 A 
HETATM   20  C   UNL     1      -0.928   8.035 -29.201  1.00  0.00     0.075 A 
HETATM   21  C   UNL     1       0.318   7.682 -28.677  1.00  0.00     0.070 A 
HETATM   22  C   UNL     1       0.813   6.397 -28.893  1.00  0.00     0.039 A 
HETATM   23  C   UNL     1       0.093   5.478 -29.654  1.00  0.00     0.035 A 
BRANCH  19  24
HETATM   24  O   UNL     1      -2.960   7.340 -30.379  1.00  0.00    -0.354 OA
HETATM   25  C   UNL     1      -3.158   8.146 -31.533  1.00  0.00     0.210 C 
ENDBRANCH  19  24
BRANCH  21  26
HETATM   26  O   UNL     1       1.129   8.480 -27.918  1.00  0.00    -0.356 OA
HETATM   27  C   UNL     1       1.616   7.938 -26.695  1.00  0.00     0.210 C 
ENDBRANCH  21  26
ENDBRANCH  15  18
ENDBRANCH  13  14
ENDBRANCH  12  13
ENDBRANCH   9  12
BRANCH  10  28
HETATM   28  C   UNL     1      -6.311   1.878 -32.227  1.00  0.00     0.043 A 
HETATM   29  C   UNL     1      -6.303   1.866 -33.626  1.00  0.00     0.031 A 
HETATM   30  C   UNL     1      -6.338   0.638 -34.289  1.00  0.00     0.021 A 
HETATM   31  C   UNL     1      -6.379  -0.547 -33.551  1.00  0.00     0.011 A 
HETATM   32 BR   UNL     1      -6.420  -2.206 -34.456  1.00  0.00    -0.051 Br
HETATM   33  C   UNL     1      -6.380  -0.522 -32.153  1.00  0.00     0.021 A 
HETATM   34  C   UNL     1      -6.339   0.700 -31.476  1.00  0.00     0.031 A 
ENDBRANCH  10  28
BRANCH  11  35
HETATM   35  N   UNL     1      -8.623   3.333 -31.594  1.00  0.00    -0.384 N 
HETATM   36  H   UNL     1      -9.421   3.957 -31.630  1.00  0.00     0.157 HD
HETATM   37  H   UNL     1      -8.864   2.369 -31.388  1.00  0.00     0.157 HD
ENDBRANCH  11  35
TORSDOF 8
ENDMDL
MODEL 7
REMARK VINA RESULT:      -7.9      3.237      5.402
REMARK  8 active torsions:
REMARK  status: ('A' for Active; 'I' for Inactive)
REMARK    1  A    between atoms: C_9  and  S_10 
REMARK    2  A    between atoms: S_10  and  C_11 
REMARK    3  A    between atoms: C_11  and  C_12 
REMARK       I    between atoms: C_12  and  N_13 
REMARK    4  A    between atoms: N_13  and  C_14 
REMARK    5  A    between atoms: C_15  and  O_16 
REMARK    6  A    between atoms: C_19  and  O_20 
REMARK    7  A    between atoms: N_25  and  C_26 
REMARK    8  A    between atoms: C_33  and  N_34 
ROOT
HETATM    1  C   UNL     1     -13.448  -0.280 -33.567  1.00  0.00     0.073 C 
HETATM    2  C   UNL     1     -12.862   1.041 -33.914  1.00  0.00     0.068 A 
HETATM    3  N   UNL     1     -13.653   1.987 -34.433  1.00  0.00    -0.177 NA
HETATM    4  N   UNL     1     -12.841   3.038 -34.615  1.00  0.00    -0.260 N 
HETATM    5  H   UNL     1     -13.225   3.895 -35.004  1.00  0.00     0.191 HD
HETATM    6  C   UNL     1     -11.556   2.791 -34.229  1.00  0.00     0.162 A 
HETATM    7  C   UNL     1     -11.514   1.493 -33.768  1.00  0.00     0.081 A 
HETATM    8  N   UNL     1     -10.540   3.648 -34.291  1.00  0.00    -0.204 NA
HETATM    9  C   UNL     1      -9.387   3.115 -33.830  1.00  0.00     0.177 A 
HETATM   10  N   UNL     1      -9.257   1.849 -33.340  1.00  0.00    -0.276 N 
HETATM   11  C   UNL     1     -10.296   0.963 -33.311  1.00  0.00     0.124 A 
ENDROOT
BRANCH   9  12
HETATM   12  S   UNL     1      -8.017   4.281 -33.834  1.00  0.00    -0.082 SA
BRANCH  12  13
HETATM   13  C   UNL     1      -8.277   5.066 -32.207  1.00  0.00     0.185 C 
BRANCH  13  14
HETATM   14  C   UNL     1      -6.961   5.128 -31.459  1.00  0.00     0.232 C 
HETATM   15  N   UNL     1      -5.896   5.494 -32.262  1.00  0.00    -0.324 N 
HETATM   16  H   UNL     1      -6.094   6.154 -33.004  1.00  0.00     0.169 HD
HETATM   17  O   UNL     1      -6.930   4.925 -30.247  1.00  0.00    -0.272 OA
BRANCH  15  18
HETATM   18  C   UNL     1      -4.534   5.327 -31.920  1.00  0.00     0.068 A 
HETATM   19  C   UNL     1      -3.791   6.279 -31.190  1.00  0.00     0.097 A 
HETATM   20  C   UNL     1      -2.439   6.024 -30.905  1.00  0.00     0.075 A 
HETATM   21  C   UNL     1      -1.841   4.826 -31.302  1.00  0.00     0.070 A 
HETATM   22  C   UNL     1      -2.603   3.866 -31.967  1.00  0.00     0.039 A 
HETATM   23  C   UNL     1      -3.943   4.107 -32.266  1.00  0.00     0.035 A 
BRANCH  19  24
HETATM   24  O   UNL     1      -4.482   7.360 -30.702  1.00  0.00    -0.354 OA
HETATM   25  C   UNL     1      -4.065   8.657 -31.108  1.00  0.00     0.210 C 
ENDBRANCH  19  24
BRANCH  21  26
HETATM   26  O   UNL     1      -0.542   4.459 -31.078  1.00  0.00    -0.356 OA
HETATM   27  C   UNL     1       0.178   5.187 -30.091  1.00  0.00     0.210 C 
ENDBRANCH  21  26
ENDBRANCH  15  18
ENDBRANCH  13  14
ENDBRANCH  12  13
ENDBRANCH   9  12
BRANCH  10  28
HETATM   28  C   UNL     1      -7.999   1.429 -32.781  1.00  0.00     0.043 A 
HETATM   29  C   UNL     1      -7.006   0.964 -33.648  1.00  0.00     0.031 A 
HETATM   30  C   UNL     1      -5.761   0.617 -33.123  1.00  0.00     0.021 A 
HETATM   31  C   UNL     1      -5.528   0.742 -31.751  1.00  0.00     0.011 A 
HETATM   32 BR   UNL     1      -3.837   0.277 -31.048  1.00  0.00    -0.051 Br
HETATM   33  C   UNL     1      -6.527   1.215 -30.894  1.00  0.00     0.021 A 
HETATM   34  C   UNL     1      -7.777   1.571 -31.408  1.00  0.00     0.031 A 
ENDBRANCH  10  28
BRANCH  11  35
HETATM   35  N   UNL     1     -10.167  -0.347 -32.861  1.00  0.00    -0.384 N 
HETATM   36  H   UNL     1     -10.897  -1.033 -33.017  1.00  0.00     0.157 HD
HETATM   37  H   UNL     1      -9.617  -0.516 -32.024  1.00  0.00     0.157 HD
ENDBRANCH  11  35
TORSDOF 8
ENDMDL
MODEL 8
REMARK VINA RESULT:      -7.8      3.448      8.010
REMARK  8 active torsions:
REMARK  status: ('A' for Active; 'I' for Inactive)
REMARK    1  A    between atoms: C_9  and  S_10 
REMARK    2  A    between atoms: S_10  and  C_11 
REMARK    3  A    between atoms: C_11  and  C_12 
REMARK       I    between atoms: C_12  and  N_13 
REMARK    4  A    between atoms: N_13  and  C_14 
REMARK    5  A    between atoms: C_15  and  O_16 
REMARK    6  A    between atoms: C_19  and  O_20 
REMARK    7  A    between atoms: N_25  and  C_26 
REMARK    8  A    between atoms: C_33  and  N_34 
ROOT
HETATM    1  C   UNL     1      -1.102   7.416 -32.477  1.00  0.00     0.073 C 
HETATM    2  C   UNL     1      -1.895   6.181 -32.714  1.00  0.00     0.068 A 
HETATM    3  N   UNL     1      -1.364   5.200 -33.453  1.00  0.00    -0.177 NA
HETATM    4  N   UNL     1      -2.304   4.244 -33.464  1.00  0.00    -0.260 N 
HETATM    5  H   UNL     1      -2.124   3.382 -33.970  1.00  0.00     0.191 HD
HETATM    6  C   UNL     1      -3.419   4.586 -32.755  1.00  0.00     0.162 A 
HETATM    7  C   UNL     1      -3.205   5.850 -32.248  1.00  0.00     0.081 A 
HETATM    8  N   UNL     1      -4.505   3.835 -32.589  1.00  0.00    -0.204 NA
HETATM    9  C   UNL     1      -5.442   4.443 -31.830  1.00  0.00     0.177 A 
HETATM   10  N   UNL     1      -5.309   5.682 -31.274  1.00  0.00    -0.276 N 
HETATM   11  C   UNL     1      -4.206   6.462 -31.476  1.00  0.00     0.124 A 
ENDROOT
BRANCH   9  12
HETATM   12  S   UNL     1      -6.887   3.415 -31.531  1.00  0.00    -0.082 SA
BRANCH  12  13
HETATM   13  C   UNL     1      -6.213   2.302 -30.251  1.00  0.00     0.185 C 
BRANCH  13  14
HETATM   14  C   UNL     1      -6.102   0.898 -30.809  1.00  0.00     0.232 C 
HETATM   15  N   UNL     1      -5.609   0.864 -32.102  1.00  0.00    -0.324 N 
HETATM   16  H   UNL     1      -4.920   1.564 -32.342  1.00  0.00     0.169 HD
HETATM   17  O   UNL     1      -6.379  -0.070 -30.104  1.00  0.00    -0.272 OA
BRANCH  15  18
HETATM   18  C   UNL     1      -5.697  -0.251 -32.969  1.00  0.00     0.068 A 
HETATM   19  C   UNL     1      -6.832  -0.538 -33.757  1.00  0.00     0.097 A 
HETATM   20  C   UNL     1      -6.825  -1.674 -34.582  1.00  0.00     0.075 A 
HETATM   21  C   UNL     1      -5.696  -2.493 -34.659  1.00  0.00     0.070 A 
HETATM   22  C   UNL     1      -4.558  -2.162 -33.925  1.00  0.00     0.039 A 
HETATM   23  C   UNL     1      -4.551  -1.043 -33.093  1.00  0.00     0.035 A 
BRANCH  19  24
HETATM   24  O   UNL     1      -7.843   0.391 -33.745  1.00  0.00    -0.354 OA
HETATM   25  C   UNL     1      -9.036   0.070 -33.041  1.00  0.00     0.210 C 
ENDBRANCH  19  24
BRANCH  21  26
HETATM   26  O   UNL     1      -5.565  -3.616 -35.428  1.00  0.00    -0.356 OA
HETATM   27  C   UNL     1      -6.613  -4.576 -35.363  1.00  0.00     0.210 C 
ENDBRANCH  21  26
ENDBRANCH  15  18
ENDBRANCH  13  14
ENDBRANCH  12  13
ENDBRANCH   9  12
BRANCH  10  28
HETATM   28  C   UNL     1      -6.335   6.182 -30.398  1.00  0.00     0.043 A 
HETATM   29  C   UNL     1      -6.229   5.918 -29.029  1.00  0.00     0.031 A 
HETATM   30  C   UNL     1      -7.184   6.454 -28.164  1.00  0.00     0.021 A 
HETATM   31  C   UNL     1      -8.219   7.240 -28.675  1.00  0.00     0.011 A 
HETATM   32 BR   UNL     1      -9.505   7.968 -27.497  1.00  0.00    -0.051 Br
HETATM   33  C   UNL     1      -8.311   7.503 -30.046  1.00  0.00     0.021 A 
HETATM   34  C   UNL     1      -7.358   6.977 -30.923  1.00  0.00     0.031 A 
ENDBRANCH  10  28
BRANCH  11  35
HETATM   35  N   UNL     1      -4.078   7.746 -30.958  1.00  0.00    -0.384 N 
HETATM   36  H   UNL     1      -4.805   8.442 -31.084  1.00  0.00     0.157 HD
HETATM   37  H   UNL     1      -3.146   8.139 -30.871  1.00  0.00     0.157 HD
ENDBRANCH  11  35
TORSDOF 8
ENDMDL
MODEL 9
REMARK VINA RESULT:      -7.8      3.447      7.926
REMARK  8 active torsions:
REMARK  status: ('A' for Active; 'I' for Inactive)
REMARK    1  A    between atoms: C_9  and  S_10 
REMARK    2  A    between atoms: S_10  and  C_11 
REMARK    3  A    between atoms: C_11  and  C_12 
REMARK       I    between atoms: C_12  and  N_13 
REMARK    4  A    between atoms: N_13  and  C_14 
REMARK    5  A    between atoms: C_15  and  O_16 
REMARK    6  A    between atoms: C_19  and  O_20 
REMARK    7  A    between atoms: N_25  and  C_26 
REMARK    8  A    between atoms: C_33  and  N_34 
ROOT
HETATM    1  C   UNL     1      -0.423   5.870 -29.996  1.00  0.00     0.073 C 
HETATM    2  C   UNL     1      -1.350   5.389 -31.053  1.00  0.00     0.068 A 
HETATM    3  N   UNL     1      -0.852   4.722 -32.101  1.00  0.00    -0.177 NA
HETATM    4  N   UNL     1      -1.925   4.423 -32.847  1.00  0.00    -0.260 N 
HETATM    5  H   UNL     1      -1.794   3.904 -33.710  1.00  0.00     0.191 HD
HETATM    6  C   UNL     1      -3.092   4.879 -32.307  1.00  0.00     0.162 A 
HETATM    7  C   UNL     1      -2.770   5.526 -31.133  1.00  0.00     0.081 A 
HETATM    8  N   UNL     1      -4.309   4.724 -32.825  1.00  0.00    -0.204 NA
HETATM    9  C   UNL     1      -5.270   5.282 -32.056  1.00  0.00     0.177 A 
HETATM   10  N   UNL     1      -5.046   5.925 -30.874  1.00  0.00    -0.276 N 
HETATM   11  C   UNL     1      -3.792   6.110 -30.366  1.00  0.00     0.124 A 
ENDROOT
BRANCH   9  12
HETATM   12  S   UNL     1      -6.930   5.019 -32.698  1.00  0.00    -0.082 SA
BRANCH  12  13
HETATM   13  C   UNL     1      -7.275   3.371 -31.992  1.00  0.00     0.185 C 
BRANCH  13  14
HETATM   14  C   UNL     1      -6.920   2.302 -33.005  1.00  0.00     0.232 C 
HETATM   15  N   UNL     1      -7.070   1.017 -32.513  1.00  0.00    -0.324 N 
HETATM   16  H   UNL     1      -7.826   0.869 -31.858  1.00  0.00     0.169 HD
HETATM   17  O   UNL     1      -6.600   2.617 -34.148  1.00  0.00    -0.272 OA
BRANCH  15  18
HETATM   18  C   UNL     1      -6.521  -0.143 -33.109  1.00  0.00     0.068 A 
HETATM   19  C   UNL     1      -5.219  -0.615 -32.841  1.00  0.00     0.097 A 
HETATM   20  C   UNL     1      -4.762  -1.775 -33.489  1.00  0.00     0.075 A 
HETATM   21  C   UNL     1      -5.595  -2.480 -34.360  1.00  0.00     0.070 A 
HETATM   22  C   UNL     1      -6.902  -2.038 -34.566  1.00  0.00     0.039 A 
HETATM   23  C   UNL     1      -7.368  -0.884 -33.939  1.00  0.00     0.035 A 
BRANCH  19  24
HETATM   24  O   UNL     1      -4.513   0.040 -31.862  1.00  0.00    -0.354 OA
HETATM   25  C   UNL     1      -3.503   0.955 -32.268  1.00  0.00     0.210 C 
ENDBRANCH  19  24
BRANCH  21  26
HETATM   26  O   UNL     1      -5.271  -3.621 -35.041  1.00  0.00    -0.356 OA
HETATM   27  C   UNL     1      -6.335  -4.501 -35.382  1.00  0.00     0.210 C 
ENDBRANCH  21  26
ENDBRANCH  15  18
ENDBRANCH  13  14
ENDBRANCH  12  13
ENDBRANCH   9  12
BRANCH  10  28
HETATM   28  C   UNL     1      -6.163   6.387 -30.094  1.00  0.00     0.043 A 
HETATM   29  C   UNL     1      -6.665   5.553 -29.089  1.00  0.00     0.031 A 
HETATM   30  C   UNL     1      -7.705   6.019 -28.285  1.00  0.00     0.021 A 
HETATM   31  C   UNL     1      -8.221   7.301 -28.491  1.00  0.00     0.011 A 
HETATM   32 BR   UNL     1      -9.625   7.928 -27.393  1.00  0.00    -0.051 Br
HETATM   33  C   UNL     1      -7.706   8.128 -29.494  1.00  0.00     0.021 A 
HETATM   34  C   UNL     1      -6.661   7.676 -30.304  1.00  0.00     0.031 A 
ENDBRANCH  10  28
BRANCH  11  35
HETATM   35  N   UNL     1      -3.544   6.806 -29.188  1.00  0.00    -0.384 N 
HETATM   36  H   UNL     1      -3.099   6.359 -28.394  1.00  0.00     0.157 HD
HETATM   37  H   UNL     1      -4.173   7.561 -28.934  1.00  0.00     0.157 HD
ENDBRANCH  11  35
TORSDOF 8
ENDMDL
MODEL 10
REMARK VINA RESULT:      -7.7      2.957      5.034
REMARK  8 active torsions:
REMARK  status: ('A' for Active; 'I' for Inactive)
REMARK    1  A    between atoms: C_9  and  S_10 
REMARK    2  A    between atoms: S_10  and  C_11 
REMARK    3  A    between atoms: C_11  and  C_12 
REMARK       I    between atoms: C_12  and  N_13 
REMARK    4  A    between atoms: N_13  and  C_14 
REMARK    5  A    between atoms: C_15  and  O_16 
REMARK    6  A    between atoms: C_19  and  O_20 
REMARK    7  A    between atoms: N_25  and  C_26 
REMARK    8  A    between atoms: C_33  and  N_34 
ROOT
HETATM    1  C   UNL     1     -13.550   2.279 -32.772  1.00  0.00     0.073 C 
HETATM    2  C   UNL     1     -12.415   3.221 -32.959  1.00  0.00     0.068 A 
HETATM    3  N   UNL     1     -12.640   4.537 -32.864  1.00  0.00    -0.177 NA
HETATM    4  N   UNL     1     -11.438   5.095 -33.065  1.00  0.00    -0.260 N 
HETATM    5  H   UNL     1     -11.356   6.108 -33.035  1.00  0.00     0.191 HD
HETATM    6  C   UNL     1     -10.454   4.177 -33.286  1.00  0.00     0.162 A 
HETATM    7  C   UNL     1     -11.044   2.931 -33.234  1.00  0.00     0.081 A 
HETATM    8  N   UNL     1      -9.169   4.442 -33.510  1.00  0.00    -0.204 NA
HETATM    9  C   UNL     1      -8.436   3.321 -33.688  1.00  0.00     0.177 A 
HETATM   10  N   UNL     1      -8.930   2.051 -33.636  1.00  0.00    -0.276 N 
HETATM   11  C   UNL     1     -10.256   1.787 -33.440  1.00  0.00     0.124 A 
ENDROOT
BRANCH   9  12
HETATM   12  S   UNL     1      -6.683   3.653 -33.917  1.00  0.00    -0.082 SA
BRANCH  12  13
HETATM   13  C   UNL     1      -6.625   5.394 -33.373  1.00  0.00     0.185 C 
BRANCH  13  14
HETATM   14  C   UNL     1      -5.598   5.547 -32.270  1.00  0.00     0.232 C 
HETATM   15  N   UNL     1      -4.385   6.035 -32.722  1.00  0.00    -0.324 N 
HETATM   16  H   UNL     1      -4.420   6.701 -33.483  1.00  0.00     0.169 HD
HETATM   17  O   UNL     1      -5.903   5.304 -31.105  1.00  0.00    -0.272 OA
BRANCH  15  18
HETATM   18  C   UNL     1      -3.173   5.978 -31.995  1.00  0.00     0.068 A 
HETATM   19  C   UNL     1      -2.088   5.148 -32.349  1.00  0.00     0.097 A 
HETATM   20  C   UNL     1      -0.928   5.158 -31.558  1.00  0.00     0.075 A 
HETATM   21  C   UNL     1      -0.825   6.008 -30.454  1.00  0.00     0.070 A 
HETATM   22  C   UNL     1      -1.878   6.870 -30.153  1.00  0.00     0.039 A 
HETATM   23  C   UNL     1      -3.041   6.866 -30.922  1.00  0.00     0.035 A 
BRANCH  19  24
HETATM   24  O   UNL     1      -2.202   4.455 -33.528  1.00  0.00    -0.354 OA
HETATM   25  C   UNL     1      -1.758   5.089 -34.721  1.00  0.00     0.210 C 
ENDBRANCH  19  24
BRANCH  21  26
HETATM   26  O   UNL     1       0.250   6.114 -29.616  1.00  0.00    -0.356 OA
HETATM   27  C   UNL     1       0.592   7.417 -29.158  1.00  0.00     0.210 C 
ENDBRANCH  21  26
ENDBRANCH  15  18
ENDBRANCH  13  14
ENDBRANCH  12  13
ENDBRANCH   9  12
BRANCH  10  28
HETATM   28  C   UNL     1      -8.030   0.933 -33.739  1.00  0.00     0.043 A 
HETATM   29  C   UNL     1      -7.739   0.425 -35.010  1.00  0.00     0.031 A 
HETATM   30  C   UNL     1      -6.817  -0.615 -35.125  1.00  0.00     0.021 A 
HETATM   31  C   UNL     1      -6.202  -1.126 -33.979  1.00  0.00     0.011 A 
HETATM   32 BR   UNL     1      -4.948  -2.530 -34.144  1.00  0.00    -0.051 Br
HETATM   33  C   UNL     1      -6.494  -0.605 -32.715  1.00  0.00     0.021 A 
HETATM   34  C   UNL     1      -7.412   0.441 -32.586  1.00  0.00     0.031 A 
ENDBRANCH  10  28
BRANCH  11  35
HETATM   35  N   UNL     1     -10.782   0.500 -33.435  1.00  0.00    -0.384 N 
HETATM   36  H   UNL     1     -11.735   0.318 -33.732  1.00  0.00     0.157 HD
HETATM   37  H   UNL     1     -10.434  -0.160 -32.746  1.00  0.00     0.157 HD
ENDBRANCH  11  35
TORSDOF 8
ENDMDL
