MODEL 1
REMARK VINA RESULT:      -8.7      0.000      0.000
REMARK  12 active torsions:
REMARK  status: ('A' for Active; 'I' for Inactive)
REMARK    1  A    between atoms: C_7  and  N_8 
REMARK    2  A    between atoms: C_12  and  N_13 
REMARK       I    between atoms: N_13  and  C_14 
REMARK    3  A    between atoms: C_14  and  C_15 
REMARK    4  A    between atoms: C_15  and  C_16 
REMARK    5  A    between atoms: C_16  and  C_17 
REMARK    6  A    between atoms: C_17  and  C_18 
REMARK    7  A    between atoms: C_18  and  C_19 
REMARK    8  A    between atoms: C_19  and  C_20 
REMARK    9  A    between atoms: C_20  and  C_21 
REMARK   10  A    between atoms: C_21  and  C_22 
REMARK       I    between atoms: C_22  and  N_23 
REMARK   11  A    between atoms: N_23  and  C_24 
REMARK   12  A    between atoms: C_33  and  N_34 
ROOT
HETATM    1  C   UNL     1      -4.086   8.087 -29.279  1.00  0.00     0.000 C 
ENDROOT
BRANCH   1   2
HETATM    2  C   UNL     1      -3.795   7.319 -27.986  1.00  0.00     0.000 C 
BRANCH   2   3
HETATM    3  C   UNL     1      -2.778   8.014 -27.073  1.00  0.00     0.009 C 
BRANCH   3   4
HETATM    4  C   UNL     1      -1.684   7.111 -26.496  1.00  0.00     0.103 C 
BRANCH   4   5
HETATM    5  C   UNL     1      -0.283   7.651 -26.680  1.00  0.00     0.222 C 
HETATM    6  N   UNL     1       0.423   7.439 -27.830  1.00  0.00    -0.327 N 
HETATM    7  H   UNL     1       1.336   7.873 -27.726  1.00  0.00     0.169 HD
HETATM    8  O   UNL     1       0.283   8.300 -25.797  1.00  0.00    -0.273 OA
BRANCH   6   9
HETATM    9  C   UNL     1       0.176   6.796 -29.055  1.00  0.00     0.035 A 
HETATM   10  C   UNL     1       0.503   5.481 -29.368  1.00  0.00     0.032 A 
HETATM   11  C   UNL     1       0.171   4.941 -30.618  1.00  0.00     0.033 A 
HETATM   12  C   UNL     1      -0.490   5.714 -31.581  1.00  0.00     0.044 A 
HETATM   13  N   UNL     1      -0.841   5.161 -32.758  1.00  0.00    -0.359 N 
HETATM   14  C   UNL     1      -0.810   7.061 -31.318  1.00  0.00     0.014 A 
HETATM   15  C   UNL     1      -1.519   5.819 -33.711  1.00  0.00     0.007 A 
HETATM   16  H   UNL     1      -0.602   4.184 -32.920  1.00  0.00     0.166 HD
HETATM   17  C   UNL     1      -1.907   5.094 -34.958  1.00  0.00     0.068 C 
HETATM   18  C   UNL     1      -1.844   7.158 -33.507  1.00  0.00     0.048 A 
HETATM   19  C   UNL     1      -1.449   7.811 -32.337  1.00  0.00     0.020 A 
HETATM   20  C   UNL     1      -0.472   7.570 -30.037  1.00  0.00     0.045 A 
BRANCH  19  21
HETATM   21  N   UNL     1      -1.903   9.119 -32.128  1.00  0.00    -0.302 NA
HETATM   22  H   UNL     1      -2.402   9.555 -32.898  1.00  0.00     0.124 HD
HETATM   23  H   UNL     1      -2.394   9.287 -31.251  1.00  0.00     0.124 HD
ENDBRANCH  19  21
ENDBRANCH   6   9
ENDBRANCH   4   5
ENDBRANCH   3   4
ENDBRANCH   2   3
ENDBRANCH   1   2
BRANCH   1  24
HETATM   24  C   UNL     1      -4.732   7.177 -30.327  1.00  0.00     0.000 C 
BRANCH  24  25
HETATM   25  C   UNL     1      -4.012   5.839 -30.523  1.00  0.00     0.009 C 
BRANCH  25  26
HETATM   26  C   UNL     1      -4.914   4.610 -30.588  1.00  0.00     0.103 C 
BRANCH  26  27
HETATM   27  C   UNL     1      -4.293   3.400 -31.269  1.00  0.00     0.222 C 
HETATM   28  N   UNL     1      -4.979   2.221 -31.033  1.00  0.00    -0.327 N 
HETATM   29  H   UNL     1      -5.724   2.265 -30.346  1.00  0.00     0.169 HD
HETATM   30  O   UNL     1      -3.288   3.524 -31.964  1.00  0.00    -0.273 OA
BRANCH  28  31
HETATM   31  C   UNL     1      -4.731   0.961 -31.616  1.00  0.00     0.035 A 
HETATM   32  C   UNL     1      -5.449   0.450 -32.704  1.00  0.00     0.045 A 
HETATM   33  C   UNL     1      -5.184  -0.829 -33.255  1.00  0.00     0.014 A 
HETATM   34  C   UNL     1      -4.162  -1.597 -32.653  1.00  0.00     0.044 A 
HETATM   35  C   UNL     1      -5.879  -1.380 -34.359  1.00  0.00     0.020 A 
HETATM   36  N   UNL     1      -3.898  -2.832 -33.119  1.00  0.00    -0.359 N 
HETATM   37  C   UNL     1      -3.439  -1.093 -31.564  1.00  0.00     0.033 A 
HETATM   38  H   UNL     1      -3.158  -3.368 -32.667  1.00  0.00     0.166 HD
HETATM   39  C   UNL     1      -4.577  -3.406 -34.126  1.00  0.00     0.007 A 
HETATM   40  C   UNL     1      -4.236  -4.804 -34.529  1.00  0.00     0.068 C 
HETATM   41  C   UNL     1      -5.596  -2.691 -34.748  1.00  0.00     0.048 A 
HETATM   42  C   UNL     1      -3.726   0.175 -31.049  1.00  0.00     0.032 A 
BRANCH  35  43
HETATM   43  N   UNL     1      -6.999  -0.756 -34.926  1.00  0.00    -0.302 NA
HETATM   44  H   UNL     1      -7.900  -1.186 -34.733  1.00  0.00     0.124 HD
HETATM   45  H   UNL     1      -6.926  -0.504 -35.910  1.00  0.00     0.124 HD
ENDBRANCH  35  43
ENDBRANCH  28  31
ENDBRANCH  26  27
ENDBRANCH  25  26
ENDBRANCH  24  25
ENDBRANCH   1  24
TORSDOF 12
ENDMDL
MODEL 2
REMARK VINA RESULT:      -8.6      2.104      4.515
REMARK  12 active torsions:
REMARK  status: ('A' for Active; 'I' for Inactive)
REMARK    1  A    between atoms: C_7  and  N_8 
REMARK    2  A    between atoms: C_12  and  N_13 
REMARK       I    between atoms: N_13  and  C_14 
REMARK    3  A    between atoms: C_14  and  C_15 
REMARK    4  A    between atoms: C_15  and  C_16 
REMARK    5  A    between atoms: C_16  and  C_17 
REMARK    6  A    between atoms: C_17  and  C_18 
REMARK    7  A    between atoms: C_18  and  C_19 
REMARK    8  A    between atoms: C_19  and  C_20 
REMARK    9  A    between atoms: C_20  and  C_21 
REMARK   10  A    between atoms: C_21  and  C_22 
REMARK       I    between atoms: C_22  and  N_23 
REMARK   11  A    between atoms: N_23  and  C_24 
REMARK   12  A    between atoms: C_33  and  N_34 
ROOT
HETATM    1  C   UNL     1      -5.431   6.166 -32.814  1.00  0.00     0.000 C 
ENDROOT
BRANCH   1   2
HETATM    2  C   UNL     1      -5.464   5.192 -33.996  1.00  0.00     0.000 C 
BRANCH   2   3
HETATM    3  C   UNL     1      -4.134   5.100 -34.754  1.00  0.00     0.009 C 
BRANCH   3   4
HETATM    4  C   UNL     1      -2.897   4.848 -33.887  1.00  0.00     0.103 C 
BRANCH   4   5
HETATM    5  C   UNL     1      -1.648   5.541 -34.385  1.00  0.00     0.222 C 
HETATM    6  N   UNL     1      -0.982   6.457 -33.622  1.00  0.00    -0.327 N 
HETATM    7  H   UNL     1      -0.192   6.802 -34.159  1.00  0.00     0.169 HD
HETATM    8  O   UNL     1      -1.184   5.314 -35.505  1.00  0.00    -0.273 OA
BRANCH   6   9
HETATM    9  C   UNL     1      -1.137   6.990 -32.330  1.00  0.00     0.035 A 
HETATM   10  C   UNL     1      -1.875   8.120 -31.996  1.00  0.00     0.032 A 
HETATM   11  C   UNL     1      -1.984   8.534 -30.661  1.00  0.00     0.033 A 
HETATM   12  C   UNL     1      -1.346   7.823 -29.636  1.00  0.00     0.044 A 
HETATM   13  N   UNL     1      -1.502   8.210 -28.356  1.00  0.00    -0.359 N 
HETATM   14  C   UNL     1      -0.561   6.691 -29.934  1.00  0.00     0.014 A 
HETATM   15  C   UNL     1      -0.967   7.554 -27.315  1.00  0.00     0.007 A 
HETATM   16  H   UNL     1      -2.079   9.029 -28.168  1.00  0.00     0.166 HD
HETATM   17  C   UNL     1      -1.248   8.038 -25.930  1.00  0.00     0.068 C 
HETATM   18  C   UNL     1      -0.168   6.439 -27.556  1.00  0.00     0.048 A 
HETATM   19  C   UNL     1       0.090   6.026 -28.866  1.00  0.00     0.020 A 
HETATM   20  C   UNL     1      -0.486   6.293 -31.294  1.00  0.00     0.045 A 
BRANCH  19  21
HETATM   21  N   UNL     1       0.798   4.832 -29.051  1.00  0.00    -0.302 NA
HETATM   22  H   UNL     1       1.101   4.626 -29.998  1.00  0.00     0.124 HD
HETATM   23  H   UNL     1       1.556   4.655 -28.393  1.00  0.00     0.124 HD
ENDBRANCH  19  21
ENDBRANCH   6   9
ENDBRANCH   4   5
ENDBRANCH   3   4
ENDBRANCH   2   3
ENDBRANCH   1   2
BRANCH   1  24
HETATM   24  C   UNL     1      -6.365   5.702 -31.692  1.00  0.00     0.000 C 
BRANCH  24  25
HETATM   25  C   UNL     1      -5.657   5.434 -30.360  1.00  0.00     0.009 C 
BRANCH  25  26
HETATM   26  C   UNL     1      -4.485   4.460 -30.421  1.00  0.00     0.103 C 
BRANCH  26  27
HETATM   27  C   UNL     1      -4.867   3.021 -30.727  1.00  0.00     0.222 C 
HETATM   28  N   UNL     1      -4.438   2.588 -31.970  1.00  0.00    -0.327 N 
HETATM   29  H   UNL     1      -4.040   3.294 -32.579  1.00  0.00     0.169 HD
HETATM   30  O   UNL     1      -5.483   2.351 -29.903  1.00  0.00    -0.273 OA
BRANCH  28  31
HETATM   31  C   UNL     1      -4.526   1.281 -32.493  1.00  0.00     0.035 A 
HETATM   32  C   UNL     1      -5.586   0.830 -33.290  1.00  0.00     0.045 A 
HETATM   33  C   UNL     1      -5.650  -0.497 -33.785  1.00  0.00     0.014 A 
HETATM   34  C   UNL     1      -4.600  -1.374 -33.434  1.00  0.00     0.044 A 
HETATM   35  C   UNL     1      -6.698  -0.992 -34.600  1.00  0.00     0.020 A 
HETATM   36  N   UNL     1      -4.636  -2.653 -33.851  1.00  0.00    -0.359 N 
HETATM   37  C   UNL     1      -3.536  -0.931 -32.637  1.00  0.00     0.033 A 
HETATM   38  H   UNL     1      -3.869  -3.268 -33.583  1.00  0.00     0.166 HD
HETATM   39  C   UNL     1      -5.643  -3.169 -34.576  1.00  0.00     0.007 A 
HETATM   40  C   UNL     1      -5.607  -4.618 -34.942  1.00  0.00     0.068 C 
HETATM   41  C   UNL     1      -6.702  -2.346 -34.944  1.00  0.00     0.048 A 
HETATM   42  C   UNL     1      -3.504   0.386 -32.168  1.00  0.00     0.032 A 
BRANCH  35  43
HETATM   43  N   UNL     1      -7.848  -0.242 -34.879  1.00  0.00    -0.302 NA
HETATM   44  H   UNL     1      -7.891   0.687 -34.466  1.00  0.00     0.124 HD
HETATM   45  H   UNL     1      -8.739  -0.723 -34.771  1.00  0.00     0.124 HD
ENDBRANCH  35  43
ENDBRANCH  28  31
ENDBRANCH  26  27
ENDBRANCH  25  26
ENDBRANCH  24  25
ENDBRANCH   1  24
TORSDOF 12
ENDMDL
MODEL 3
REMARK VINA RESULT:      -8.6      2.474      4.831
REMARK  12 active torsions:
REMARK  status: ('A' for Active; 'I' for Inactive)
REMARK    1  A    between atoms: C_7  and  N_8 
REMARK    2  A    between atoms: C_12  and  N_13 
REMARK       I    between atoms: N_13  and  C_14 
REMARK    3  A    between atoms: C_14  and  C_15 
REMARK    4  A    between atoms: C_15  and  C_16 
REMARK    5  A    between atoms: C_16  and  C_17 
REMARK    6  A    between atoms: C_17  and  C_18 
REMARK    7  A    between atoms: C_18  and  C_19 
REMARK    8  A    between atoms: C_19  and  C_20 
REMARK    9  A    between atoms: C_20  and  C_21 
REMARK   10  A    between atoms: C_21  and  C_22 
REMARK       I    between atoms: C_22  and  N_23 
REMARK   11  A    between atoms: N_23  and  C_24 
REMARK   12  A    between atoms: C_33  and  N_34 
ROOT
HETATM    1  C   UNL     1      -5.642   4.664 -30.617  1.00  0.00     0.000 C 
ENDROOT
BRANCH   1   2
HETATM    2  C   UNL     1      -4.215   4.725 -31.173  1.00  0.00     0.000 C 
BRANCH   2   3
HETATM    3  C   UNL     1      -4.141   4.553 -32.695  1.00  0.00     0.009 C 
BRANCH   3   4
HETATM    4  C   UNL     1      -2.796   4.062 -33.238  1.00  0.00     0.103 C 
BRANCH   4   5
HETATM    5  C   UNL     1      -2.095   5.059 -34.133  1.00  0.00     0.222 C 
HETATM    6  N   UNL     1      -1.486   6.173 -33.628  1.00  0.00    -0.327 N 
HETATM    7  H   UNL     1      -1.100   6.702 -34.405  1.00  0.00     0.169 HD
HETATM    8  O   UNL     1      -2.050   4.913 -35.357  1.00  0.00    -0.273 OA
BRANCH   6   9
HETATM    9  C   UNL     1      -1.284   6.712 -32.346  1.00  0.00     0.035 A 
HETATM   10  C   UNL     1      -1.772   7.930 -31.885  1.00  0.00     0.032 A 
HETATM   11  C   UNL     1      -1.531   8.343 -30.568  1.00  0.00     0.033 A 
HETATM   12  C   UNL     1      -0.787   7.545 -29.690  1.00  0.00     0.044 A 
HETATM   13  N   UNL     1      -0.608   7.940 -28.415  1.00  0.00    -0.359 N 
HETATM   14  C   UNL     1      -0.246   6.319 -30.126  1.00  0.00     0.014 A 
HETATM   15  C   UNL     1       0.049   7.209 -27.501  1.00  0.00     0.007 A 
HETATM   16  H   UNL     1      -1.014   8.828 -28.125  1.00  0.00     0.166 HD
HETATM   17  C   UNL     1       0.143   7.716 -26.098  1.00  0.00     0.068 C 
HETATM   18  C   UNL     1       0.618   5.998 -27.885  1.00  0.00     0.048 A 
HETATM   19  C   UNL     1       0.528   5.563 -29.209  1.00  0.00     0.020 A 
HETATM   20  C   UNL     1      -0.522   5.925 -31.461  1.00  0.00     0.045 A 
BRANCH  19  21
HETATM   21  N   UNL     1       1.011   4.286 -29.517  1.00  0.00    -0.302 NA
HETATM   22  H   UNL     1       0.362   3.514 -29.396  1.00  0.00     0.124 HD
HETATM   23  H   UNL     1       1.504   4.195 -30.404  1.00  0.00     0.124 HD
ENDBRANCH  19  21
ENDBRANCH   6   9
ENDBRANCH   4   5
ENDBRANCH   3   4
ENDBRANCH   2   3
ENDBRANCH   1   2
BRANCH   1  24
HETATM   24  C   UNL     1      -6.569   5.624 -31.368  1.00  0.00     0.000 C 
BRANCH  24  25
HETATM   25  C   UNL     1      -7.909   5.006 -31.780  1.00  0.00     0.009 C 
BRANCH  25  26
HETATM   26  C   UNL     1      -7.913   4.276 -33.120  1.00  0.00     0.103 C 
BRANCH  26  27
HETATM   27  C   UNL     1      -7.752   2.768 -33.025  1.00  0.00     0.222 C 
HETATM   28  N   UNL     1      -6.690   2.278 -33.766  1.00  0.00    -0.327 N 
HETATM   29  H   UNL     1      -6.227   2.939 -34.379  1.00  0.00     0.169 HD
HETATM   30  O   UNL     1      -8.511   2.103 -32.325  1.00  0.00    -0.273 OA
BRANCH  28  31
HETATM   31  C   UNL     1      -6.207   0.953 -33.787  1.00  0.00     0.035 A 
HETATM   32  C   UNL     1      -5.221   0.468 -32.919  1.00  0.00     0.045 A 
HETATM   33  C   UNL     1      -4.747  -0.866 -32.980  1.00  0.00     0.014 A 
HETATM   34  C   UNL     1      -5.297  -1.708 -33.972  1.00  0.00     0.044 A 
HETATM   35  C   UNL     1      -3.758  -1.400 -32.117  1.00  0.00     0.020 A 
HETATM   36  N   UNL     1      -4.853  -2.973 -34.092  1.00  0.00    -0.359 N 
HETATM   37  C   UNL     1      -6.284  -1.231 -34.845  1.00  0.00     0.033 A 
HETATM   38  H   UNL     1      -5.263  -3.560 -34.816  1.00  0.00     0.166 HD
HETATM   39  C   UNL     1      -3.877  -3.491 -33.328  1.00  0.00     0.007 A 
HETATM   40  C   UNL     1      -3.422  -4.893 -33.581  1.00  0.00     0.068 C 
HETATM   41  C   UNL     1      -3.299  -2.701 -32.339  1.00  0.00     0.048 A 
HETATM   42  C   UNL     1      -6.731   0.091 -34.754  1.00  0.00     0.032 A 
BRANCH  35  43
HETATM   43  N   UNL     1      -3.054  -0.605 -31.203  1.00  0.00    -0.302 NA
HETATM   44  H   UNL     1      -3.273  -0.748 -30.220  1.00  0.00     0.124 HD
HETATM   45  H   UNL     1      -3.000   0.389 -31.417  1.00  0.00     0.124 HD
ENDBRANCH  35  43
ENDBRANCH  28  31
ENDBRANCH  26  27
ENDBRANCH  25  26
ENDBRANCH  24  25
ENDBRANCH   1  24
TORSDOF 12
ENDMDL
MODEL 4
REMARK VINA RESULT:      -8.3      1.454      2.628
REMARK  12 active torsions:
REMARK  status: ('A' for Active; 'I' for Inactive)
REMARK    1  A    between atoms: C_7  and  N_8 
REMARK    2  A    between atoms: C_12  and  N_13 
REMARK       I    between atoms: N_13  and  C_14 
REMARK    3  A    between atoms: C_14  and  C_15 
REMARK    4  A    between atoms: C_15  and  C_16 
REMARK    5  A    between atoms: C_16  and  C_17 
REMARK    6  A    between atoms: C_17  and  C_18 
REMARK    7  A    between atoms: C_18  and  C_19 
REMARK    8  A    between atoms: C_19  and  C_20 
REMARK    9  A    between atoms: C_20  and  C_21 
REMARK   10  A    between atoms: C_21  and  C_22 
REMARK       I    between atoms: C_22  and  N_23 
REMARK   11  A    between atoms: N_23  and  C_24 
REMARK   12  A    between atoms: C_33  and  N_34 
ROOT
HETATM    1  C   UNL     1      -3.793   9.355 -27.472  1.00  0.00     0.000 C 
ENDROOT
BRANCH   1   2
HETATM    2  C   UNL     1      -2.362   9.381 -26.924  1.00  0.00     0.000 C 
BRANCH   2   3
HETATM    3  C   UNL     1      -2.057   8.242 -25.944  1.00  0.00     0.009 C 
BRANCH   3   4
HETATM    4  C   UNL     1      -1.211   7.097 -26.506  1.00  0.00     0.103 C 
BRANCH   4   5
HETATM    5  C   UNL     1       0.218   7.485 -26.816  1.00  0.00     0.222 C 
HETATM    6  N   UNL     1       0.790   7.211 -28.025  1.00  0.00    -0.327 N 
HETATM    7  H   UNL     1       1.750   7.544 -28.003  1.00  0.00     0.169 HD
HETATM    8  O   UNL     1       0.928   8.059 -25.987  1.00  0.00    -0.273 OA
BRANCH   6   9
HETATM    9  C   UNL     1       0.366   6.612 -29.224  1.00  0.00     0.035 A 
HETATM   10  C   UNL     1       0.544   5.280 -29.579  1.00  0.00     0.032 A 
HETATM   11  C   UNL     1       0.042   4.791 -30.793  1.00  0.00     0.033 A 
HETATM   12  C   UNL     1      -0.642   5.634 -31.678  1.00  0.00     0.044 A 
HETATM   13  N   UNL     1      -1.157   5.133 -32.817  1.00  0.00    -0.359 N 
HETATM   14  C   UNL     1      -0.816   6.999 -31.372  1.00  0.00     0.014 A 
HETATM   15  C   UNL     1      -1.867   5.863 -33.691  1.00  0.00     0.007 A 
HETATM   16  H   UNL     1      -1.021   4.142 -33.011  1.00  0.00     0.166 HD
HETATM   17  C   UNL     1      -2.441   5.195 -34.897  1.00  0.00     0.068 C 
HETATM   18  C   UNL     1      -2.053   7.221 -33.444  1.00  0.00     0.048 A 
HETATM   19  C   UNL     1      -1.486   7.818 -32.315  1.00  0.00     0.020 A 
HETATM   20  C   UNL     1      -0.307   7.456 -30.129  1.00  0.00     0.045 A 
BRANCH  19  21
HETATM   21  N   UNL     1      -1.801   9.156 -32.051  1.00  0.00    -0.302 NA
HETATM   22  H   UNL     1      -1.072   9.718 -31.622  1.00  0.00     0.124 HD
HETATM   23  H   UNL     1      -2.241   9.672 -32.812  1.00  0.00     0.124 HD
ENDBRANCH  19  21
ENDBRANCH   6   9
ENDBRANCH   4   5
ENDBRANCH   3   4
ENDBRANCH   2   3
ENDBRANCH   1   2
BRANCH   1  24
HETATM   24  C   UNL     1      -3.804   9.526 -28.994  1.00  0.00     0.000 C 
BRANCH  24  25
HETATM   25  C   UNL     1      -4.271   8.284 -29.760  1.00  0.00     0.009 C 
BRANCH  25  26
HETATM   26  C   UNL     1      -3.885   6.944 -29.140  1.00  0.00     0.103 C 
BRANCH  26  27
HETATM   27  C   UNL     1      -4.646   5.747 -29.687  1.00  0.00     0.222 C 
HETATM   28  N   UNL     1      -4.027   5.148 -30.771  1.00  0.00    -0.327 N 
HETATM   29  H   UNL     1      -3.224   5.634 -31.156  1.00  0.00     0.169 HD
HETATM   30  O   UNL     1      -5.695   5.384 -29.163  1.00  0.00    -0.273 OA
BRANCH  28  31
HETATM   31  C   UNL     1      -4.412   3.955 -31.419  1.00  0.00     0.035 A 
HETATM   32  C   UNL     1      -3.784   2.720 -31.217  1.00  0.00     0.045 A 
HETATM   33  C   UNL     1      -4.188   1.545 -31.899  1.00  0.00     0.014 A 
HETATM   34  C   UNL     1      -5.255   1.659 -32.817  1.00  0.00     0.044 A 
HETATM   35  C   UNL     1      -3.586   0.274 -31.719  1.00  0.00     0.020 A 
HETATM   36  N   UNL     1      -5.650   0.577 -33.514  1.00  0.00    -0.359 N 
HETATM   37  C   UNL     1      -5.889   2.891 -33.024  1.00  0.00     0.033 A 
HETATM   38  H   UNL     1      -6.420   0.685 -34.173  1.00  0.00     0.166 HD
HETATM   39  C   UNL     1      -5.064  -0.627 -33.410  1.00  0.00     0.007 A 
HETATM   40  C   UNL     1      -5.548  -1.749 -34.271  1.00  0.00     0.068 C 
HETATM   41  C   UNL     1      -4.005  -0.789 -32.521  1.00  0.00     0.048 A 
HETATM   42  C   UNL     1      -5.466   4.030 -32.332  1.00  0.00     0.032 A 
BRANCH  35  43
HETATM   43  N   UNL     1      -2.434   0.095 -30.942  1.00  0.00    -0.302 NA
HETATM   44  H   UNL     1      -2.540   0.239 -29.941  1.00  0.00     0.124 HD
HETATM   45  H   UNL     1      -1.586   0.544 -31.281  1.00  0.00     0.124 HD
ENDBRANCH  35  43
ENDBRANCH  28  31
ENDBRANCH  26  27
ENDBRANCH  25  26
ENDBRANCH  24  25
ENDBRANCH   1  24
TORSDOF 12
ENDMDL
MODEL 5
REMARK VINA RESULT:      -8.3      2.501      4.537
REMARK  12 active torsions:
REMARK  status: ('A' for Active; 'I' for Inactive)
REMARK    1  A    between atoms: C_7  and  N_8 
REMARK    2  A    between atoms: C_12  and  N_13 
REMARK       I    between atoms: N_13  and  C_14 
REMARK    3  A    between atoms: C_14  and  C_15 
REMARK    4  A    between atoms: C_15  and  C_16 
REMARK    5  A    between atoms: C_16  and  C_17 
REMARK    6  A    between atoms: C_17  and  C_18 
REMARK    7  A    between atoms: C_18  and  C_19 
REMARK    8  A    between atoms: C_19  and  C_20 
REMARK    9  A    between atoms: C_20  and  C_21 
REMARK   10  A    between atoms: C_21  and  C_22 
REMARK       I    between atoms: C_22  and  N_23 
REMARK   11  A    between atoms: N_23  and  C_24 
REMARK   12  A    between atoms: C_33  and  N_34 
ROOT
HETATM    1  C   UNL     1      -4.670   5.841 -30.935  1.00  0.00     0.000 C 
ENDROOT
BRANCH   1   2
HETATM    2  C   UNL     1      -3.799   4.640 -31.318  1.00  0.00     0.000 C 
BRANCH   2   3
HETATM    3  C   UNL     1      -3.610   4.474 -32.830  1.00  0.00     0.009 C 
BRANCH   3   4
HETATM    4  C   UNL     1      -2.176   4.196 -33.289  1.00  0.00     0.103 C 
BRANCH   4   5
HETATM    5  C   UNL     1      -1.575   5.304 -34.125  1.00  0.00     0.222 C 
HETATM    6  N   UNL     1      -1.089   6.447 -33.559  1.00  0.00    -0.327 N 
HETATM    7  H   UNL     1      -0.752   7.052 -34.303  1.00  0.00     0.169 HD
HETATM    8  O   UNL     1      -1.504   5.223 -35.353  1.00  0.00    -0.273 OA
BRANCH   6   9
HETATM    9  C   UNL     1      -0.954   6.940 -32.249  1.00  0.00     0.035 A 
HETATM   10  C   UNL     1      -0.017   6.522 -31.311  1.00  0.00     0.032 A 
HETATM   11  C   UNL     1       0.041   7.118 -30.044  1.00  0.00     0.033 A 
HETATM   12  C   UNL     1      -0.847   8.142 -29.691  1.00  0.00     0.044 A 
HETATM   13  N   UNL     1      -0.744   8.733 -28.486  1.00  0.00    -0.359 N 
HETATM   14  C   UNL     1      -1.835   8.574 -30.601  1.00  0.00     0.014 A 
HETATM   15  C   UNL     1      -1.523   9.753 -28.094  1.00  0.00     0.007 A 
HETATM   16  H   UNL     1      -0.018   8.405 -27.851  1.00  0.00     0.166 HD
HETATM   17  C   UNL     1      -1.287  10.373 -26.755  1.00  0.00     0.068 C 
HETATM   18  C   UNL     1      -2.526  10.206 -28.947  1.00  0.00     0.048 A 
HETATM   19  C   UNL     1      -2.732   9.590 -30.185  1.00  0.00     0.020 A 
HETATM   20  C   UNL     1      -1.854   7.958 -31.879  1.00  0.00     0.045 A 
BRANCH  19  21
HETATM   21  N   UNL     1      -3.670  10.158 -31.054  1.00  0.00    -0.302 NA
HETATM   22  H   UNL     1      -3.348  10.371 -31.993  1.00  0.00     0.124 HD
HETATM   23  H   UNL     1      -4.581   9.702 -31.090  1.00  0.00     0.124 HD
ENDBRANCH  19  21
ENDBRANCH   6   9
ENDBRANCH   4   5
ENDBRANCH   3   4
ENDBRANCH   2   3
ENDBRANCH   1   2
BRANCH   1  24
HETATM   24  C   UNL     1      -5.176   6.574 -32.181  1.00  0.00     0.000 C 
BRANCH  24  25
HETATM   25  C   UNL     1      -6.698   6.538 -32.353  1.00  0.00     0.009 C 
BRANCH  25  26
HETATM   26  C   UNL     1      -7.393   5.294 -31.808  1.00  0.00     0.103 C 
BRANCH  26  27
HETATM   27  C   UNL     1      -7.324   4.077 -32.716  1.00  0.00     0.222 C 
HETATM   28  N   UNL     1      -7.028   2.903 -32.045  1.00  0.00    -0.327 N 
HETATM   29  H   UNL     1      -6.767   2.997 -31.069  1.00  0.00     0.169 HD
HETATM   30  O   UNL     1      -7.538   4.185 -33.921  1.00  0.00    -0.273 OA
BRANCH  28  31
HETATM   31  C   UNL     1      -7.014   1.597 -32.578  1.00  0.00     0.035 A 
HETATM   32  C   UNL     1      -5.847   0.854 -32.791  1.00  0.00     0.045 A 
HETATM   33  C   UNL     1      -5.869  -0.450 -33.345  1.00  0.00     0.014 A 
HETATM   34  C   UNL     1      -7.127  -0.987 -33.697  1.00  0.00     0.044 A 
HETATM   35  C   UNL     1      -4.714  -1.240 -33.569  1.00  0.00     0.020 A 
HETATM   36  N   UNL     1      -7.196  -2.208 -34.259  1.00  0.00    -0.359 N 
HETATM   37  C   UNL     1      -8.300  -0.250 -33.487  1.00  0.00     0.033 A 
HETATM   38  H   UNL     1      -8.114  -2.572 -34.507  1.00  0.00     0.166 HD
HETATM   39  C   UNL     1      -6.116  -2.957 -34.538  1.00  0.00     0.007 A 
HETATM   40  C   UNL     1      -6.303  -4.278 -35.213  1.00  0.00     0.068 C 
HETATM   41  C   UNL     1      -4.853  -2.471 -34.214  1.00  0.00     0.048 A 
HETATM   42  C   UNL     1      -8.241   1.034 -32.936  1.00  0.00     0.032 A 
BRANCH  35  43
HETATM   43  N   UNL     1      -3.418  -0.739 -33.387  1.00  0.00    -0.302 NA
HETATM   44  H   UNL     1      -2.746  -0.951 -34.121  1.00  0.00     0.124 HD
HETATM   45  H   UNL     1      -3.003  -0.884 -32.468  1.00  0.00     0.124 HD
ENDBRANCH  35  43
ENDBRANCH  28  31
ENDBRANCH  26  27
ENDBRANCH  25  26
ENDBRANCH  24  25
ENDBRANCH   1  24
TORSDOF 12
ENDMDL
MODEL 6
REMARK VINA RESULT:      -8.2      5.399      8.038
REMARK  12 active torsions:
REMARK  status: ('A' for Active; 'I' for Inactive)
REMARK    1  A    between atoms: C_7  and  N_8 
REMARK    2  A    between atoms: C_12  and  N_13 
REMARK       I    between atoms: N_13  and  C_14 
REMARK    3  A    between atoms: C_14  and  C_15 
REMARK    4  A    between atoms: C_15  and  C_16 
REMARK    5  A    between atoms: C_16  and  C_17 
REMARK    6  A    between atoms: C_17  and  C_18 
REMARK    7  A    between atoms: C_18  and  C_19 
REMARK    8  A    between atoms: C_19  and  C_20 
REMARK    9  A    between atoms: C_20  and  C_21 
REMARK   10  A    between atoms: C_21  and  C_22 
REMARK       I    between atoms: C_22  and  N_23 
REMARK   11  A    between atoms: N_23  and  C_24 
REMARK   12  A    between atoms: C_33  and  N_34 
ROOT
HETATM    1  C   UNL     1       0.820   7.333 -27.874  1.00  0.00     0.000 C 
ENDROOT
BRANCH   1   2
HETATM    2  C   UNL     1       1.587   8.587 -27.443  1.00  0.00     0.000 C 
BRANCH   2   3
HETATM    3  C   UNL     1       1.403   8.943 -25.963  1.00  0.00     0.009 C 
BRANCH   3   4
HETATM    4  C   UNL     1       2.662   8.843 -25.098  1.00  0.00     0.103 C 
BRANCH   4   5
HETATM    5  C   UNL     1       2.996  10.116 -24.352  1.00  0.00     0.222 C 
HETATM    6  N   UNL     1       4.217  10.309 -23.773  1.00  0.00    -0.327 N 
HETATM    7  H   UNL     1       4.212  11.217 -23.317  1.00  0.00     0.169 HD
HETATM    8  O   UNL     1       2.177  11.029 -24.230  1.00  0.00    -0.273 OA
BRANCH   6   9
HETATM    9  C   UNL     1       5.412   9.574 -23.679  1.00  0.00     0.035 A 
HETATM   10  C   UNL     1       6.613   9.881 -24.308  1.00  0.00     0.032 A 
HETATM   11  C   UNL     1       7.749   9.087 -24.107  1.00  0.00     0.033 A 
HETATM   12  C   UNL     1       7.700   7.962 -23.275  1.00  0.00     0.044 A 
HETATM   13  N   UNL     1       8.815   7.239 -23.058  1.00  0.00    -0.359 N 
HETATM   14  C   UNL     1       6.494   7.594 -22.643  1.00  0.00     0.014 A 
HETATM   15  C   UNL     1       8.861   6.179 -22.236  1.00  0.00     0.007 A 
HETATM   16  H   UNL     1       9.674   7.529 -23.523  1.00  0.00     0.166 HD
HETATM   17  C   UNL     1      10.165   5.481 -22.024  1.00  0.00     0.068 C 
HETATM   18  C   UNL     1       7.693   5.764 -21.601  1.00  0.00     0.048 A 
HETATM   19  C   UNL     1       6.487   6.428 -21.837  1.00  0.00     0.020 A 
HETATM   20  C   UNL     1       5.368   8.430 -22.858  1.00  0.00     0.045 A 
BRANCH  19  21
HETATM   21  N   UNL     1       5.369   6.048 -21.084  1.00  0.00    -0.302 NA
HETATM   22  H   UNL     1       5.328   5.077 -20.791  1.00  0.00     0.124 HD
HETATM   23  H   UNL     1       5.123   6.661 -20.308  1.00  0.00     0.124 HD
ENDBRANCH  19  21
ENDBRANCH   6   9
ENDBRANCH   4   5
ENDBRANCH   3   4
ENDBRANCH   2   3
ENDBRANCH   1   2
BRANCH   1  24
HETATM   24  C   UNL     1       0.525   7.357 -29.377  1.00  0.00     0.000 C 
BRANCH  24  25
HETATM   25  C   UNL     1      -0.448   6.269 -29.841  1.00  0.00     0.009 C 
BRANCH  25  26
HETATM   26  C   UNL     1      -1.264   6.603 -31.087  1.00  0.00     0.103 C 
BRANCH  26  27
HETATM   27  C   UNL     1      -1.765   5.396 -31.862  1.00  0.00     0.222 C 
HETATM   28  N   UNL     1      -2.746   4.680 -31.197  1.00  0.00    -0.327 N 
HETATM   29  H   UNL     1      -2.928   4.952 -30.237  1.00  0.00     0.169 HD
HETATM   30  O   UNL     1      -1.317   5.141 -32.977  1.00  0.00    -0.273 OA
BRANCH  28  31
HETATM   31  C   UNL     1      -3.493   3.593 -31.697  1.00  0.00     0.035 A 
HETATM   32  C   UNL     1      -3.136   2.252 -31.513  1.00  0.00     0.045 A 
HETATM   33  C   UNL     1      -3.902   1.184 -32.044  1.00  0.00     0.014 A 
HETATM   34  C   UNL     1      -5.054   1.517 -32.791  1.00  0.00     0.044 A 
HETATM   35  C   UNL     1      -3.582  -0.187 -31.875  1.00  0.00     0.020 A 
HETATM   36  N   UNL     1      -5.793   0.538 -33.345  1.00  0.00    -0.359 N 
HETATM   37  C   UNL     1      -5.418   2.857 -32.979  1.00  0.00     0.033 A 
HETATM   38  H   UNL     1      -6.617   0.804 -33.882  1.00  0.00     0.166 HD
HETATM   39  C   UNL     1      -5.485  -0.766 -33.253  1.00  0.00     0.007 A 
HETATM   40  C   UNL     1      -6.347  -1.768 -33.951  1.00  0.00     0.068 C 
HETATM   41  C   UNL     1      -4.358  -1.145 -32.530  1.00  0.00     0.048 A 
HETATM   42  C   UNL     1      -4.640   3.885 -32.439  1.00  0.00     0.032 A 
BRANCH  35  43
HETATM   43  N   UNL     1      -2.388  -0.608 -31.276  1.00  0.00    -0.302 NA
HETATM   44  H   UNL     1      -1.540  -0.475 -31.820  1.00  0.00     0.124 HD
HETATM   45  H   UNL     1      -2.398  -1.533 -30.849  1.00  0.00     0.124 HD
ENDBRANCH  35  43
ENDBRANCH  28  31
ENDBRANCH  26  27
ENDBRANCH  25  26
ENDBRANCH  24  25
ENDBRANCH   1  24
TORSDOF 12
ENDMDL
MODEL 7
REMARK VINA RESULT:      -8.0      4.358      9.587
REMARK  12 active torsions:
REMARK  status: ('A' for Active; 'I' for Inactive)
REMARK    1  A    between atoms: C_7  and  N_8 
REMARK    2  A    between atoms: C_12  and  N_13 
REMARK       I    between atoms: N_13  and  C_14 
REMARK    3  A    between atoms: C_14  and  C_15 
REMARK    4  A    between atoms: C_15  and  C_16 
REMARK    5  A    between atoms: C_16  and  C_17 
REMARK    6  A    between atoms: C_17  and  C_18 
REMARK    7  A    between atoms: C_18  and  C_19 
REMARK    8  A    between atoms: C_19  and  C_20 
REMARK    9  A    between atoms: C_20  and  C_21 
REMARK   10  A    between atoms: C_21  and  C_22 
REMARK       I    between atoms: C_22  and  N_23 
REMARK   11  A    between atoms: N_23  and  C_24 
REMARK   12  A    between atoms: C_33  and  N_34 
ROOT
HETATM    1  C   UNL     1     -11.961   5.692 -34.836  1.00  0.00     0.000 C 
ENDROOT
BRANCH   1   2
HETATM    2  C   UNL     1     -12.214   4.330 -35.493  1.00  0.00     0.000 C 
BRANCH   2   3
HETATM    3  C   UNL     1     -12.484   3.204 -34.489  1.00  0.00     0.009 C 
BRANCH   3   4
HETATM    4  C   UNL     1     -11.924   1.831 -34.871  1.00  0.00     0.103 C 
BRANCH   4   5
HETATM    5  C   UNL     1     -12.010   0.804 -33.763  1.00  0.00     0.222 C 
HETATM    6  N   UNL     1     -10.895   0.351 -33.116  1.00  0.00    -0.327 N 
HETATM    7  H   UNL     1     -11.186  -0.338 -32.429  1.00  0.00     0.169 HD
HETATM    8  O   UNL     1     -13.088   0.329 -33.402  1.00  0.00    -0.273 OA
BRANCH   6   9
HETATM    9  C   UNL     1      -9.517   0.618 -33.184  1.00  0.00     0.035 A 
HETATM   10  C   UNL     1      -8.680   0.329 -34.256  1.00  0.00     0.032 A 
HETATM   11  C   UNL     1      -7.323   0.679 -34.218  1.00  0.00     0.033 A 
HETATM   12  C   UNL     1      -6.779   1.319 -33.098  1.00  0.00     0.044 A 
HETATM   13  N   UNL     1      -5.484   1.688 -33.101  1.00  0.00    -0.359 N 
HETATM   14  C   UNL     1      -7.584   1.601 -31.976  1.00  0.00     0.014 A 
HETATM   15  C   UNL     1      -4.901   2.349 -32.089  1.00  0.00     0.007 A 
HETATM   16  H   UNL     1      -4.926   1.476 -33.927  1.00  0.00     0.166 HD
HETATM   17  C   UNL     1      -3.470   2.760 -32.219  1.00  0.00     0.068 C 
HETATM   18  C   UNL     1      -5.648   2.636 -30.950  1.00  0.00     0.048 A 
HETATM   19  C   UNL     1      -6.978   2.220 -30.854  1.00  0.00     0.020 A 
HETATM   20  C   UNL     1      -8.955   1.246 -32.055  1.00  0.00     0.045 A 
BRANCH  19  21
HETATM   21  N   UNL     1      -7.719   2.637 -29.742  1.00  0.00    -0.302 NA
HETATM   22  H   UNL     1      -7.827   3.640 -29.619  1.00  0.00     0.124 HD
HETATM   23  H   UNL     1      -8.611   2.167 -29.595  1.00  0.00     0.124 HD
ENDBRANCH  19  21
ENDBRANCH   6   9
ENDBRANCH   4   5
ENDBRANCH   3   4
ENDBRANCH   2   3
ENDBRANCH   1   2
BRANCH   1  24
HETATM   24  C   UNL     1     -10.532   6.174 -35.102  1.00  0.00     0.000 C 
BRANCH  24  25
HETATM   25  C   UNL     1      -9.636   6.191 -33.859  1.00  0.00     0.009 C 
BRANCH  25  26
HETATM   26  C   UNL     1      -8.874   4.899 -33.578  1.00  0.00     0.103 C 
BRANCH  26  27
HETATM   27  C   UNL     1      -7.368   5.062 -33.460  1.00  0.00     0.222 C 
HETATM   28  N   UNL     1      -6.979   5.849 -32.390  1.00  0.00    -0.327 N 
HETATM   29  H   UNL     1      -7.722   6.328 -31.892  1.00  0.00     0.169 HD
HETATM   30  O   UNL     1      -6.617   4.506 -34.258  1.00  0.00    -0.273 OA
BRANCH  28  31
HETATM   31  C   UNL     1      -5.663   6.087 -31.942  1.00  0.00     0.035 A 
HETATM   32  C   UNL     1      -4.596   6.409 -32.790  1.00  0.00     0.045 A 
HETATM   33  C   UNL     1      -3.282   6.625 -32.305  1.00  0.00     0.014 A 
HETATM   34  C   UNL     1      -3.070   6.491 -30.915  1.00  0.00     0.044 A 
HETATM   35  C   UNL     1      -2.176   6.960 -33.126  1.00  0.00     0.020 A 
HETATM   36  N   UNL     1      -1.832   6.653 -30.414  1.00  0.00    -0.359 N 
HETATM   37  C   UNL     1      -4.132   6.170 -30.060  1.00  0.00     0.033 A 
HETATM   38  H   UNL     1      -1.703   6.548 -29.408  1.00  0.00     0.166 HD
HETATM   39  C   UNL     1      -0.753   6.913 -31.171  1.00  0.00     0.007 A 
HETATM   40  C   UNL     1       0.586   7.021 -30.515  1.00  0.00     0.068 C 
HETATM   41  C   UNL     1      -0.909   7.051 -32.546  1.00  0.00     0.048 A 
HETATM   42  C   UNL     1      -5.417   5.966 -30.572  1.00  0.00     0.032 A 
BRANCH  35  43
HETATM   43  N   UNL     1      -2.259   6.973 -34.525  1.00  0.00    -0.302 NA
HETATM   44  H   UNL     1      -3.156   7.244 -34.920  1.00  0.00     0.124 HD
HETATM   45  H   UNL     1      -1.887   6.157 -35.007  1.00  0.00     0.124 HD
ENDBRANCH  35  43
ENDBRANCH  28  31
ENDBRANCH  26  27
ENDBRANCH  25  26
ENDBRANCH  24  25
ENDBRANCH   1  24
TORSDOF 12
ENDMDL
MODEL 8
REMARK VINA RESULT:      -7.9      3.846      9.890
REMARK  12 active torsions:
REMARK  status: ('A' for Active; 'I' for Inactive)
REMARK    1  A    between atoms: C_7  and  N_8 
REMARK    2  A    between atoms: C_12  and  N_13 
REMARK       I    between atoms: N_13  and  C_14 
REMARK    3  A    between atoms: C_14  and  C_15 
REMARK    4  A    between atoms: C_15  and  C_16 
REMARK    5  A    between atoms: C_16  and  C_17 
REMARK    6  A    between atoms: C_17  and  C_18 
REMARK    7  A    between atoms: C_18  and  C_19 
REMARK    8  A    between atoms: C_19  and  C_20 
REMARK    9  A    between atoms: C_20  and  C_21 
REMARK   10  A    between atoms: C_21  and  C_22 
REMARK       I    between atoms: C_22  and  N_23 
REMARK   11  A    between atoms: N_23  and  C_24 
REMARK   12  A    between atoms: C_33  and  N_34 
ROOT
HETATM    1  C   UNL     1      -9.738   5.311 -34.847  1.00  0.00     0.000 C 
ENDROOT
BRANCH   1   2
HETATM    2  C   UNL     1     -10.869   4.384 -35.305  1.00  0.00     0.000 C 
BRANCH   2   3
HETATM    3  C   UNL     1     -11.297   3.365 -34.242  1.00  0.00     0.009 C 
BRANCH   3   4
HETATM    4  C   UNL     1     -11.769   2.011 -34.779  1.00  0.00     0.103 C 
BRANCH   4   5
HETATM    5  C   UNL     1     -11.884   0.938 -33.719  1.00  0.00     0.222 C 
HETATM    6  N   UNL     1     -10.783   0.425 -33.093  1.00  0.00    -0.327 N 
HETATM    7  H   UNL     1     -11.094  -0.286 -32.438  1.00  0.00     0.169 HD
HETATM    8  O   UNL     1     -12.976   0.476 -33.380  1.00  0.00    -0.273 OA
BRANCH   6   9
HETATM    9  C   UNL     1      -9.398   0.657 -33.149  1.00  0.00     0.035 A 
HETATM   10  C   UNL     1      -8.563   0.369 -34.223  1.00  0.00     0.032 A 
HETATM   11  C   UNL     1      -7.198   0.681 -34.171  1.00  0.00     0.033 A 
HETATM   12  C   UNL     1      -6.642   1.283 -33.036  1.00  0.00     0.044 A 
HETATM   13  N   UNL     1      -5.338   1.618 -33.025  1.00  0.00    -0.359 N 
HETATM   14  C   UNL     1      -7.446   1.564 -31.911  1.00  0.00     0.014 A 
HETATM   15  C   UNL     1      -4.743   2.242 -31.997  1.00  0.00     0.007 A 
HETATM   16  H   UNL     1      -4.782   1.409 -33.853  1.00  0.00     0.166 HD
HETATM   17  C   UNL     1      -3.302   2.618 -32.112  1.00  0.00     0.068 C 
HETATM   18  C   UNL     1      -5.488   2.525 -30.855  1.00  0.00     0.048 A 
HETATM   19  C   UNL     1      -6.830   2.143 -30.774  1.00  0.00     0.020 A 
HETATM   20  C   UNL     1      -8.826   1.247 -32.005  1.00  0.00     0.045 A 
BRANCH  19  21
HETATM   21  N   UNL     1      -7.565   2.556 -29.657  1.00  0.00    -0.302 NA
HETATM   22  H   UNL     1      -8.397   3.109 -29.840  1.00  0.00     0.124 HD
HETATM   23  H   UNL     1      -7.767   1.838 -28.963  1.00  0.00     0.124 HD
ENDBRANCH  19  21
ENDBRANCH   6   9
ENDBRANCH   4   5
ENDBRANCH   3   4
ENDBRANCH   2   3
ENDBRANCH   1   2
BRANCH   1  24
HETATM   24  C   UNL     1      -8.714   4.553 -33.997  1.00  0.00     0.000 C 
BRANCH  24  25
HETATM   25  C   UNL     1      -7.882   5.448 -33.073  1.00  0.00     0.009 C 
BRANCH  25  26
HETATM   26  C   UNL     1      -6.374   5.409 -33.300  1.00  0.00     0.103 C 
BRANCH  26  27
HETATM   27  C   UNL     1      -5.539   5.847 -32.109  1.00  0.00     0.222 C 
HETATM   28  N   UNL     1      -4.219   6.118 -32.428  1.00  0.00    -0.327 N 
HETATM   29  H   UNL     1      -3.926   5.876 -33.369  1.00  0.00     0.169 HD
HETATM   30  O   UNL     1      -6.047   5.951 -30.996  1.00  0.00    -0.273 OA
BRANCH  28  31
HETATM   31  C   UNL     1      -3.231   6.658 -31.579  1.00  0.00     0.035 A 
HETATM   32  C   UNL     1      -2.151   5.924 -31.073  1.00  0.00     0.045 A 
HETATM   33  C   UNL     1      -1.185   6.496 -30.208  1.00  0.00     0.014 A 
HETATM   34  C   UNL     1      -1.352   7.852 -29.851  1.00  0.00     0.044 A 
HETATM   35  C   UNL     1      -0.074   5.792 -29.680  1.00  0.00     0.020 A 
HETATM   36  N   UNL     1      -0.480   8.428 -29.004  1.00  0.00    -0.359 N 
HETATM   37  C   UNL     1      -2.429   8.594 -30.354  1.00  0.00     0.033 A 
HETATM   38  H   UNL     1      -0.622   9.407 -28.759  1.00  0.00     0.166 HD
HETATM   39  C   UNL     1       0.550   7.775 -28.441  1.00  0.00     0.007 A 
HETATM   40  C   UNL     1       1.428   8.498 -27.471  1.00  0.00     0.068 C 
HETATM   41  C   UNL     1       0.755   6.435 -28.757  1.00  0.00     0.048 A 
HETATM   42  C   UNL     1      -3.362   7.998 -31.208  1.00  0.00     0.032 A 
BRANCH  35  43
HETATM   43  N   UNL     1       0.093   4.413 -29.860  1.00  0.00    -0.302 NA
HETATM   44  H   UNL     1      -0.522   3.969 -30.538  1.00  0.00     0.124 HD
HETATM   45  H   UNL     1       0.157   3.851 -29.013  1.00  0.00     0.124 HD
ENDBRANCH  35  43
ENDBRANCH  28  31
ENDBRANCH  26  27
ENDBRANCH  25  26
ENDBRANCH  24  25
ENDBRANCH   1  24
TORSDOF 12
ENDMDL
MODEL 9
REMARK VINA RESULT:      -7.9      4.613      7.912
REMARK  12 active torsions:
REMARK  status: ('A' for Active; 'I' for Inactive)
REMARK    1  A    between atoms: C_7  and  N_8 
REMARK    2  A    between atoms: C_12  and  N_13 
REMARK       I    between atoms: N_13  and  C_14 
REMARK    3  A    between atoms: C_14  and  C_15 
REMARK    4  A    between atoms: C_15  and  C_16 
REMARK    5  A    between atoms: C_16  and  C_17 
REMARK    6  A    between atoms: C_17  and  C_18 
REMARK    7  A    between atoms: C_18  and  C_19 
REMARK    8  A    between atoms: C_19  and  C_20 
REMARK    9  A    between atoms: C_20  and  C_21 
REMARK   10  A    between atoms: C_21  and  C_22 
REMARK       I    between atoms: C_22  and  N_23 
REMARK   11  A    between atoms: N_23  and  C_24 
REMARK   12  A    between atoms: C_33  and  N_34 
ROOT
HETATM    1  C   UNL     1      -2.756   6.336 -34.251  1.00  0.00     0.000 C 
ENDROOT
BRANCH   1   2
HETATM    2  C   UNL     1      -1.633   5.683 -33.439  1.00  0.00     0.000 C 
BRANCH   2   3
HETATM    3  C   UNL     1      -1.930   4.235 -33.032  1.00  0.00     0.009 C 
BRANCH   3   4
HETATM    4  C   UNL     1      -2.168   4.005 -31.537  1.00  0.00     0.103 C 
BRANCH   4   5
HETATM    5  C   UNL     1      -3.624   4.075 -31.131  1.00  0.00     0.222 C 
HETATM    6  N   UNL     1      -4.469   3.017 -31.305  1.00  0.00    -0.327 N 
HETATM    7  H   UNL     1      -5.392   3.293 -30.980  1.00  0.00     0.169 HD
HETATM    8  O   UNL     1      -4.109   5.093 -30.631  1.00  0.00    -0.273 OA
BRANCH   6   9
HETATM    9  C   UNL     1      -4.349   1.707 -31.800  1.00  0.00     0.035 A 
HETATM   10  C   UNL     1      -3.407   0.766 -31.402  1.00  0.00     0.032 A 
HETATM   11  C   UNL     1      -3.412  -0.525 -31.947  1.00  0.00     0.033 A 
HETATM   12  C   UNL     1      -4.360  -0.894 -32.909  1.00  0.00     0.044 A 
HETATM   13  N   UNL     1      -4.377  -2.154 -33.385  1.00  0.00    -0.359 N 
HETATM   14  C   UNL     1      -5.314   0.039 -33.365  1.00  0.00     0.014 A 
HETATM   15  C   UNL     1      -5.283  -2.598 -34.269  1.00  0.00     0.007 A 
HETATM   16  H   UNL     1      -3.680  -2.809 -33.035  1.00  0.00     0.166 HD
HETATM   17  C   UNL     1      -5.245  -4.031 -34.690  1.00  0.00     0.068 C 
HETATM   18  C   UNL     1      -6.236  -1.712 -34.765  1.00  0.00     0.048 A 
HETATM   19  C   UNL     1      -6.231  -0.373 -34.364  1.00  0.00     0.020 A 
HETATM   20  C   UNL     1      -5.288   1.332 -32.781  1.00  0.00     0.045 A 
BRANCH  19  21
HETATM   21  N   UNL     1      -7.280   0.447 -34.797  1.00  0.00    -0.302 NA
HETATM   22  H   UNL     1      -7.120   0.976 -35.649  1.00  0.00     0.124 HD
HETATM   23  H   UNL     1      -8.204   0.018 -34.818  1.00  0.00     0.124 HD
ENDBRANCH  19  21
ENDBRANCH   6   9
ENDBRANCH   4   5
ENDBRANCH   3   4
ENDBRANCH   2   3
ENDBRANCH   1   2
BRANCH   1  24
HETATM   24  C   UNL     1      -3.753   5.288 -34.755  1.00  0.00     0.000 C 
BRANCH  24  25
HETATM   25  C   UNL     1      -5.147   5.399 -34.130  1.00  0.00     0.009 C 
BRANCH  25  26
HETATM   26  C   UNL     1      -6.005   4.140 -34.204  1.00  0.00     0.103 C 
BRANCH  26  27
HETATM   27  C   UNL     1      -7.492   4.368 -33.988  1.00  0.00     0.222 C 
HETATM   28  N   UNL     1      -8.170   3.235 -33.572  1.00  0.00    -0.327 N 
HETATM   29  H   UNL     1      -7.644   2.368 -33.582  1.00  0.00     0.169 HD
HETATM   30  O   UNL     1      -7.983   5.480 -34.164  1.00  0.00    -0.273 OA
BRANCH  28  31
HETATM   31  C   UNL     1      -9.520   3.150 -33.172  1.00  0.00     0.035 A 
HETATM   32  C   UNL     1     -10.523   2.539 -33.935  1.00  0.00     0.045 A 
HETATM   33  C   UNL     1     -11.873   2.487 -33.508  1.00  0.00     0.014 A 
HETATM   34  C   UNL     1     -12.190   3.092 -32.272  1.00  0.00     0.044 A 
HETATM   35  C   UNL     1     -12.918   1.872 -34.244  1.00  0.00     0.020 A 
HETATM   36  N   UNL     1     -13.465   3.098 -31.843  1.00  0.00    -0.359 N 
HETATM   37  C   UNL     1     -11.192   3.705 -31.502  1.00  0.00     0.033 A 
HETATM   38  H   UNL     1     -13.670   3.544 -30.949  1.00  0.00     0.166 HD
HETATM   39  C   UNL     1     -14.486   2.576 -32.542  1.00  0.00     0.007 A 
HETATM   40  C   UNL     1     -15.873   2.685 -31.996  1.00  0.00     0.068 C 
HETATM   41  C   UNL     1     -14.227   1.972 -33.768  1.00  0.00     0.048 A 
HETATM   42  C   UNL     1      -9.869   3.736 -31.953  1.00  0.00     0.032 A 
BRANCH  35  43
HETATM   43  N   UNL     1     -12.727   1.376 -35.541  1.00  0.00    -0.302 NA
HETATM   44  H   UNL     1     -13.569   1.144 -36.062  1.00  0.00     0.124 HD
HETATM   45  H   UNL     1     -12.028   0.643 -35.646  1.00  0.00     0.124 HD
ENDBRANCH  35  43
ENDBRANCH  28  31
ENDBRANCH  26  27
ENDBRANCH  25  26
ENDBRANCH  24  25
ENDBRANCH   1  24
TORSDOF 12
ENDMDL
MODEL 10
REMARK VINA RESULT:      -7.9      2.274      4.537
REMARK  12 active torsions:
REMARK  status: ('A' for Active; 'I' for Inactive)
REMARK    1  A    between atoms: C_7  and  N_8 
REMARK    2  A    between atoms: C_12  and  N_13 
REMARK       I    between atoms: N_13  and  C_14 
REMARK    3  A    between atoms: C_14  and  C_15 
REMARK    4  A    between atoms: C_15  and  C_16 
REMARK    5  A    between atoms: C_16  and  C_17 
REMARK    6  A    between atoms: C_17  and  C_18 
REMARK    7  A    between atoms: C_18  and  C_19 
REMARK    8  A    between atoms: C_19  and  C_20 
REMARK    9  A    between atoms: C_20  and  C_21 
REMARK   10  A    between atoms: C_21  and  C_22 
REMARK       I    between atoms: C_22  and  N_23 
REMARK   11  A    between atoms: N_23  and  C_24 
REMARK   12  A    between atoms: C_33  and  N_34 
ROOT
HETATM    1  C   UNL     1      -2.027   5.873 -33.211  1.00  0.00     0.000 C 
ENDROOT
BRANCH   1   2
HETATM    2  C   UNL     1      -0.800   5.561 -32.347  1.00  0.00     0.000 C 
BRANCH   2   3
HETATM    3  C   UNL     1      -0.359   6.730 -31.460  1.00  0.00     0.009 C 
BRANCH   3   4
HETATM    4  C   UNL     1      -0.214   6.412 -29.969  1.00  0.00     0.103 C 
BRANCH   4   5
HETATM    5  C   UNL     1      -0.074   7.635 -29.091  1.00  0.00     0.222 C 
HETATM    6  N   UNL     1      -1.158   8.367 -28.700  1.00  0.00    -0.327 N 
HETATM    7  H   UNL     1      -0.829   9.145 -28.135  1.00  0.00     0.169 HD
HETATM    8  O   UNL     1       1.027   8.028 -28.699  1.00  0.00    -0.273 OA
BRANCH   6   9
HETATM    9  C   UNL     1      -2.549   8.281 -28.889  1.00  0.00     0.035 A 
HETATM   10  C   UNL     1      -3.312   9.095 -29.718  1.00  0.00     0.032 A 
HETATM   11  C   UNL     1      -4.692   8.886 -29.851  1.00  0.00     0.033 A 
HETATM   12  C   UNL     1      -5.333   7.860 -29.147  1.00  0.00     0.044 A 
HETATM   13  N   UNL     1      -6.651   7.647 -29.324  1.00  0.00    -0.359 N 
HETATM   14  C   UNL     1      -4.603   7.032 -28.270  1.00  0.00     0.014 A 
HETATM   15  C   UNL     1      -7.327   6.654 -28.725  1.00  0.00     0.007 A 
HETATM   16  H   UNL     1      -7.153   8.257 -29.968  1.00  0.00     0.166 HD
HETATM   17  C   UNL     1      -8.777   6.473 -29.036  1.00  0.00     0.068 C 
HETATM   18  C   UNL     1      -6.655   5.819 -27.836  1.00  0.00     0.048 A 
HETATM   19  C   UNL     1      -5.303   6.029 -27.554  1.00  0.00     0.020 A 
HETATM   20  C   UNL     1      -3.206   7.263 -28.172  1.00  0.00     0.045 A 
BRANCH  19  21
HETATM   21  N   UNL     1      -4.647   5.092 -26.747  1.00  0.00    -0.302 NA
HETATM   22  H   UNL     1      -5.088   4.181 -26.659  1.00  0.00     0.124 HD
HETATM   23  H   UNL     1      -3.647   4.983 -26.910  1.00  0.00     0.124 HD
ENDBRANCH  19  21
ENDBRANCH   6   9
ENDBRANCH   4   5
ENDBRANCH   3   4
ENDBRANCH   2   3
ENDBRANCH   1   2
BRANCH   1  24
HETATM   24  C   UNL     1      -3.057   6.692 -32.429  1.00  0.00     0.000 C 
BRANCH  24  25
HETATM   25  C   UNL     1      -4.263   5.881 -31.943  1.00  0.00     0.009 C 
BRANCH  25  26
HETATM   26  C   UNL     1      -5.411   5.747 -32.939  1.00  0.00     0.103 C 
BRANCH  26  27
HETATM   27  C   UNL     1      -5.424   4.446 -33.724  1.00  0.00     0.222 C 
HETATM   28  N   UNL     1      -5.706   3.335 -32.947  1.00  0.00    -0.327 N 
HETATM   29  H   UNL     1      -5.743   3.486 -31.945  1.00  0.00     0.169 HD
HETATM   30  O   UNL     1      -5.216   4.446 -34.934  1.00  0.00    -0.273 OA
BRANCH  28  31
HETATM   31  C   UNL     1      -5.911   2.013 -33.395  1.00  0.00     0.035 A 
HETATM   32  C   UNL     1      -5.082   0.937 -33.054  1.00  0.00     0.045 A 
HETATM   33  C   UNL     1      -5.309  -0.376 -33.536  1.00  0.00     0.014 A 
HETATM   34  C   UNL     1      -6.409  -0.572 -34.400  1.00  0.00     0.044 A 
HETATM   35  C   UNL     1      -4.501  -1.495 -33.210  1.00  0.00     0.020 A 
HETATM   36  N   UNL     1      -6.643  -1.795 -34.911  1.00  0.00    -0.359 N 
HETATM   37  C   UNL     1      -7.243   0.499 -34.746  1.00  0.00     0.033 A 
HETATM   38  H   UNL     1      -7.441  -1.911 -35.534  1.00  0.00     0.166 HD
HETATM   39  C   UNL     1      -5.864  -2.862 -34.668  1.00  0.00     0.007 A 
HETATM   40  C   UNL     1      -6.185  -4.163 -35.330  1.00  0.00     0.068 C 
HETATM   41  C   UNL     1      -4.765  -2.719 -33.826  1.00  0.00     0.048 A 
HETATM   42  C   UNL     1      -6.991   1.782 -34.249  1.00  0.00     0.032 A 
BRANCH  35  43
HETATM   43  N   UNL     1      -3.311  -1.371 -32.481  1.00  0.00    -0.302 NA
HETATM   44  H   UNL     1      -3.409  -1.241 -31.477  1.00  0.00     0.124 HD
HETATM   45  H   UNL     1      -2.615  -0.731 -32.858  1.00  0.00     0.124 HD
ENDBRANCH  35  43
ENDBRANCH  28  31
ENDBRANCH  26  27
ENDBRANCH  25  26
ENDBRANCH  24  25
ENDBRANCH   1  24
TORSDOF 12
ENDMDL
