MODEL 1
REMARK VINA RESULT:      -7.6      0.000      0.000
REMARK  7 active torsions:
REMARK  status: ('A' for Active; 'I' for Inactive)
REMARK    1  A    between atoms: O_2  and  C_3 
REMARK    2  A    between atoms: C_4  and  O_5 
REMARK    3  A    between atoms: C_9  and  C_10 
REMARK    4  A    between atoms: C_10  and  N_11 
REMARK    5  A    between atoms: C_14  and  C_15 
REMARK    6  A    between atoms: C_15  and  N_16 
REMARK    7  A    between atoms: N_16  and  C_17 
ROOT
HETATM    1  N   UNL     1      -5.757   1.009 -31.709  1.00  0.00    -0.067 N 
HETATM    2  H   UNL     1      -4.961   0.656 -31.154  1.00  0.00     0.280 HD
HETATM    3  C   UNL     1      -6.981   0.246 -31.248  1.00  0.00     0.241 C 
HETATM    4  C   UNL     1      -8.041   1.309 -30.964  1.00  0.00     0.031 C 
HETATM    5  C   UNL     1      -7.193   2.475 -30.461  1.00  0.00     0.035 C 
HETATM    6  C   UNL     1      -5.948   2.465 -31.334  1.00  0.00     0.235 C 
ENDROOT
BRANCH   1   7
HETATM    7  C   UNL     1      -5.330   0.817 -33.149  1.00  0.00     0.274 C 
BRANCH   7   8
HETATM    8  C   UNL     1      -5.329  -0.617 -33.609  1.00  0.00    -0.012 A 
HETATM    9  C   UNL     1      -6.262  -1.110 -34.538  1.00  0.00     0.021 A 
HETATM   10  C   UNL     1      -6.225  -2.444 -34.940  1.00  0.00     0.059 A 
HETATM   11 BR   UNL     1      -7.596   0.004 -35.303  1.00  0.00    -0.050 Br
HETATM   12  C   UNL     1      -5.246  -3.283 -34.425  1.00  0.00     0.100 A 
HETATM   13  C   UNL     1      -4.291  -2.826 -33.515  1.00  0.00     0.101 A 
HETATM   14  C   UNL     1      -4.348  -1.497 -33.096  1.00  0.00     0.049 A 
BRANCH  12  15
HETATM   15  O   UNL     1      -5.235  -4.582 -34.849  1.00  0.00    -0.358 OA
HETATM   16  H   UNL     1      -5.695  -4.601 -35.711  1.00  0.00     0.218 HD
ENDBRANCH  12  15
BRANCH  13  17
HETATM   17  O   UNL     1      -3.378  -3.761 -33.111  1.00  0.00    -0.353 OA
HETATM   18  C   UNL     1      -2.943  -3.712 -31.757  1.00  0.00     0.210 C 
ENDBRANCH  13  17
ENDBRANCH   7   8
ENDBRANCH   1   7
BRANCH   4  19
HETATM   19  C   UNL     1      -8.874   1.623 -32.221  1.00  0.00     0.127 C 
BRANCH  19  20
HETATM   20  N   UNL     1      -9.856   0.568 -32.484  1.00  0.00    -0.376 N 
HETATM   21  H   UNL     1      -9.466  -0.369 -32.539  1.00  0.00     0.161 HD
BRANCH  20  22
HETATM   22  C   UNL     1     -10.934   0.832 -33.324  1.00  0.00     0.100 A 
HETATM   23  N   UNL     1     -12.065   0.122 -33.161  1.00  0.00    -0.353 N 
HETATM   24  H   UNL     1     -12.094  -0.580 -32.428  1.00  0.00     0.166 HD
HETATM   25  C   UNL     1     -13.170   0.295 -33.907  1.00  0.00     0.089 A 
HETATM   26  C   UNL     1     -13.196   1.260 -34.900  1.00  0.00     0.017 A 
HETATM   27  C   UNL     1     -12.070   2.044 -35.096  1.00  0.00     0.005 A 
HETATM   28  C   UNL     1     -10.941   1.836 -34.304  1.00  0.00     0.048 A 
ENDBRANCH  20  22
ENDBRANCH  19  20
ENDBRANCH   4  19
TORSDOF 7
ENDMDL
MODEL 2
REMARK VINA RESULT:      -7.6      3.492      6.131
REMARK  7 active torsions:
REMARK  status: ('A' for Active; 'I' for Inactive)
REMARK    1  A    between atoms: O_2  and  C_3 
REMARK    2  A    between atoms: C_4  and  O_5 
REMARK    3  A    between atoms: C_9  and  C_10 
REMARK    4  A    between atoms: C_10  and  N_11 
REMARK    5  A    between atoms: C_14  and  C_15 
REMARK    6  A    between atoms: C_15  and  N_16 
REMARK    7  A    between atoms: N_16  and  C_17 
ROOT
HETATM    1  N   UNL     1      -5.679   0.588 -32.349  1.00  0.00    -0.067 N 
HETATM    2  H   UNL     1      -6.650   0.265 -32.497  1.00  0.00     0.280 HD
HETATM    3  C   UNL     1      -5.742   2.094 -32.198  1.00  0.00     0.241 C 
HETATM    4  C   UNL     1      -4.944   2.409 -30.934  1.00  0.00     0.031 C 
HETATM    5  C   UNL     1      -5.226   1.184 -30.067  1.00  0.00     0.035 C 
HETATM    6  C   UNL     1      -5.214   0.007 -31.030  1.00  0.00     0.235 C 
ENDROOT
BRANCH   1   7
HETATM    7  C   UNL     1      -4.916   0.048 -33.539  1.00  0.00     0.274 C 
BRANCH   7   8
HETATM    8  C   UNL     1      -5.406  -1.287 -34.037  1.00  0.00    -0.012 A 
HETATM    9  C   UNL     1      -6.646  -1.440 -34.683  1.00  0.00     0.021 A 
HETATM   10  C   UNL     1      -7.062  -2.692 -35.131  1.00  0.00     0.059 A 
HETATM   11 BR   UNL     1      -7.800   0.036 -34.996  1.00  0.00    -0.050 Br
HETATM   12  C   UNL     1      -6.233  -3.791 -34.947  1.00  0.00     0.100 A 
HETATM   13  C   UNL     1      -4.988  -3.675 -34.327  1.00  0.00     0.101 A 
HETATM   14  C   UNL     1      -4.587  -2.425 -33.857  1.00  0.00     0.049 A 
BRANCH  12  15
HETATM   15  O   UNL     1      -6.670  -5.001 -35.407  1.00  0.00    -0.358 OA
HETATM   16  H   UNL     1      -7.591  -4.873 -35.707  1.00  0.00     0.218 HD
ENDBRANCH  12  15
BRANCH  13  17
HETATM   17  O   UNL     1      -4.274  -4.838 -34.233  1.00  0.00    -0.353 OA
HETATM   18  C   UNL     1      -3.319  -4.942 -33.184  1.00  0.00     0.210 C 
ENDBRANCH  13  17
ENDBRANCH   7   8
ENDBRANCH   1   7
BRANCH   4  19
HETATM   19  C   UNL     1      -3.454   2.635 -31.250  1.00  0.00     0.127 C 
BRANCH  19  20
HETATM   20  N   UNL     1      -3.098   4.053 -31.147  1.00  0.00    -0.376 N 
HETATM   21  H   UNL     1      -3.747   4.613 -30.600  1.00  0.00     0.161 HD
BRANCH  20  22
HETATM   22  C   UNL     1      -2.506   4.690 -32.232  1.00  0.00     0.100 A 
HETATM   23  N   UNL     1      -1.702   5.744 -32.000  1.00  0.00    -0.353 N 
HETATM   24  H   UNL     1      -1.553   6.035 -31.038  1.00  0.00     0.166 HD
HETATM   25  C   UNL     1      -1.070   6.430 -32.967  1.00  0.00     0.089 A 
HETATM   26  C   UNL     1      -1.214   6.056 -34.293  1.00  0.00     0.017 A 
HETATM   27  C   UNL     1      -2.007   4.960 -34.594  1.00  0.00     0.005 A 
HETATM   28  C   UNL     1      -2.647   4.271 -33.564  1.00  0.00     0.048 A 
ENDBRANCH  20  22
ENDBRANCH  19  20
ENDBRANCH   4  19
TORSDOF 7
ENDMDL
MODEL 3
REMARK VINA RESULT:      -7.4      1.820      2.707
REMARK  7 active torsions:
REMARK  status: ('A' for Active; 'I' for Inactive)
REMARK    1  A    between atoms: O_2  and  C_3 
REMARK    2  A    between atoms: C_4  and  O_5 
REMARK    3  A    between atoms: C_9  and  C_10 
REMARK    4  A    between atoms: C_10  and  N_11 
REMARK    5  A    between atoms: C_14  and  C_15 
REMARK    6  A    between atoms: C_15  and  N_16 
REMARK    7  A    between atoms: N_16  and  C_17 
ROOT
HETATM    1  N   UNL     1      -7.454   0.440 -32.324  1.00  0.00    -0.067 N 
HETATM    2  H   UNL     1      -7.130  -0.234 -31.611  1.00  0.00     0.280 HD
HETATM    3  C   UNL     1      -8.802  -0.054 -32.808  1.00  0.00     0.241 C 
HETATM    4  C   UNL     1      -9.731   1.156 -32.731  1.00  0.00     0.031 C 
HETATM    5  C   UNL     1      -9.182   1.901 -31.517  1.00  0.00     0.035 C 
HETATM    6  C   UNL     1      -7.671   1.763 -31.618  1.00  0.00     0.235 C 
ENDROOT
BRANCH   1   7
HETATM    7  C   UNL     1      -6.333   0.485 -33.340  1.00  0.00     0.274 C 
BRANCH   7   8
HETATM    8  C   UNL     1      -5.517  -0.779 -33.418  1.00  0.00    -0.012 A 
HETATM    9  C   UNL     1      -4.435  -1.031 -32.556  1.00  0.00     0.021 A 
HETATM   10  C   UNL     1      -3.707  -2.215 -32.659  1.00  0.00     0.059 A 
HETATM   11 BR   UNL     1      -3.924   0.203 -31.206  1.00  0.00    -0.050 Br
HETATM   12  C   UNL     1      -4.070  -3.156 -33.614  1.00  0.00     0.100 A 
HETATM   13  C   UNL     1      -5.149  -2.950 -34.475  1.00  0.00     0.101 A 
HETATM   14  C   UNL     1      -5.858  -1.753 -34.386  1.00  0.00     0.049 A 
BRANCH  12  15
HETATM   15  O   UNL     1      -3.339  -4.309 -33.680  1.00  0.00    -0.358 OA
HETATM   16  H   UNL     1      -2.658  -4.171 -34.368  1.00  0.00     0.218 HD
ENDBRANCH  12  15
BRANCH  13  17
HETATM   17  O   UNL     1      -5.399  -3.971 -35.350  1.00  0.00    -0.353 OA
HETATM   18  C   UNL     1      -6.700  -4.545 -35.336  1.00  0.00     0.210 C 
ENDBRANCH  13  17
ENDBRANCH   7   8
ENDBRANCH   1   7
BRANCH   4  19
HETATM   19  C   UNL     1      -9.707   1.968 -34.040  1.00  0.00     0.127 C 
BRANCH  19  20
HETATM   20  N   UNL     1     -10.908   1.719 -34.841  1.00  0.00    -0.376 N 
HETATM   21  H   UNL     1     -10.890   2.132 -35.769  1.00  0.00     0.161 HD
BRANCH  20  22
HETATM   22  C   UNL     1     -12.150   1.675 -34.215  1.00  0.00     0.100 A 
HETATM   23  N   UNL     1     -12.595   2.781 -33.590  1.00  0.00    -0.353 N 
HETATM   24  H   UNL     1     -12.009   3.611 -33.600  1.00  0.00     0.166 HD
HETATM   25  C   UNL     1     -13.779   2.858 -32.960  1.00  0.00     0.089 A 
HETATM   26  C   UNL     1     -14.630   1.765 -32.941  1.00  0.00     0.017 A 
HETATM   27  C   UNL     1     -14.240   0.606 -33.593  1.00  0.00     0.005 A 
HETATM   28  C   UNL     1     -13.004   0.562 -34.237  1.00  0.00     0.048 A 
ENDBRANCH  20  22
ENDBRANCH  19  20
ENDBRANCH   4  19
TORSDOF 7
ENDMDL
MODEL 4
REMARK VINA RESULT:      -7.1      4.825      6.938
REMARK  7 active torsions:
REMARK  status: ('A' for Active; 'I' for Inactive)
REMARK    1  A    between atoms: O_2  and  C_3 
REMARK    2  A    between atoms: C_4  and  O_5 
REMARK    3  A    between atoms: C_9  and  C_10 
REMARK    4  A    between atoms: C_10  and  N_11 
REMARK    5  A    between atoms: C_14  and  C_15 
REMARK    6  A    between atoms: C_15  and  N_16 
REMARK    7  A    between atoms: N_16  and  C_17 
ROOT
HETATM    1  N   UNL     1      -4.386   2.694 -30.483  1.00  0.00    -0.067 N 
HETATM    2  H   UNL     1      -3.852   2.957 -29.638  1.00  0.00     0.280 HD
HETATM    3  C   UNL     1      -3.486   1.791 -31.302  1.00  0.00     0.241 C 
HETATM    4  C   UNL     1      -4.337   0.569 -31.641  1.00  0.00     0.031 C 
HETATM    5  C   UNL     1      -5.222   0.444 -30.403  1.00  0.00     0.035 C 
HETATM    6  C   UNL     1      -5.573   1.874 -30.021  1.00  0.00     0.235 C 
ENDROOT
BRANCH   1   7
HETATM    7  C   UNL     1      -4.782   4.016 -31.106  1.00  0.00     0.274 C 
BRANCH   7   8
HETATM    8  C   UNL     1      -3.765   4.580 -32.063  1.00  0.00    -0.012 A 
HETATM    9  C   UNL     1      -4.032   4.750 -33.433  1.00  0.00     0.021 A 
HETATM   10  C   UNL     1      -3.064   5.278 -34.285  1.00  0.00     0.059 A 
HETATM   11 BR   UNL     1      -5.715   4.292 -34.187  1.00  0.00    -0.050 Br
HETATM   12  C   UNL     1      -1.832   5.653 -33.765  1.00  0.00     0.100 A 
HETATM   13  C   UNL     1      -1.536   5.516 -32.407  1.00  0.00     0.101 A 
HETATM   14  C   UNL     1      -2.498   4.963 -31.564  1.00  0.00     0.049 A 
BRANCH  12  15
HETATM   15  O   UNL     1      -0.910   6.175 -34.628  1.00  0.00    -0.358 OA
HETATM   16  H   UNL     1      -0.113   6.378 -34.100  1.00  0.00     0.218 HD
ENDBRANCH  12  15
BRANCH  13  17
HETATM   17  O   UNL     1      -0.290   5.945 -32.038  1.00  0.00    -0.353 OA
HETATM   18  C   UNL     1       0.263   5.406 -30.843  1.00  0.00     0.210 C 
ENDBRANCH  13  17
ENDBRANCH   7   8
ENDBRANCH   1   7
BRANCH   4  19
HETATM   19  C   UNL     1      -5.111   0.770 -32.958  1.00  0.00     0.127 C 
BRANCH  19  20
HETATM   20  N   UNL     1      -6.227  -0.174 -33.068  1.00  0.00    -0.376 N 
HETATM   21  H   UNL     1      -6.845  -0.192 -32.261  1.00  0.00     0.161 HD
BRANCH  20  22
HETATM   22  C   UNL     1      -6.033  -1.388 -33.718  1.00  0.00     0.100 A 
HETATM   23  N   UNL     1      -4.774  -1.830 -33.894  1.00  0.00    -0.353 N 
HETATM   24  H   UNL     1      -4.009  -1.262 -33.543  1.00  0.00     0.166 HD
HETATM   25  C   UNL     1      -4.466  -2.989 -34.500  1.00  0.00     0.089 A 
HETATM   26  C   UNL     1      -5.472  -3.817 -34.971  1.00  0.00     0.017 A 
HETATM   27  C   UNL     1      -6.791  -3.430 -34.793  1.00  0.00     0.005 A 
HETATM   28  C   UNL     1      -7.073  -2.219 -34.160  1.00  0.00     0.048 A 
ENDBRANCH  20  22
ENDBRANCH  19  20
ENDBRANCH   4  19
TORSDOF 7
ENDMDL
MODEL 5
REMARK VINA RESULT:      -7.0      3.897      7.563
REMARK  7 active torsions:
REMARK  status: ('A' for Active; 'I' for Inactive)
REMARK    1  A    between atoms: O_2  and  C_3 
REMARK    2  A    between atoms: C_4  and  O_5 
REMARK    3  A    between atoms: C_9  and  C_10 
REMARK    4  A    between atoms: C_10  and  N_11 
REMARK    5  A    between atoms: C_14  and  C_15 
REMARK    6  A    between atoms: C_15  and  N_16 
REMARK    7  A    between atoms: N_16  and  C_17 
ROOT
HETATM    1  N   UNL     1      -7.942   1.826 -32.887  1.00  0.00    -0.067 N 
HETATM    2  H   UNL     1      -8.322   2.578 -32.289  1.00  0.00     0.280 HD
HETATM    3  C   UNL     1      -6.453   2.078 -33.008  1.00  0.00     0.241 C 
HETATM    4  C   UNL     1      -5.787   0.743 -32.682  1.00  0.00     0.031 C 
HETATM    5  C   UNL     1      -6.743   0.155 -31.647  1.00  0.00     0.035 C 
HETATM    6  C   UNL     1      -8.134   0.523 -32.139  1.00  0.00     0.235 C 
ENDROOT
BRANCH   1   7
HETATM    7  C   UNL     1      -8.757   1.908 -34.160  1.00  0.00     0.274 C 
BRANCH   7   8
HETATM    8  C   UNL     1     -10.168   2.398 -33.962  1.00  0.00    -0.012 A 
HETATM    9  C   UNL     1     -10.483   3.765 -33.867  1.00  0.00     0.021 A 
HETATM   10  C   UNL     1     -11.802   4.178 -33.687  1.00  0.00     0.059 A 
HETATM   11 BR   UNL     1      -9.149   5.111 -33.998  1.00  0.00    -0.050 Br
HETATM   12  C   UNL     1     -12.810   3.225 -33.617  1.00  0.00     0.100 A 
HETATM   13  C   UNL     1     -12.538   1.860 -33.725  1.00  0.00     0.101 A 
HETATM   14  C   UNL     1     -11.215   1.450 -33.879  1.00  0.00     0.049 A 
BRANCH  12  15
HETATM   15  O   UNL     1     -14.092   3.666 -33.448  1.00  0.00    -0.358 OA
HETATM   16  H   UNL     1     -14.504   3.085 -32.780  1.00  0.00     0.218 HD
ENDBRANCH  12  15
BRANCH  13  17
HETATM   17  O   UNL     1     -13.632   1.042 -33.656  1.00  0.00    -0.353 OA
HETATM   18  C   UNL     1     -13.403  -0.362 -33.624  1.00  0.00     0.210 C 
ENDBRANCH  13  17
ENDBRANCH   7   8
ENDBRANCH   1   7
BRANCH   4  19
HETATM   19  C   UNL     1      -5.609  -0.120 -33.945  1.00  0.00     0.127 C 
BRANCH  19  20
HETATM   20  N   UNL     1      -4.654  -1.208 -33.715  1.00  0.00    -0.376 N 
HETATM   21  H   UNL     1      -3.678  -0.944 -33.828  1.00  0.00     0.161 HD
BRANCH  20  22
HETATM   22  C   UNL     1      -4.986  -2.502 -34.101  1.00  0.00     0.100 A 
HETATM   23  N   UNL     1      -4.104  -3.491 -33.865  1.00  0.00    -0.353 N 
HETATM   24  H   UNL     1      -3.226  -3.257 -33.410  1.00  0.00     0.166 HD
HETATM   25  C   UNL     1      -4.319  -4.777 -34.186  1.00  0.00     0.089 A 
HETATM   26  C   UNL     1      -5.511  -5.156 -34.781  1.00  0.00     0.017 A 
HETATM   27  C   UNL     1      -6.472  -4.187 -35.023  1.00  0.00     0.005 A 
HETATM   28  C   UNL     1      -6.214  -2.861 -34.677  1.00  0.00     0.048 A 
ENDBRANCH  20  22
ENDBRANCH  19  20
ENDBRANCH   4  19
TORSDOF 7
ENDMDL
MODEL 6
REMARK VINA RESULT:      -6.8      3.669      6.757
REMARK  7 active torsions:
REMARK  status: ('A' for Active; 'I' for Inactive)
REMARK    1  A    between atoms: O_2  and  C_3 
REMARK    2  A    between atoms: C_4  and  O_5 
REMARK    3  A    between atoms: C_9  and  C_10 
REMARK    4  A    between atoms: C_10  and  N_11 
REMARK    5  A    between atoms: C_14  and  C_15 
REMARK    6  A    between atoms: C_15  and  N_16 
REMARK    7  A    between atoms: N_16  and  C_17 
ROOT
HETATM    1  N   UNL     1      -7.882   2.012 -32.371  1.00  0.00    -0.067 N 
HETATM    2  H   UNL     1      -7.983   2.401 -31.420  1.00  0.00     0.280 HD
HETATM    3  C   UNL     1      -7.152   0.693 -32.225  1.00  0.00     0.241 C 
HETATM    4  C   UNL     1      -7.979  -0.320 -33.015  1.00  0.00     0.031 C 
HETATM    5  C   UNL     1      -9.399   0.203 -32.811  1.00  0.00     0.035 C 
HETATM    6  C   UNL     1      -9.277   1.717 -32.882  1.00  0.00     0.235 C 
ENDROOT
BRANCH   1   7
HETATM    7  C   UNL     1      -7.180   3.102 -33.153  1.00  0.00     0.274 C 
BRANCH   7   8
HETATM    8  C   UNL     1      -5.969   3.675 -32.466  1.00  0.00    -0.012 A 
HETATM    9  C   UNL     1      -6.037   4.275 -31.196  1.00  0.00     0.021 A 
HETATM   10  C   UNL     1      -4.891   4.792 -30.593  1.00  0.00     0.059 A 
HETATM   11 BR   UNL     1      -7.670   4.396 -30.233  1.00  0.00    -0.050 Br
HETATM   12  C   UNL     1      -3.673   4.696 -31.253  1.00  0.00     0.100 A 
HETATM   13  C   UNL     1      -3.562   4.091 -32.507  1.00  0.00     0.101 A 
HETATM   14  C   UNL     1      -4.715   3.599 -33.117  1.00  0.00     0.049 A 
BRANCH  12  15
HETATM   15  O   UNL     1      -2.570   5.205 -30.628  1.00  0.00    -0.358 OA
HETATM   16  H   UNL     1      -2.753   5.180 -29.668  1.00  0.00     0.218 HD
ENDBRANCH  12  15
BRANCH  13  17
HETATM   17  O   UNL     1      -2.297   4.053 -33.024  1.00  0.00    -0.353 OA
HETATM   18  C   UNL     1      -2.071   4.723 -34.259  1.00  0.00     0.210 C 
ENDBRANCH  13  17
ENDBRANCH   7   8
ENDBRANCH   1   7
BRANCH   4  19
HETATM   19  C   UNL     1      -7.531  -0.387 -34.487  1.00  0.00     0.127 C 
BRANCH  19  20
HETATM   20  N   UNL     1      -6.133  -0.813 -34.597  1.00  0.00    -0.376 N 
HETATM   21  H   UNL     1      -5.560  -0.231 -35.202  1.00  0.00     0.161 HD
BRANCH  20  22
HETATM   22  C   UNL     1      -5.830  -2.171 -34.590  1.00  0.00     0.100 A 
HETATM   23  N   UNL     1      -4.588  -2.551 -34.239  1.00  0.00    -0.353 N 
HETATM   24  H   UNL     1      -3.915  -1.833 -33.988  1.00  0.00     0.166 HD
HETATM   25  C   UNL     1      -4.184  -3.832 -34.188  1.00  0.00     0.089 A 
HETATM   26  C   UNL     1      -5.069  -4.853 -34.490  1.00  0.00     0.017 A 
HETATM   27  C   UNL     1      -6.373  -4.526 -34.831  1.00  0.00     0.005 A 
HETATM   28  C   UNL     1      -6.756  -3.186 -34.874  1.00  0.00     0.048 A 
ENDBRANCH  20  22
ENDBRANCH  19  20
ENDBRANCH   4  19
TORSDOF 7
ENDMDL
MODEL 7
REMARK VINA RESULT:      -6.7      3.390      6.372
REMARK  7 active torsions:
REMARK  status: ('A' for Active; 'I' for Inactive)
REMARK    1  A    between atoms: O_2  and  C_3 
REMARK    2  A    between atoms: C_4  and  O_5 
REMARK    3  A    between atoms: C_9  and  C_10 
REMARK    4  A    between atoms: C_10  and  N_11 
REMARK    5  A    between atoms: C_14  and  C_15 
REMARK    6  A    between atoms: C_15  and  N_16 
REMARK    7  A    between atoms: N_16  and  C_17 
ROOT
HETATM    1  N   UNL     1      -7.153   2.683 -31.606  1.00  0.00    -0.067 N 
HETATM    2  H   UNL     1      -8.112   2.801 -31.972  1.00  0.00     0.280 HD
HETATM    3  C   UNL     1      -6.209   3.010 -32.744  1.00  0.00     0.241 C 
HETATM    4  C   UNL     1      -5.201   4.001 -32.166  1.00  0.00     0.031 C 
HETATM    5  C   UNL     1      -6.055   4.773 -31.163  1.00  0.00     0.035 C 
HETATM    6  C   UNL     1      -6.959   3.729 -30.526  1.00  0.00     0.235 C 
ENDROOT
BRANCH   1   7
HETATM    7  C   UNL     1      -7.123   1.267 -31.074  1.00  0.00     0.274 C 
BRANCH   7   8
HETATM    8  C   UNL     1      -6.754   0.227 -32.099  1.00  0.00    -0.012 A 
HETATM    9  C   UNL     1      -7.671  -0.251 -33.051  1.00  0.00     0.021 A 
HETATM   10  C   UNL     1      -7.289  -1.212 -33.985  1.00  0.00     0.059 A 
HETATM   11 BR   UNL     1      -9.457   0.391 -33.129  1.00  0.00    -0.050 Br
HETATM   12  C   UNL     1      -5.983  -1.684 -33.980  1.00  0.00     0.100 A 
HETATM   13  C   UNL     1      -5.038  -1.220 -33.062  1.00  0.00     0.101 A 
HETATM   14  C   UNL     1      -5.433  -0.279 -32.113  1.00  0.00     0.049 A 
BRANCH  12  15
HETATM   15  O   UNL     1      -5.641  -2.619 -34.915  1.00  0.00    -0.358 OA
HETATM   16  H   UNL     1      -6.288  -3.347 -34.836  1.00  0.00     0.218 HD
ENDBRANCH  12  15
BRANCH  13  17
HETATM   17  O   UNL     1      -3.789  -1.762 -33.189  1.00  0.00    -0.353 OA
HETATM   18  C   UNL     1      -3.287  -2.522 -32.096  1.00  0.00     0.210 C 
ENDBRANCH  13  17
ENDBRANCH   7   8
ENDBRANCH   1   7
BRANCH   4  19
HETATM   19  C   UNL     1      -3.991   3.276 -31.547  1.00  0.00     0.127 C 
BRANCH  19  20
HETATM   20  N   UNL     1      -2.978   4.230 -31.088  1.00  0.00    -0.376 N 
HETATM   21  H   UNL     1      -3.117   4.571 -30.141  1.00  0.00     0.161 HD
BRANCH  20  22
HETATM   22  C   UNL     1      -2.436   5.139 -31.992  1.00  0.00     0.100 A 
HETATM   23  N   UNL     1      -1.857   4.665 -33.111  1.00  0.00    -0.353 N 
HETATM   24  H   UNL     1      -1.839   3.660 -33.258  1.00  0.00     0.166 HD
HETATM   25  C   UNL     1      -1.309   5.446 -34.056  1.00  0.00     0.089 A 
HETATM   26  C   UNL     1      -1.333   6.825 -33.921  1.00  0.00     0.017 A 
HETATM   27  C   UNL     1      -1.942   7.374 -32.804  1.00  0.00     0.005 A 
HETATM   28  C   UNL     1      -2.500   6.533 -31.842  1.00  0.00     0.048 A 
ENDBRANCH  20  22
ENDBRANCH  19  20
ENDBRANCH   4  19
TORSDOF 7
ENDMDL
MODEL 8
REMARK VINA RESULT:      -6.7      3.705      6.903
REMARK  7 active torsions:
REMARK  status: ('A' for Active; 'I' for Inactive)
REMARK    1  A    between atoms: O_2  and  C_3 
REMARK    2  A    between atoms: C_4  and  O_5 
REMARK    3  A    between atoms: C_9  and  C_10 
REMARK    4  A    between atoms: C_10  and  N_11 
REMARK    5  A    between atoms: C_14  and  C_15 
REMARK    6  A    between atoms: C_15  and  N_16 
REMARK    7  A    between atoms: N_16  and  C_17 
ROOT
HETATM    1  N   UNL     1      -7.927   1.941 -33.326  1.00  0.00    -0.067 N 
HETATM    2  H   UNL     1      -8.663   2.609 -33.608  1.00  0.00     0.280 HD
HETATM    3  C   UNL     1      -8.580   0.575 -33.269  1.00  0.00     0.241 C 
HETATM    4  C   UNL     1      -7.664  -0.347 -34.073  1.00  0.00     0.031 C 
HETATM    5  C   UNL     1      -7.131   0.596 -35.149  1.00  0.00     0.035 C 
HETATM    6  C   UNL     1      -6.898   1.919 -34.437  1.00  0.00     0.235 C 
ENDROOT
BRANCH   1   7
HETATM    7  C   UNL     1      -7.388   2.500 -32.026  1.00  0.00     0.274 C 
BRANCH   7   8
HETATM    8  C   UNL     1      -5.934   2.889 -32.075  1.00  0.00    -0.012 A 
HETATM    9  C   UNL     1      -4.942   2.182 -31.373  1.00  0.00     0.021 A 
HETATM   10  C   UNL     1      -3.606   2.573 -31.447  1.00  0.00     0.059 A 
HETATM   11 BR   UNL     1      -5.358   0.662 -30.312  1.00  0.00    -0.050 Br
HETATM   12  C   UNL     1      -3.258   3.662 -32.236  1.00  0.00     0.100 A 
HETATM   13  C   UNL     1      -4.212   4.377 -32.962  1.00  0.00     0.101 A 
HETATM   14  C   UNL     1      -5.551   3.998 -32.865  1.00  0.00     0.049 A 
BRANCH  12  15
HETATM   15  O   UNL     1      -1.938   4.011 -32.291  1.00  0.00    -0.358 OA
HETATM   16  H   UNL     1      -1.907   4.986 -32.340  1.00  0.00     0.218 HD
ENDBRANCH  12  15
BRANCH  13  17
HETATM   17  O   UNL     1      -3.720   5.411 -33.709  1.00  0.00    -0.353 OA
HETATM   18  C   UNL     1      -3.684   5.244 -35.121  1.00  0.00     0.210 C 
ENDBRANCH  13  17
ENDBRANCH   7   8
ENDBRANCH   1   7
BRANCH   4  19
HETATM   19  C   UNL     1      -6.576  -0.976 -33.182  1.00  0.00     0.127 C 
BRANCH  19  20
HETATM   20  N   UNL     1      -5.402  -1.361 -33.971  1.00  0.00    -0.376 N 
HETATM   21  H   UNL     1      -5.293  -0.851 -34.843  1.00  0.00     0.161 HD
BRANCH  20  22
HETATM   22  C   UNL     1      -4.996  -2.692 -33.985  1.00  0.00     0.100 A 
HETATM   23  N   UNL     1      -5.725  -3.579 -34.686  1.00  0.00    -0.353 N 
HETATM   24  H   UNL     1      -6.545  -3.246 -35.185  1.00  0.00     0.166 HD
HETATM   25  C   UNL     1      -5.425  -4.886 -34.779  1.00  0.00     0.089 A 
HETATM   26  C   UNL     1      -4.301  -5.389 -34.144  1.00  0.00     0.017 A 
HETATM   27  C   UNL     1      -3.494  -4.517 -33.430  1.00  0.00     0.005 A 
HETATM   28  C   UNL     1      -3.836  -3.168 -33.355  1.00  0.00     0.048 A 
ENDBRANCH  20  22
ENDBRANCH  19  20
ENDBRANCH   4  19
TORSDOF 7
ENDMDL
MODEL 9
REMARK VINA RESULT:      -6.6      3.947      7.157
REMARK  7 active torsions:
REMARK  status: ('A' for Active; 'I' for Inactive)
REMARK    1  A    between atoms: O_2  and  C_3 
REMARK    2  A    between atoms: C_4  and  O_5 
REMARK    3  A    between atoms: C_9  and  C_10 
REMARK    4  A    between atoms: C_10  and  N_11 
REMARK    5  A    between atoms: C_14  and  C_15 
REMARK    6  A    between atoms: C_15  and  N_16 
REMARK    7  A    between atoms: N_16  and  C_17 
ROOT
HETATM    1  N   UNL     1      -7.168   1.053 -31.010  1.00  0.00    -0.067 N 
HETATM    2  H   UNL     1      -7.440   1.638 -30.203  1.00  0.00     0.280 HD
HETATM    3  C   UNL     1      -6.226   1.886 -31.853  1.00  0.00     0.241 C 
HETATM    4  C   UNL     1      -5.014   0.993 -32.113  1.00  0.00     0.031 C 
HETATM    5  C   UNL     1      -4.939   0.177 -30.824  1.00  0.00     0.035 C 
HETATM    6  C   UNL     1      -6.385  -0.123 -30.461  1.00  0.00     0.235 C 
ENDROOT
BRANCH   1   7
HETATM    7  C   UNL     1      -8.482   0.648 -31.643  1.00  0.00     0.274 C 
BRANCH   7   8
HETATM    8  C   UNL     1      -9.212   1.774 -32.329  1.00  0.00    -0.012 A 
HETATM    9  C   UNL     1      -9.277   1.887 -33.729  1.00  0.00     0.021 A 
HETATM   10  C   UNL     1      -9.965   2.942 -34.324  1.00  0.00     0.059 A 
HETATM   11 BR   UNL     1      -8.458   0.611 -34.874  1.00  0.00    -0.050 Br
HETATM   12  C   UNL     1     -10.603   3.878 -33.520  1.00  0.00     0.100 A 
HETATM   13  C   UNL     1     -10.575   3.790 -32.127  1.00  0.00     0.101 A 
HETATM   14  C   UNL     1      -9.864   2.747 -31.536  1.00  0.00     0.049 A 
BRANCH  12  15
HETATM   15  O   UNL     1     -11.275   4.895 -34.138  1.00  0.00    -0.358 OA
HETATM   16  H   UNL     1     -11.359   4.645 -35.080  1.00  0.00     0.218 HD
ENDBRANCH  12  15
BRANCH  13  17
HETATM   17  O   UNL     1     -11.263   4.772 -31.468  1.00  0.00    -0.353 OA
HETATM   18  C   UNL     1     -12.478   4.406 -30.826  1.00  0.00     0.210 C 
ENDBRANCH  13  17
ENDBRANCH   7   8
ENDBRANCH   1   7
BRANCH   4  19
HETATM   19  C   UNL     1      -5.199   0.150 -33.389  1.00  0.00     0.127 C 
BRANCH  19  20
HETATM   20  N   UNL     1      -4.418  -1.088 -33.326  1.00  0.00    -0.376 N 
HETATM   21  H   UNL     1      -3.415  -0.961 -33.433  1.00  0.00     0.161 HD
BRANCH  20  22
HETATM   22  C   UNL     1      -4.947  -2.258 -33.861  1.00  0.00     0.100 A 
HETATM   23  N   UNL     1      -4.181  -3.364 -33.872  1.00  0.00    -0.353 N 
HETATM   24  H   UNL     1      -3.244  -3.307 -33.484  1.00  0.00     0.166 HD
HETATM   25  C   UNL     1      -4.587  -4.550 -34.355  1.00  0.00     0.089 A 
HETATM   26  C   UNL     1      -5.866  -4.692 -34.867  1.00  0.00     0.017 A 
HETATM   27  C   UNL     1      -6.713  -3.594 -34.857  1.00  0.00     0.005 A 
HETATM   28  C   UNL     1      -6.257  -2.379 -34.348  1.00  0.00     0.048 A 
ENDBRANCH  20  22
ENDBRANCH  19  20
ENDBRANCH   4  19
TORSDOF 7
ENDMDL
MODEL 10
REMARK VINA RESULT:      -6.5      5.245      8.889
REMARK  7 active torsions:
REMARK  status: ('A' for Active; 'I' for Inactive)
REMARK    1  A    between atoms: O_2  and  C_3 
REMARK    2  A    between atoms: C_4  and  O_5 
REMARK    3  A    between atoms: C_9  and  C_10 
REMARK    4  A    between atoms: C_10  and  N_11 
REMARK    5  A    between atoms: C_14  and  C_15 
REMARK    6  A    between atoms: C_15  and  N_16 
REMARK    7  A    between atoms: N_16  and  C_17 
ROOT
HETATM    1  N   UNL     1      -4.409   3.816 -33.100  1.00  0.00    -0.067 N 
HETATM    2  H   UNL     1      -4.763   2.973 -33.581  1.00  0.00     0.280 HD
HETATM    3  C   UNL     1      -2.927   3.597 -32.874  1.00  0.00     0.241 C 
HETATM    4  C   UNL     1      -2.245   4.864 -33.388  1.00  0.00     0.031 C 
HETATM    5  C   UNL     1      -3.155   5.266 -34.547  1.00  0.00     0.035 C 
HETATM    6  C   UNL     1      -4.566   4.976 -34.062  1.00  0.00     0.235 C 
ENDROOT
BRANCH   1   7
HETATM    7  C   UNL     1      -5.280   3.943 -31.868  1.00  0.00     0.274 C 
BRANCH   7   8
HETATM    8  C   UNL     1      -6.497   3.055 -31.877  1.00  0.00    -0.012 A 
HETATM    9  C   UNL     1      -7.598   3.279 -31.031  1.00  0.00     0.021 A 
HETATM   10  C   UNL     1      -8.707   2.437 -31.072  1.00  0.00     0.059 A 
HETATM   11 BR   UNL     1      -7.644   4.737 -29.815  1.00  0.00    -0.050 Br
HETATM   12  C   UNL     1      -8.724   1.377 -31.970  1.00  0.00     0.100 A 
HETATM   13  C   UNL     1      -7.658   1.133 -32.837  1.00  0.00     0.101 A 
HETATM   14  C   UNL     1      -6.539   1.963 -32.775  1.00  0.00     0.049 A 
BRANCH  12  15
HETATM   15  O   UNL     1      -9.831   0.576 -31.988  1.00  0.00    -0.358 OA
HETATM   16  H   UNL     1     -10.051   0.421 -32.928  1.00  0.00     0.218 HD
ENDBRANCH  12  15
BRANCH  13  17
HETATM   17  O   UNL     1      -7.823   0.066 -33.677  1.00  0.00    -0.353 OA
HETATM   18  C   UNL     1      -7.622   0.287 -35.068  1.00  0.00     0.210 C 
ENDBRANCH  13  17
ENDBRANCH   7   8
ENDBRANCH   1   7
BRANCH   4  19
HETATM   19  C   UNL     1      -2.122   5.926 -32.279  1.00  0.00     0.127 C 
BRANCH  19  20
HETATM   20  N   UNL     1      -1.815   5.310 -30.985  1.00  0.00    -0.376 N 
HETATM   21  H   UNL     1      -2.576   4.769 -30.583  1.00  0.00     0.161 HD
BRANCH  20  22
HETATM   22  C   UNL     1      -1.002   5.987 -30.082  1.00  0.00     0.100 A 
HETATM   23  N   UNL     1      -0.175   5.270 -29.299  1.00  0.00    -0.353 N 
HETATM   24  H   UNL     1      -0.171   4.259 -29.397  1.00  0.00     0.166 HD
HETATM   25  C   UNL     1       0.660   5.814 -28.398  1.00  0.00     0.089 A 
HETATM   26  C   UNL     1       0.718   7.189 -28.244  1.00  0.00     0.017 A 
HETATM   27  C   UNL     1      -0.090   7.983 -29.043  1.00  0.00     0.005 A 
HETATM   28  C   UNL     1      -0.944   7.384 -29.968  1.00  0.00     0.048 A 
ENDBRANCH  20  22
ENDBRANCH  19  20
ENDBRANCH   4  19
TORSDOF 7
ENDMDL
