MODEL 1
REMARK VINA RESULT:      -8.5      0.000      0.000
REMARK  3 active torsions:
REMARK  status: ('A' for Active; 'I' for Inactive)
REMARK    1  A    between atoms: C_4  and  N_5 
REMARK       I    between atoms: N_5  and  C_6 
REMARK    2  A    between atoms: C_6  and  C_7 
REMARK    3  A    between atoms: C_7  and  C_8 
ROOT
HETATM    1  C   UNL     1      -4.590 -13.761 -40.344  1.00  0.00     0.286 C 
HETATM    2  N   UNL     1      -3.852 -14.534 -39.226  1.00  0.00    -0.056 N 
HETATM    3  H   UNL     1      -4.300 -14.357 -38.317  1.00  0.00     0.278 HD
HETATM    4  H   UNL     1      -3.968 -15.538 -39.418  1.00  0.00     0.278 HD
HETATM    5  C   UNL     1      -2.380 -14.201 -39.185  1.00  0.00     0.209 C 
HETATM    6  C   UNL     1      -1.757 -14.529 -40.559  1.00  0.00     0.115 C 
HETATM    7  N   UNL     1      -2.468 -13.882 -41.652  1.00  0.00    -0.353 N 
HETATM    8  C   UNL     1      -3.846 -13.871 -41.696  1.00  0.00     0.249 C 
HETATM    9  O   UNL     1      -4.443 -13.951 -42.763  1.00  0.00    -0.271 OA
HETATM   10  C   UNL     1      -1.699 -14.988 -38.071  1.00  0.00     0.035 C 
HETATM   11  C   UNL     1      -0.200 -14.684 -38.054  1.00  0.00     0.002 C 
HETATM   12  C   UNL     1       0.456 -14.916 -39.417  1.00  0.00     0.002 C 
HETATM   13  C   UNL     1      -0.268 -14.182 -40.549  1.00  0.00     0.027 C 
HETATM   14  H   UNL     1      -2.070 -13.965 -42.587  1.00  0.00     0.163 HD
ENDROOT
BRANCH   1  15
HETATM   15  C   UNL     1      -4.913 -12.354 -39.833  1.00  0.00     0.146 C 
BRANCH  15  16
HETATM   16  C   UNL     1      -5.248 -12.331 -38.361  1.00  0.00     0.224 C 
HETATM   17  N   UNL     1      -6.533 -12.454 -37.931  1.00  0.00    -0.327 N 
HETATM   18  H   UNL     1      -6.653 -12.153 -36.967  1.00  0.00     0.169 HD
HETATM   19  O   UNL     1      -4.350 -12.140 -37.541  1.00  0.00    -0.273 OA
BRANCH  17  20
HETATM   20  C   UNL     1      -7.656 -13.076 -38.509  1.00  0.00     0.035 A 
HETATM   21  C   UNL     1      -7.922 -14.444 -38.408  1.00  0.00     0.036 A 
HETATM   22  C   UNL     1      -9.074 -14.996 -38.987  1.00  0.00    -0.059 A 
HETATM   23  C   UNL     1      -9.378 -16.461 -38.859  1.00  0.00     0.048 C 
HETATM   24  C   UNL     1      -9.983 -14.154 -39.635  1.00  0.00     0.013 A 
HETATM   25  C   UNL     1      -9.758 -12.776 -39.704  1.00  0.00    -0.059 A 
HETATM   26  C   UNL     1      -8.595 -12.244 -39.131  1.00  0.00     0.036 A 
HETATM   27  C   UNL     1     -10.771 -11.886 -40.367  1.00  0.00     0.048 C 
ENDBRANCH  17  20
ENDBRANCH  15  16
ENDBRANCH   1  15
TORSDOF 3
ENDMDL
MODEL 2
REMARK VINA RESULT:      -8.3     15.244     17.342
REMARK  3 active torsions:
REMARK  status: ('A' for Active; 'I' for Inactive)
REMARK    1  A    between atoms: C_4  and  N_5 
REMARK       I    between atoms: N_5  and  C_6 
REMARK    2  A    between atoms: C_6  and  C_7 
REMARK    3  A    between atoms: C_7  and  C_8 
ROOT
HETATM    1  C   UNL     1      -5.543   3.208 -32.188  1.00  0.00     0.286 C 
HETATM    2  N   UNL     1      -5.135   4.163 -33.335  1.00  0.00    -0.056 N 
HETATM    3  H   UNL     1      -5.554   3.851 -34.221  1.00  0.00     0.278 HD
HETATM    4  H   UNL     1      -5.545   5.084 -33.127  1.00  0.00     0.278 HD
HETATM    5  C   UNL     1      -3.636   4.297 -33.454  1.00  0.00     0.209 C 
HETATM    6  C   UNL     1      -3.075   4.810 -32.110  1.00  0.00     0.115 C 
HETATM    7  N   UNL     1      -3.496   3.983 -30.988  1.00  0.00    -0.353 N 
HETATM    8  C   UNL     1      -4.799   3.550 -30.875  1.00  0.00     0.249 C 
HETATM    9  O   UNL     1      -5.337   3.450 -29.777  1.00  0.00    -0.271 OA
HETATM   10  C   UNL     1      -3.288   5.248 -34.593  1.00  0.00     0.035 C 
HETATM   11  C   UNL     1      -1.771   5.419 -34.689  1.00  0.00     0.002 C 
HETATM   12  C   UNL     1      -1.149   5.849 -33.359  1.00  0.00     0.002 C 
HETATM   13  C   UNL     1      -1.554   4.937 -32.198  1.00  0.00     0.027 C 
HETATM   14  H   UNL     1      -3.095   4.190 -30.074  1.00  0.00     0.163 HD
ENDROOT
BRANCH   1  15
HETATM   15  C   UNL     1      -5.444   1.766 -32.695  1.00  0.00     0.146 C 
BRANCH  15  16
HETATM   16  C   UNL     1      -6.510   1.432 -33.711  1.00  0.00     0.224 C 
HETATM   17  N   UNL     1      -6.424   0.309 -34.475  1.00  0.00    -0.327 N 
HETATM   18  H   UNL     1      -7.037   0.342 -35.286  1.00  0.00     0.169 HD
HETATM   19  O   UNL     1      -7.439   2.219 -33.890  1.00  0.00    -0.273 OA
BRANCH  17  20
HETATM   20  C   UNL     1      -5.792  -0.928 -34.251  1.00  0.00     0.035 A 
HETATM   21  C   UNL     1      -4.769  -1.118 -33.317  1.00  0.00     0.036 A 
HETATM   22  C   UNL     1      -4.199  -2.385 -33.127  1.00  0.00    -0.059 A 
HETATM   23  C   UNL     1      -3.118  -2.601 -32.107  1.00  0.00     0.048 C 
HETATM   24  C   UNL     1      -4.694  -3.474 -33.851  1.00  0.00     0.013 A 
HETATM   25  C   UNL     1      -5.749  -3.312 -34.754  1.00  0.00    -0.059 A 
HETATM   26  C   UNL     1      -6.298  -2.035 -34.941  1.00  0.00     0.036 A 
HETATM   27  C   UNL     1      -6.294  -4.504 -35.488  1.00  0.00     0.048 C 
ENDBRANCH  17  20
ENDBRANCH  15  16
ENDBRANCH   1  15
TORSDOF 3
ENDMDL
MODEL 3
REMARK VINA RESULT:      -8.1     14.889     17.277
REMARK  3 active torsions:
REMARK  status: ('A' for Active; 'I' for Inactive)
REMARK    1  A    between atoms: C_4  and  N_5 
REMARK       I    between atoms: N_5  and  C_6 
REMARK    2  A    between atoms: C_6  and  C_7 
REMARK    3  A    between atoms: C_7  and  C_8 
ROOT
HETATM    1  C   UNL     1      -9.029   2.540 -32.279  1.00  0.00     0.286 C 
HETATM    2  N   UNL     1      -7.839   3.178 -33.033  1.00  0.00    -0.056 N 
HETATM    3  H   UNL     1      -7.843   2.880 -34.018  1.00  0.00     0.278 HD
HETATM    4  H   UNL     1      -7.989   4.197 -33.037  1.00  0.00     0.278 HD
HETATM    5  C   UNL     1      -6.518   2.870 -32.372  1.00  0.00     0.209 C 
HETATM    6  C   UNL     1      -6.560   3.381 -30.915  1.00  0.00     0.115 C 
HETATM    7  N   UNL     1      -7.709   2.864 -30.186  1.00  0.00    -0.353 N 
HETATM    8  C   UNL     1      -8.961   2.834 -30.761  1.00  0.00     0.249 C 
HETATM    9  O   UNL     1      -9.967   3.038 -30.091  1.00  0.00    -0.271 OA
HETATM   10  C   UNL     1      -5.381   3.522 -33.150  1.00  0.00     0.035 C 
HETATM   11  C   UNL     1      -4.045   3.245 -32.459  1.00  0.00     0.002 C 
HETATM   12  C   UNL     1      -4.056   3.659 -30.986  1.00  0.00     0.002 C 
HETATM   13  C   UNL     1      -5.238   3.062 -30.216  1.00  0.00     0.027 C 
HETATM   14  H   UNL     1      -7.766   3.072 -29.189  1.00  0.00     0.163 HD
ENDROOT
BRANCH   1  15
HETATM   15  C   UNL     1      -9.147   1.074 -32.705  1.00  0.00     0.146 C 
BRANCH  15  16
HETATM   16  C   UNL     1      -9.317   0.913 -34.197  1.00  0.00     0.224 C 
HETATM   17  N   UNL     1      -8.307   0.430 -34.970  1.00  0.00    -0.327 N 
HETATM   18  H   UNL     1      -8.446   0.626 -35.959  1.00  0.00     0.169 HD
HETATM   19  O   UNL     1     -10.366   1.279 -34.726  1.00  0.00    -0.273 OA
BRANCH  17  20
HETATM   20  C   UNL     1      -7.230  -0.426 -34.674  1.00  0.00     0.035 A 
HETATM   21  C   UNL     1      -6.044   0.001 -34.069  1.00  0.00     0.036 A 
HETATM   22  C   UNL     1      -5.018  -0.909 -33.779  1.00  0.00    -0.059 A 
HETATM   23  C   UNL     1      -3.754  -0.461 -33.105  1.00  0.00     0.048 C 
HETATM   24  C   UNL     1      -5.208  -2.266 -34.063  1.00  0.00     0.013 A 
HETATM   25  C   UNL     1      -6.406  -2.718 -34.624  1.00  0.00    -0.059 A 
HETATM   26  C   UNL     1      -7.415  -1.791 -34.919  1.00  0.00     0.036 A 
HETATM   27  C   UNL     1      -6.603  -4.185 -34.879  1.00  0.00     0.048 C 
ENDBRANCH  17  20
ENDBRANCH  15  16
ENDBRANCH   1  15
TORSDOF 3
ENDMDL
MODEL 4
REMARK VINA RESULT:      -8.1     14.324     16.849
REMARK  3 active torsions:
REMARK  status: ('A' for Active; 'I' for Inactive)
REMARK    1  A    between atoms: C_4  and  N_5 
REMARK       I    between atoms: N_5  and  C_6 
REMARK    2  A    between atoms: C_6  and  C_7 
REMARK    3  A    between atoms: C_7  and  C_8 
ROOT
HETATM    1  C   UNL     1      -5.234   1.612 -30.321  1.00  0.00     0.286 C 
HETATM    2  N   UNL     1      -6.764   1.747 -30.143  1.00  0.00    -0.056 N 
HETATM    3  H   UNL     1      -7.118   0.997 -29.535  1.00  0.00     0.278 HD
HETATM    4  H   UNL     1      -6.937   2.631 -29.644  1.00  0.00     0.278 HD
HETATM    5  C   UNL     1      -7.489   1.769 -31.466  1.00  0.00     0.209 C 
HETATM    6  C   UNL     1      -6.946   2.942 -32.311  1.00  0.00     0.115 C 
HETATM    7  N   UNL     1      -5.497   2.897 -32.444  1.00  0.00    -0.353 N 
HETATM    8  C   UNL     1      -4.693   2.623 -31.359  1.00  0.00     0.249 C 
HETATM    9  O   UNL     1      -3.601   3.168 -31.230  1.00  0.00    -0.271 OA
HETATM   10  C   UNL     1      -8.989   1.907 -31.236  1.00  0.00     0.035 C 
HETATM   11  C   UNL     1      -9.723   1.970 -32.576  1.00  0.00     0.002 C 
HETATM   12  C   UNL     1      -9.170   3.066 -33.490  1.00  0.00     0.002 C 
HETATM   13  C   UNL     1      -7.652   2.973 -33.667  1.00  0.00     0.027 C 
HETATM   14  H   UNL     1      -5.060   3.578 -33.065  1.00  0.00     0.163 HD
ENDROOT
BRANCH   1  15
HETATM   15  C   UNL     1      -4.897   0.134 -30.541  1.00  0.00     0.146 C 
BRANCH  15  16
HETATM   16  C   UNL     1      -3.670  -0.063 -31.400  1.00  0.00     0.224 C 
HETATM   17  N   UNL     1      -3.697  -0.883 -32.485  1.00  0.00    -0.327 N 
HETATM   18  H   UNL     1      -2.766  -1.138 -32.804  1.00  0.00     0.169 HD
HETATM   19  O   UNL     1      -2.616   0.483 -31.078  1.00  0.00    -0.273 OA
BRANCH  17  20
HETATM   20  C   UNL     1      -4.750  -1.282 -33.330  1.00  0.00     0.035 A 
HETATM   21  C   UNL     1      -5.684  -0.396 -33.876  1.00  0.00     0.036 A 
HETATM   22  C   UNL     1      -6.695  -0.858 -34.731  1.00  0.00    -0.059 A 
HETATM   23  C   UNL     1      -7.685   0.092 -35.342  1.00  0.00     0.048 C 
HETATM   24  C   UNL     1      -6.738  -2.214 -35.070  1.00  0.00     0.013 A 
HETATM   25  C   UNL     1      -5.784  -3.106 -34.571  1.00  0.00    -0.059 A 
HETATM   26  C   UNL     1      -4.788  -2.629 -33.708  1.00  0.00     0.036 A 
HETATM   27  C   UNL     1      -5.823  -4.549 -34.984  1.00  0.00     0.048 C 
ENDBRANCH  17  20
ENDBRANCH  15  16
ENDBRANCH   1  15
TORSDOF 3
ENDMDL
MODEL 5
REMARK VINA RESULT:      -8.1     16.496     18.334
REMARK  3 active torsions:
REMARK  status: ('A' for Active; 'I' for Inactive)
REMARK    1  A    between atoms: C_4  and  N_5 
REMARK       I    between atoms: N_5  and  C_6 
REMARK    2  A    between atoms: C_6  and  C_7 
REMARK    3  A    between atoms: C_7  and  C_8 
ROOT
HETATM    1  C   UNL     1      -4.277   3.558 -33.136  1.00  0.00     0.286 C 
HETATM    2  N   UNL     1      -2.751   3.799 -33.072  1.00  0.00    -0.056 N 
HETATM    3  H   UNL     1      -2.280   2.987 -32.651  1.00  0.00     0.278 HD
HETATM    4  H   UNL     1      -2.410   3.864 -34.042  1.00  0.00     0.278 HD
HETATM    5  C   UNL     1      -2.409   5.073 -32.337  1.00  0.00     0.209 C 
HETATM    6  C   UNL     1      -3.107   6.256 -33.042  1.00  0.00     0.115 C 
HETATM    7  N   UNL     1      -4.538   6.039 -33.193  1.00  0.00    -0.353 N 
HETATM    8  C   UNL     1      -5.032   4.822 -33.611  1.00  0.00     0.249 C 
HETATM    9  O   UNL     1      -6.022   4.758 -34.331  1.00  0.00    -0.271 OA
HETATM   10  C   UNL     1      -0.898   5.266 -32.305  1.00  0.00     0.035 C 
HETATM   11  C   UNL     1      -0.551   6.576 -31.596  1.00  0.00     0.002 C 
HETATM   12  C   UNL     1      -1.280   7.776 -32.204  1.00  0.00     0.002 C 
HETATM   13  C   UNL     1      -2.792   7.557 -32.304  1.00  0.00     0.027 C 
HETATM   14  H   UNL     1      -5.095   6.809 -33.561  1.00  0.00     0.163 HD
ENDROOT
BRANCH   1  15
HETATM   15  C   UNL     1      -4.727   2.927 -31.815  1.00  0.00     0.146 C 
BRANCH  15  16
HETATM   16  C   UNL     1      -3.893   1.727 -31.429  1.00  0.00     0.224 C 
HETATM   17  N   UNL     1      -4.411   0.470 -31.471  1.00  0.00    -0.327 N 
HETATM   18  H   UNL     1      -3.857  -0.197 -30.939  1.00  0.00     0.169 HD
HETATM   19  O   UNL     1      -2.748   1.900 -31.014  1.00  0.00    -0.273 OA
BRANCH  17  20
HETATM   20  C   UNL     1      -5.442  -0.091 -32.247  1.00  0.00     0.035 A 
HETATM   21  C   UNL     1      -6.773   0.336 -32.193  1.00  0.00     0.036 A 
HETATM   22  C   UNL     1      -7.748  -0.251 -33.012  1.00  0.00    -0.059 A 
HETATM   23  C   UNL     1      -9.173   0.221 -32.978  1.00  0.00     0.048 C 
HETATM   24  C   UNL     1      -7.370  -1.244 -33.921  1.00  0.00     0.013 A 
HETATM   25  C   UNL     1      -6.036  -1.650 -34.023  1.00  0.00    -0.059 A 
HETATM   26  C   UNL     1      -5.077  -1.061 -33.187  1.00  0.00     0.036 A 
HETATM   27  C   UNL     1      -5.646  -2.687 -35.037  1.00  0.00     0.048 C 
ENDBRANCH  17  20
ENDBRANCH  15  16
ENDBRANCH   1  15
TORSDOF 3
ENDMDL
MODEL 6
REMARK VINA RESULT:      -8.1     15.551     17.643
REMARK  3 active torsions:
REMARK  status: ('A' for Active; 'I' for Inactive)
REMARK    1  A    between atoms: C_4  and  N_5 
REMARK       I    between atoms: N_5  and  C_6 
REMARK    2  A    between atoms: C_6  and  C_7 
REMARK    3  A    between atoms: C_7  and  C_8 
ROOT
HETATM    1  C   UNL     1      -5.804   3.644 -32.320  1.00  0.00     0.286 C 
HETATM    2  N   UNL     1      -5.268   4.610 -33.402  1.00  0.00    -0.056 N 
HETATM    3  H   UNL     1      -5.736   4.432 -34.300  1.00  0.00     0.278 HD
HETATM    4  H   UNL     1      -5.531   5.564 -33.119  1.00  0.00     0.278 HD
HETATM    5  C   UNL     1      -3.767   4.527 -33.541  1.00  0.00     0.209 C 
HETATM    6  C   UNL     1      -3.123   4.848 -32.175  1.00  0.00     0.115 C 
HETATM    7  N   UNL     1      -3.654   4.011 -31.108  1.00  0.00    -0.353 N 
HETATM    8  C   UNL     1      -5.006   3.771 -31.000  1.00  0.00     0.249 C 
HETATM    9  O   UNL     1      -5.543   3.671 -29.903  1.00  0.00    -0.271 OA
HETATM   10  C   UNL     1      -3.289   5.498 -34.615  1.00  0.00     0.035 C 
HETATM   11  C   UNL     1      -1.765   5.446 -34.729  1.00  0.00     0.002 C 
HETATM   12  C   UNL     1      -1.073   5.677 -33.384  1.00  0.00     0.002 C 
HETATM   13  C   UNL     1      -1.601   4.751 -32.285  1.00  0.00     0.027 C 
HETATM   14  H   UNL     1      -3.218   4.087 -30.189  1.00  0.00     0.163 HD
ENDROOT
BRANCH   1  15
HETATM   15  C   UNL     1      -5.929   2.246 -32.932  1.00  0.00     0.146 C 
BRANCH  15  16
HETATM   16  C   UNL     1      -7.131   1.490 -32.419  1.00  0.00     0.224 C 
HETATM   17  N   UNL     1      -7.321   0.179 -32.728  1.00  0.00    -0.327 N 
HETATM   18  H   UNL     1      -8.276  -0.127 -32.559  1.00  0.00     0.169 HD
HETATM   19  O   UNL     1      -7.981   2.088 -31.759  1.00  0.00    -0.273 OA
BRANCH  17  20
HETATM   20  C   UNL     1      -6.413  -0.845 -33.057  1.00  0.00     0.035 A 
HETATM   21  C   UNL     1      -6.635  -1.782 -34.070  1.00  0.00     0.036 A 
HETATM   22  C   UNL     1      -5.676  -2.763 -34.363  1.00  0.00    -0.059 A 
HETATM   23  C   UNL     1      -5.897  -3.755 -35.468  1.00  0.00     0.048 C 
HETATM   24  C   UNL     1      -4.469  -2.770 -33.657  1.00  0.00     0.013 A 
HETATM   25  C   UNL     1      -4.210  -1.811 -32.673  1.00  0.00    -0.059 A 
HETATM   26  C   UNL     1      -5.185  -0.847 -32.386  1.00  0.00     0.036 A 
HETATM   27  C   UNL     1      -2.888  -1.813 -31.960  1.00  0.00     0.048 C 
ENDBRANCH  17  20
ENDBRANCH  15  16
ENDBRANCH   1  15
TORSDOF 3
ENDMDL
MODEL 7
REMARK VINA RESULT:      -8.0     15.396     17.615
REMARK  3 active torsions:
REMARK  status: ('A' for Active; 'I' for Inactive)
REMARK    1  A    between atoms: C_4  and  N_5 
REMARK       I    between atoms: N_5  and  C_6 
REMARK    2  A    between atoms: C_6  and  C_7 
REMARK    3  A    between atoms: C_7  and  C_8 
ROOT
HETATM    1  C   UNL     1      -3.481   2.976 -31.615  1.00  0.00     0.286 C 
HETATM    2  N   UNL     1      -4.544   2.812 -30.504  1.00  0.00    -0.056 N 
HETATM    3  H   UNL     1      -4.448   1.892 -30.054  1.00  0.00     0.278 HD
HETATM    4  H   UNL     1      -4.341   3.514 -29.779  1.00  0.00     0.278 HD
HETATM    5  C   UNL     1      -5.945   3.023 -31.025  1.00  0.00     0.209 C 
HETATM    6  C   UNL     1      -6.037   4.434 -31.645  1.00  0.00     0.115 C 
HETATM    7  N   UNL     1      -5.005   4.662 -32.647  1.00  0.00    -0.353 N 
HETATM    8  C   UNL     1      -3.701   4.278 -32.422  1.00  0.00     0.249 C 
HETATM    9  O   UNL     1      -2.765   4.949 -32.843  1.00  0.00    -0.271 OA
HETATM   10  C   UNL     1      -6.952   2.854 -29.894  1.00  0.00     0.035 C 
HETATM   11  C   UNL     1      -8.369   3.108 -30.410  1.00  0.00     0.002 C 
HETATM   12  C   UNL     1      -8.499   4.464 -31.108  1.00  0.00     0.002 C 
HETATM   13  C   UNL     1      -7.443   4.666 -32.199  1.00  0.00     0.027 C 
HETATM   14  H   UNL     1      -5.047   5.532 -33.177  1.00  0.00     0.163 HD
ENDROOT
BRANCH   1  15
HETATM   15  C   UNL     1      -3.395   1.667 -32.405  1.00  0.00     0.146 C 
BRANCH  15  16
HETATM   16  C   UNL     1      -3.275   0.454 -31.513  1.00  0.00     0.224 C 
HETATM   17  N   UNL     1      -4.244  -0.500 -31.491  1.00  0.00    -0.327 N 
HETATM   18  H   UNL     1      -4.181  -1.101 -30.674  1.00  0.00     0.169 HD
HETATM   19  O   UNL     1      -2.312   0.360 -30.751  1.00  0.00    -0.273 OA
BRANCH  17  20
HETATM   20  C   UNL     1      -5.178  -0.906 -32.463  1.00  0.00     0.035 A 
HETATM   21  C   UNL     1      -4.938  -1.921 -33.393  1.00  0.00     0.036 A 
HETATM   22  C   UNL     1      -5.924  -2.292 -34.320  1.00  0.00    -0.059 A 
HETATM   23  C   UNL     1      -5.681  -3.399 -35.304  1.00  0.00     0.048 C 
HETATM   24  C   UNL     1      -7.173  -1.664 -34.278  1.00  0.00     0.013 A 
HETATM   25  C   UNL     1      -7.447  -0.680 -33.323  1.00  0.00    -0.059 A 
HETATM   26  C   UNL     1      -6.445  -0.313 -32.413  1.00  0.00     0.036 A 
HETATM   27  C   UNL     1      -8.810  -0.052 -33.269  1.00  0.00     0.048 C 
ENDBRANCH  17  20
ENDBRANCH  15  16
ENDBRANCH   1  15
TORSDOF 3
ENDMDL
MODEL 8
REMARK VINA RESULT:      -8.0     16.138     18.086
REMARK  3 active torsions:
REMARK  status: ('A' for Active; 'I' for Inactive)
REMARK    1  A    between atoms: C_4  and  N_5 
REMARK       I    between atoms: N_5  and  C_6 
REMARK    2  A    between atoms: C_6  and  C_7 
REMARK    3  A    between atoms: C_7  and  C_8 
ROOT
HETATM    1  C   UNL     1      -4.376   3.040 -32.413  1.00  0.00     0.286 C 
HETATM    2  N   UNL     1      -4.129   4.159 -33.450  1.00  0.00    -0.056 N 
HETATM    3  H   UNL     1      -3.948   3.751 -34.377  1.00  0.00     0.278 HD
HETATM    4  H   UNL     1      -5.003   4.697 -33.535  1.00  0.00     0.278 HD
HETATM    5  C   UNL     1      -3.012   5.084 -33.030  1.00  0.00     0.209 C 
HETATM    6  C   UNL     1      -3.365   5.698 -31.658  1.00  0.00     0.115 C 
HETATM    7  N   UNL     1      -3.680   4.681 -30.666  1.00  0.00    -0.353 N 
HETATM    8  C   UNL     1      -4.489   3.610 -30.979  1.00  0.00     0.249 C 
HETATM    9  O   UNL     1      -5.264   3.143 -30.151  1.00  0.00    -0.271 OA
HETATM   10  C   UNL     1      -2.812   6.169 -34.082  1.00  0.00     0.035 C 
HETATM   11  C   UNL     1      -1.708   7.131 -33.640  1.00  0.00     0.002 C 
HETATM   12  C   UNL     1      -1.966   7.710 -32.247  1.00  0.00     0.002 C 
HETATM   13  C   UNL     1      -2.239   6.626 -31.201  1.00  0.00     0.027 C 
HETATM   14  H   UNL     1      -3.831   4.990 -29.706  1.00  0.00     0.163 HD
ENDROOT
BRANCH   1  15
HETATM   15  C   UNL     1      -3.353   1.925 -32.645  1.00  0.00     0.146 C 
BRANCH  15  16
HETATM   16  C   UNL     1      -3.380   0.873 -31.561  1.00  0.00     0.224 C 
HETATM   17  N   UNL     1      -4.413  -0.006 -31.461  1.00  0.00    -0.327 N 
HETATM   18  H   UNL     1      -4.448  -0.464 -30.553  1.00  0.00     0.169 HD
HETATM   19  O   UNL     1      -2.480   0.852 -30.721  1.00  0.00    -0.273 OA
BRANCH  17  20
HETATM   20  C   UNL     1      -5.305  -0.513 -32.423  1.00  0.00     0.035 A 
HETATM   21  C   UNL     1      -4.981  -1.537 -33.318  1.00  0.00     0.036 A 
HETATM   22  C   UNL     1      -5.927  -2.012 -34.237  1.00  0.00    -0.059 A 
HETATM   23  C   UNL     1      -5.593  -3.131 -35.183  1.00  0.00     0.048 C 
HETATM   24  C   UNL     1      -7.221  -1.481 -34.224  1.00  0.00     0.013 A 
HETATM   25  C   UNL     1      -7.577  -0.489 -33.305  1.00  0.00    -0.059 A 
HETATM   26  C   UNL     1      -6.614  -0.017 -32.402  1.00  0.00     0.036 A 
HETATM   27  C   UNL     1      -8.984   0.036 -33.281  1.00  0.00     0.048 C 
ENDBRANCH  17  20
ENDBRANCH  15  16
ENDBRANCH   1  15
TORSDOF 3
ENDMDL
MODEL 9
REMARK VINA RESULT:      -7.8     14.508     16.667
REMARK  3 active torsions:
REMARK  status: ('A' for Active; 'I' for Inactive)
REMARK    1  A    between atoms: C_4  and  N_5 
REMARK       I    between atoms: N_5  and  C_6 
REMARK    2  A    between atoms: C_6  and  C_7 
REMARK    3  A    between atoms: C_7  and  C_8 
ROOT
HETATM    1  C   UNL     1      -4.528  -0.134 -32.480  1.00  0.00     0.286 C 
HETATM    2  N   UNL     1      -4.953  -0.853 -33.781  1.00  0.00    -0.056 N 
HETATM    3  H   UNL     1      -5.849  -0.476 -34.118  1.00  0.00     0.278 HD
HETATM    4  H   UNL     1      -4.252  -0.626 -34.500  1.00  0.00     0.278 HD
HETATM    5  C   UNL     1      -5.021  -2.351 -33.604  1.00  0.00     0.209 C 
HETATM    6  C   UNL     1      -3.638  -2.860 -33.142  1.00  0.00     0.115 C 
HETATM    7  N   UNL     1      -3.161  -2.157 -31.960  1.00  0.00    -0.353 N 
HETATM    8  C   UNL     1      -3.272  -0.787 -31.856  1.00  0.00     0.249 C 
HETATM    9  O   UNL     1      -2.403  -0.126 -31.296  1.00  0.00    -0.271 OA
HETATM   10  C   UNL     1      -5.441  -3.011 -34.912  1.00  0.00     0.035 C 
HETATM   11  C   UNL     1      -5.470  -4.531 -34.747  1.00  0.00     0.002 C 
HETATM   12  C   UNL     1      -4.147  -5.084 -34.213  1.00  0.00     0.002 C 
HETATM   13  C   UNL     1      -3.686  -4.374 -32.937  1.00  0.00     0.027 C 
HETATM   14  H   UNL     1      -2.301  -2.492 -31.528  1.00  0.00     0.163 HD
ENDROOT
BRANCH   1  15
HETATM   15  C   UNL     1      -5.759   0.018 -31.581  1.00  0.00     0.146 C 
BRANCH  15  16
HETATM   16  C   UNL     1      -5.489   0.868 -30.362  1.00  0.00     0.224 C 
HETATM   17  N   UNL     1      -4.870   2.075 -30.470  1.00  0.00    -0.327 N 
HETATM   18  H   UNL     1      -4.509   2.409 -29.580  1.00  0.00     0.169 HD
HETATM   19  O   UNL     1      -5.782   0.433 -29.248  1.00  0.00    -0.273 OA
BRANCH  17  20
HETATM   20  C   UNL     1      -4.804   3.000 -31.529  1.00  0.00     0.035 A 
HETATM   21  C   UNL     1      -5.923   3.632 -32.078  1.00  0.00     0.036 A 
HETATM   22  C   UNL     1      -5.783   4.562 -33.118  1.00  0.00    -0.059 A 
HETATM   23  C   UNL     1      -6.980   5.264 -33.694  1.00  0.00     0.048 C 
HETATM   24  C   UNL     1      -4.503   4.888 -33.576  1.00  0.00     0.013 A 
HETATM   25  C   UNL     1      -3.369   4.302 -33.007  1.00  0.00    -0.059 A 
HETATM   26  C   UNL     1      -3.529   3.364 -31.977  1.00  0.00     0.036 A 
HETATM   27  C   UNL     1      -2.002   4.701 -33.485  1.00  0.00     0.048 C 
ENDBRANCH  17  20
ENDBRANCH  15  16
ENDBRANCH   1  15
TORSDOF 3
ENDMDL
MODEL 10
REMARK VINA RESULT:      -7.8     16.969     19.361
REMARK  3 active torsions:
REMARK  status: ('A' for Active; 'I' for Inactive)
REMARK    1  A    between atoms: C_4  and  N_5 
REMARK       I    between atoms: N_5  and  C_6 
REMARK    2  A    between atoms: C_6  and  C_7 
REMARK    3  A    between atoms: C_7  and  C_8 
ROOT
HETATM    1  C   UNL     1      -7.150   2.893 -31.806  1.00  0.00     0.286 C 
HETATM    2  N   UNL     1      -6.753   1.414 -31.597  1.00  0.00    -0.056 N 
HETATM    3  H   UNL     1      -5.979   1.346 -30.923  1.00  0.00     0.278 HD
HETATM    4  H   UNL     1      -7.558   0.938 -31.166  1.00  0.00     0.278 HD
HETATM    5  C   UNL     1      -6.408   0.730 -32.898  1.00  0.00     0.209 C 
HETATM    6  C   UNL     1      -7.622   0.827 -33.847  1.00  0.00     0.115 C 
HETATM    7  N   UNL     1      -8.079   2.198 -34.016  1.00  0.00    -0.353 N 
HETATM    8  C   UNL     1      -8.196   3.046 -32.935  1.00  0.00     0.249 C 
HETATM    9  O   UNL     1      -9.098   3.875 -32.880  1.00  0.00    -0.271 OA
HETATM   10  C   UNL     1      -6.028  -0.723 -32.638  1.00  0.00     0.035 C 
HETATM   11  C   UNL     1      -5.718  -1.429 -33.959  1.00  0.00     0.002 C 
HETATM   12  C   UNL     1      -6.858  -1.296 -34.970  1.00  0.00     0.002 C 
HETATM   13  C   UNL     1      -7.290   0.158 -35.182  1.00  0.00     0.027 C 
HETATM   14  H   UNL     1      -8.815   2.369 -34.700  1.00  0.00     0.163 HD
ENDROOT
BRANCH   1  15
HETATM   15  C   UNL     1      -5.872   3.730 -31.918  1.00  0.00     0.146 C 
BRANCH  15  16
HETATM   16  C   UNL     1      -4.932   3.517 -30.754  1.00  0.00     0.224 C 
HETATM   17  N   UNL     1      -3.612   3.832 -30.851  1.00  0.00    -0.327 N 
HETATM   18  H   UNL     1      -3.054   3.396 -30.121  1.00  0.00     0.169 HD
HETATM   19  O   UNL     1      -5.359   2.997 -29.724  1.00  0.00    -0.273 OA
BRANCH  17  20
HETATM   20  C   UNL     1      -2.931   4.770 -31.648  1.00  0.00     0.035 A 
HETATM   21  C   UNL     1      -2.401   4.478 -32.908  1.00  0.00     0.036 A 
HETATM   22  C   UNL     1      -1.754   5.468 -33.661  1.00  0.00    -0.059 A 
HETATM   23  C   UNL     1      -1.207   5.167 -35.027  1.00  0.00     0.048 C 
HETATM   24  C   UNL     1      -1.678   6.771 -33.157  1.00  0.00     0.013 A 
HETATM   25  C   UNL     1      -2.244   7.092 -31.919  1.00  0.00    -0.059 A 
HETATM   26  C   UNL     1      -2.876   6.086 -31.175  1.00  0.00     0.036 A 
HETATM   27  C   UNL     1      -2.190   8.507 -31.419  1.00  0.00     0.048 C 
ENDBRANCH  17  20
ENDBRANCH  15  16
ENDBRANCH   1  15
TORSDOF 3
ENDMDL
