MODEL 1
REMARK VINA RESULT:     -10.0      0.000      0.000
REMARK  11 active torsions:
REMARK  status: ('A' for Active; 'I' for Inactive)
REMARK    1  A    between atoms: O_2  and  C_3 
REMARK    2  A    between atoms: C_6  and  C_7 
REMARK    3  A    between atoms: C_7  and  C_8 
REMARK    4  A    between atoms: C_8  and  N_9 
REMARK    5  A    between atoms: C_13  and  C_14 
REMARK    6  A    between atoms: C_14  and  C_15 
REMARK    7  A    between atoms: C_25  and  N_26 
REMARK    8  A    between atoms: N_26  and  C_27 
REMARK    9  A    between atoms: C_27  and  C_28 
REMARK   10  A    between atoms: C_28  and  O_29 
REMARK   11  A    between atoms: C_28  and  C_30 
ROOT
HETATM    1  C   UNL     1      -4.250   3.699 -32.967  1.00  0.00     0.074 A 
HETATM    2  C   UNL     1      -3.864   5.027 -33.537  1.00  0.00     0.266 A 
HETATM    3  O   UNL     1      -4.566   5.544 -34.410  1.00  0.00    -0.267 OA
HETATM    4  N   UNL     1      -2.710   5.600 -33.035  1.00  0.00    -0.273 N 
HETATM    5  C   UNL     1      -1.965   4.915 -32.094  1.00  0.00     0.138 A 
HETATM    6  N   UNL     1      -2.271   3.745 -31.628  1.00  0.00    -0.218 NA
HETATM    7  C   UNL     1      -2.311   6.850 -33.498  1.00  0.00     0.102 A 
HETATM    8  C   UNL     1      -1.198   7.445 -33.052  1.00  0.00     0.018 A 
HETATM    9  C   UNL     1      -0.380   6.785 -32.070  1.00  0.00     0.005 A 
HETATM   10  C   UNL     1      -0.725   5.580 -31.600  1.00  0.00     0.051 A 
HETATM   11  C   UNL     1      -3.417   3.135 -32.065  1.00  0.00     0.121 A 
ENDROOT
BRANCH   1  12
HETATM   12  C   UNL     1      -5.494   3.123 -33.459  1.00  0.00     0.045 C 
BRANCH  12  13
HETATM   13  C   UNL     1      -6.667   3.043 -32.821  1.00  0.00     0.077 A 
HETATM   14  S   UNL     1      -7.440   4.213 -31.832  1.00  0.00    -0.055 SA
HETATM   15  C   UNL     1      -8.884   3.227 -31.629  1.00  0.00     0.148 A 
HETATM   16  N   UNL     1      -8.764   2.068 -32.366  1.00  0.00    -0.298 N 
HETATM   17  S   UNL     1     -10.161   3.708 -30.668  1.00  0.00    -0.052 SA
HETATM   18  C   UNL     1      -7.554   1.864 -33.003  1.00  0.00     0.266 A 
HETATM   19  O   UNL     1      -7.239   0.869 -33.643  1.00  0.00    -0.266 OA
BRANCH  16  20
HETATM   20  C   UNL     1      -9.823   1.074 -32.555  1.00  0.00     0.138 C 
BRANCH  20  21
HETATM   21  C   UNL     1     -10.588   1.260 -33.869  1.00  0.00     0.059 C 
BRANCH  21  22
HETATM   22  C   UNL     1     -12.072   1.385 -33.619  1.00  0.00    -0.057 A 
HETATM   23  C   UNL     1     -12.922   0.301 -33.866  1.00  0.00     0.010 A 
HETATM   24  C   UNL     1     -14.299   0.424 -33.671  1.00  0.00     0.037 A 
HETATM   25  C   UNL     1     -14.849   1.622 -33.213  1.00  0.00     0.068 A 
HETATM   26  C   UNL     1     -14.007   2.707 -32.967  1.00  0.00     0.037 A 
HETATM   27  C   UNL     1     -12.626   2.589 -33.171  1.00  0.00     0.010 A 
BRANCH  25  28
HETATM   28  O   UNL     1     -16.208   1.608 -33.060  1.00  0.00    -0.356 OA
HETATM   29  C   UNL     1     -16.769   2.625 -32.240  1.00  0.00     0.210 C 
ENDBRANCH  25  28
ENDBRANCH  21  22
ENDBRANCH  20  21
ENDBRANCH  16  20
ENDBRANCH  12  13
ENDBRANCH   1  12
BRANCH  11  30
HETATM   30  N   UNL     1      -3.669   1.890 -31.500  1.00  0.00    -0.274 NA
HETATM   31  H   UNL     1      -3.074   1.825 -30.671  1.00  0.00     0.129 HD
BRANCH  30  32
HETATM   32  C   UNL     1      -3.491   0.642 -32.268  1.00  0.00     0.130 C 
BRANCH  32  33
HETATM   33  C   UNL     1      -4.152  -0.581 -31.583  1.00  0.00     0.164 C 
BRANCH  33  34
HETATM   34  O   UNL     1      -5.525  -0.293 -31.278  1.00  0.00    -0.390 OA
HETATM   35  H   UNL     1      -6.027  -1.052 -31.640  1.00  0.00     0.210 HD
ENDBRANCH  33  34
BRANCH  33  36
HETATM   36  C   UNL     1      -4.046  -1.818 -32.452  1.00  0.00    -0.029 A 
HETATM   37  C   UNL     1      -4.737  -1.873 -33.675  1.00  0.00     0.010 A 
HETATM   38  C   UNL     1      -4.680  -3.015 -34.475  1.00  0.00     0.001 A 
HETATM   39  C   UNL     1      -3.931  -4.117 -34.068  1.00  0.00     0.000 A 
HETATM   40  C   UNL     1      -3.240  -4.078 -32.860  1.00  0.00     0.001 A 
HETATM   41  C   UNL     1      -3.299  -2.938 -32.056  1.00  0.00     0.010 A 
ENDBRANCH  33  36
ENDBRANCH  32  33
ENDBRANCH  30  32
ENDBRANCH  11  30
TORSDOF 11
ENDMDL
MODEL 2
REMARK VINA RESULT:     -10.0      1.636      2.154
REMARK  11 active torsions:
REMARK  status: ('A' for Active; 'I' for Inactive)
REMARK    1  A    between atoms: O_2  and  C_3 
REMARK    2  A    between atoms: C_6  and  C_7 
REMARK    3  A    between atoms: C_7  and  C_8 
REMARK    4  A    between atoms: C_8  and  N_9 
REMARK    5  A    between atoms: C_13  and  C_14 
REMARK    6  A    between atoms: C_14  and  C_15 
REMARK    7  A    between atoms: C_25  and  N_26 
REMARK    8  A    between atoms: N_26  and  C_27 
REMARK    9  A    between atoms: C_27  and  C_28 
REMARK   10  A    between atoms: C_28  and  O_29 
REMARK   11  A    between atoms: C_28  and  C_30 
ROOT
HETATM    1  C   UNL     1      -4.229   3.929 -31.140  1.00  0.00     0.074 A 
HETATM    2  C   UNL     1      -4.024   5.393 -31.373  1.00  0.00     0.266 A 
HETATM    3  O   UNL     1      -4.725   6.211 -30.771  1.00  0.00    -0.267 OA
HETATM    4  N   UNL     1      -3.036   5.740 -32.277  1.00  0.00    -0.273 N 
HETATM    5  C   UNL     1      -2.341   4.745 -32.938  1.00  0.00     0.138 A 
HETATM    6  N   UNL     1      -2.544   3.476 -32.773  1.00  0.00    -0.218 NA
HETATM    7  C   UNL     1      -2.771   7.083 -32.516  1.00  0.00     0.102 A 
HETATM    8  C   UNL     1      -1.832   7.473 -33.387  1.00  0.00     0.018 A 
HETATM    9  C   UNL     1      -1.072   6.486 -34.106  1.00  0.00     0.005 A 
HETATM   10  C   UNL     1      -1.296   5.182 -33.909  1.00  0.00     0.051 A 
HETATM   11  C   UNL     1      -3.490   3.066 -31.870  1.00  0.00     0.121 A 
ENDROOT
BRANCH   1  12
HETATM   12  C   UNL     1      -5.233   3.569 -30.148  1.00  0.00     0.045 C 
BRANCH  12  13
HETATM   13  C   UNL     1      -6.542   3.374 -30.341  1.00  0.00     0.077 A 
HETATM   14  S   UNL     1      -7.817   4.521 -30.329  1.00  0.00    -0.055 SA
HETATM   15  C   UNL     1      -9.023   3.328 -30.799  1.00  0.00     0.148 A 
HETATM   16  N   UNL     1      -8.415   2.110 -31.012  1.00  0.00    -0.298 N 
HETATM   17  S   UNL     1     -10.641   3.710 -30.943  1.00  0.00    -0.052 SA
HETATM   18  C   UNL     1      -7.064   2.036 -30.726  1.00  0.00     0.266 A 
HETATM   19  O   UNL     1      -6.372   1.029 -30.787  1.00  0.00    -0.266 OA
BRANCH  16  20
HETATM   20  C   UNL     1      -9.075   0.918 -31.549  1.00  0.00     0.138 C 
BRANCH  20  21
HETATM   21  C   UNL     1      -9.196   0.941 -33.076  1.00  0.00     0.059 C 
BRANCH  21  22
HETATM   22  C   UNL     1     -10.640   0.830 -33.506  1.00  0.00    -0.057 A 
HETATM   23  C   UNL     1     -11.242   1.867 -34.227  1.00  0.00     0.010 A 
HETATM   24  C   UNL     1     -12.587   1.784 -34.595  1.00  0.00     0.037 A 
HETATM   25  C   UNL     1     -13.347   0.662 -34.262  1.00  0.00     0.068 A 
HETATM   26  C   UNL     1     -12.753  -0.373 -33.542  1.00  0.00     0.037 A 
HETATM   27  C   UNL     1     -11.406  -0.289 -33.164  1.00  0.00     0.010 A 
BRANCH  25  28
HETATM   28  O   UNL     1     -14.647   0.705 -34.685  1.00  0.00    -0.356 OA
HETATM   29  C   UNL     1     -15.591   1.282 -33.791  1.00  0.00     0.210 C 
ENDBRANCH  25  28
ENDBRANCH  21  22
ENDBRANCH  20  21
ENDBRANCH  16  20
ENDBRANCH  12  13
ENDBRANCH   1  12
BRANCH  11  30
HETATM   30  N   UNL     1      -3.627   1.687 -31.752  1.00  0.00    -0.274 NA
HETATM   31  H   UNL     1      -2.793   1.356 -31.263  1.00  0.00     0.129 HD
BRANCH  30  32
HETATM   32  C   UNL     1      -3.815   0.825 -32.936  1.00  0.00     0.130 C 
BRANCH  32  33
HETATM   33  C   UNL     1      -3.685  -0.683 -32.603  1.00  0.00     0.164 C 
BRANCH  33  34
HETATM   34  O   UNL     1      -3.793  -0.886 -31.186  1.00  0.00    -0.390 OA
HETATM   35  H   UNL     1      -4.624  -1.390 -31.067  1.00  0.00     0.210 HD
ENDBRANCH  33  34
BRANCH  33  36
HETATM   36  C   UNL     1      -4.730  -1.498 -33.340  1.00  0.00    -0.029 A 
HETATM   37  C   UNL     1      -4.385  -2.747 -33.883  1.00  0.00     0.010 A 
HETATM   38  C   UNL     1      -5.324  -3.498 -34.593  1.00  0.00     0.001 A 
HETATM   39  C   UNL     1      -6.618  -3.014 -34.769  1.00  0.00     0.000 A 
HETATM   40  C   UNL     1      -6.975  -1.778 -34.235  1.00  0.00     0.001 A 
HETATM   41  C   UNL     1      -6.037  -1.024 -33.528  1.00  0.00     0.010 A 
ENDBRANCH  33  36
ENDBRANCH  32  33
ENDBRANCH  30  32
ENDBRANCH  11  30
TORSDOF 11
ENDMDL
MODEL 3
REMARK VINA RESULT:      -9.8      2.541      9.048
REMARK  11 active torsions:
REMARK  status: ('A' for Active; 'I' for Inactive)
REMARK    1  A    between atoms: O_2  and  C_3 
REMARK    2  A    between atoms: C_6  and  C_7 
REMARK    3  A    between atoms: C_7  and  C_8 
REMARK    4  A    between atoms: C_8  and  N_9 
REMARK    5  A    between atoms: C_13  and  C_14 
REMARK    6  A    between atoms: C_14  and  C_15 
REMARK    7  A    between atoms: C_25  and  N_26 
REMARK    8  A    between atoms: N_26  and  C_27 
REMARK    9  A    between atoms: C_27  and  C_28 
REMARK   10  A    between atoms: C_28  and  O_29 
REMARK   11  A    between atoms: C_28  and  C_30 
ROOT
HETATM    1  C   UNL     1      -7.033   3.034 -33.842  1.00  0.00     0.074 A 
HETATM    2  C   UNL     1      -8.443   3.464 -34.100  1.00  0.00     0.266 A 
HETATM    3  O   UNL     1      -8.668   4.611 -34.494  1.00  0.00    -0.267 OA
HETATM    4  N   UNL     1      -9.427   2.520 -33.868  1.00  0.00    -0.273 N 
HETATM    5  C   UNL     1      -9.074   1.278 -33.376  1.00  0.00     0.138 A 
HETATM    6  N   UNL     1      -7.859   0.914 -33.110  1.00  0.00    -0.218 NA
HETATM    7  C   UNL     1     -10.756   2.844 -34.118  1.00  0.00     0.102 A 
HETATM    8  C   UNL     1     -11.747   1.971 -33.902  1.00  0.00     0.018 A 
HETATM    9  C   UNL     1     -11.446   0.659 -33.394  1.00  0.00     0.005 A 
HETATM   10  C   UNL     1     -10.181   0.307 -33.136  1.00  0.00     0.051 A 
HETATM   11  C   UNL     1      -6.835   1.793 -33.344  1.00  0.00     0.121 A 
ENDROOT
BRANCH   1  12
HETATM   12  C   UNL     1      -5.996   4.012 -34.139  1.00  0.00     0.045 C 
BRANCH  12  13
HETATM   13  C   UNL     1      -5.418   4.874 -33.294  1.00  0.00     0.077 A 
HETATM   14  S   UNL     1      -5.777   5.170 -31.643  1.00  0.00    -0.055 SA
HETATM   15  C   UNL     1      -4.438   6.298 -31.456  1.00  0.00     0.148 A 
HETATM   16  N   UNL     1      -3.722   6.369 -32.631  1.00  0.00    -0.298 N 
HETATM   17  S   UNL     1      -4.155   7.111 -30.027  1.00  0.00    -0.052 SA
HETATM   18  C   UNL     1      -4.228   5.662 -33.707  1.00  0.00     0.266 A 
HETATM   19  O   UNL     1      -3.771   5.659 -34.842  1.00  0.00    -0.266 OA
BRANCH  16  20
HETATM   20  C   UNL     1      -2.462   7.093 -32.810  1.00  0.00     0.138 C 
BRANCH  20  21
HETATM   21  C   UNL     1      -1.231   6.193 -32.662  1.00  0.00     0.059 C 
BRANCH  21  22
HETATM   22  C   UNL     1      -0.612   6.344 -31.293  1.00  0.00    -0.057 A 
HETATM   23  C   UNL     1       0.003   5.250 -30.673  1.00  0.00     0.010 A 
HETATM   24  C   UNL     1       0.544   5.376 -29.391  1.00  0.00     0.037 A 
HETATM   25  C   UNL     1       0.494   6.595 -28.714  1.00  0.00     0.068 A 
HETATM   26  C   UNL     1      -0.120   7.688 -29.326  1.00  0.00     0.037 A 
HETATM   27  C   UNL     1      -0.671   7.563 -30.608  1.00  0.00     0.010 A 
BRANCH  25  28
HETATM   28  O   UNL     1       1.063   6.583 -27.471  1.00  0.00    -0.356 OA
HETATM   29  C   UNL     1       0.212   6.899 -26.376  1.00  0.00     0.210 C 
ENDBRANCH  25  28
ENDBRANCH  21  22
ENDBRANCH  20  21
ENDBRANCH  16  20
ENDBRANCH  12  13
ENDBRANCH   1  12
BRANCH  11  30
HETATM   30  N   UNL     1      -5.567   1.309 -33.040  1.00  0.00    -0.274 NA
HETATM   31  H   UNL     1      -4.997   1.454 -33.876  1.00  0.00     0.129 HD
BRANCH  30  32
HETATM   32  C   UNL     1      -5.357  -0.084 -32.599  1.00  0.00     0.130 C 
BRANCH  32  33
HETATM   33  C   UNL     1      -4.358  -0.853 -33.500  1.00  0.00     0.164 C 
BRANCH  33  34
HETATM   34  O   UNL     1      -3.133  -1.086 -32.789  1.00  0.00    -0.390 OA
HETATM   35  H   UNL     1      -2.426  -0.946 -33.453  1.00  0.00     0.210 HD
ENDBRANCH  33  34
BRANCH  33  36
HETATM   36  C   UNL     1      -4.953  -2.160 -33.983  1.00  0.00    -0.029 A 
HETATM   37  C   UNL     1      -6.289  -2.202 -34.416  1.00  0.00     0.010 A 
HETATM   38  C   UNL     1      -6.865  -3.403 -34.834  1.00  0.00     0.001 A 
HETATM   39  C   UNL     1      -6.116  -4.578 -34.828  1.00  0.00     0.000 A 
HETATM   40  C   UNL     1      -4.789  -4.552 -34.403  1.00  0.00     0.001 A 
HETATM   41  C   UNL     1      -4.213  -3.353 -33.981  1.00  0.00     0.010 A 
ENDBRANCH  33  36
ENDBRANCH  32  33
ENDBRANCH  30  32
ENDBRANCH  11  30
TORSDOF 11
ENDMDL
MODEL 4
REMARK VINA RESULT:      -9.7      3.771      8.704
REMARK  11 active torsions:
REMARK  status: ('A' for Active; 'I' for Inactive)
REMARK    1  A    between atoms: O_2  and  C_3 
REMARK    2  A    between atoms: C_6  and  C_7 
REMARK    3  A    between atoms: C_7  and  C_8 
REMARK    4  A    between atoms: C_8  and  N_9 
REMARK    5  A    between atoms: C_13  and  C_14 
REMARK    6  A    between atoms: C_14  and  C_15 
REMARK    7  A    between atoms: C_25  and  N_26 
REMARK    8  A    between atoms: N_26  and  C_27 
REMARK    9  A    between atoms: C_27  and  C_28 
REMARK   10  A    between atoms: C_28  and  O_29 
REMARK   11  A    between atoms: C_28  and  C_30 
ROOT
HETATM    1  C   UNL     1      -6.565   1.211 -31.486  1.00  0.00     0.074 A 
HETATM    2  C   UNL     1      -7.412   0.270 -32.283  1.00  0.00     0.266 A 
HETATM    3  O   UNL     1      -8.641   0.359 -32.228  1.00  0.00    -0.267 OA
HETATM    4  N   UNL     1      -6.740  -0.665 -33.049  1.00  0.00    -0.273 N 
HETATM    5  C   UNL     1      -5.359  -0.716 -33.002  1.00  0.00     0.138 A 
HETATM    6  N   UNL     1      -4.622   0.068 -32.280  1.00  0.00    -0.218 NA
HETATM    7  C   UNL     1      -7.466  -1.549 -33.839  1.00  0.00     0.102 A 
HETATM    8  C   UNL     1      -6.865  -2.479 -34.592  1.00  0.00     0.018 A 
HETATM    9  C   UNL     1      -5.430  -2.582 -34.590  1.00  0.00     0.005 A 
HETATM   10  C   UNL     1      -4.693  -1.754 -33.841  1.00  0.00     0.051 A 
HETATM   11  C   UNL     1      -5.226   1.035 -31.520  1.00  0.00     0.121 A 
ENDROOT
BRANCH   1  12
HETATM   12  C   UNL     1      -7.275   2.229 -30.723  1.00  0.00     0.045 C 
BRANCH  12  13
HETATM   13  C   UNL     1      -7.482   3.507 -31.060  1.00  0.00     0.077 A 
HETATM   14  S   UNL     1      -8.772   4.190 -31.961  1.00  0.00    -0.055 SA
HETATM   15  C   UNL     1      -8.198   5.836 -31.717  1.00  0.00     0.148 A 
HETATM   16  N   UNL     1      -7.081   5.825 -30.909  1.00  0.00    -0.298 N 
HETATM   17  S   UNL     1      -8.960   7.154 -32.401  1.00  0.00    -0.052 SA
HETATM   18  C   UNL     1      -6.590   4.582 -30.552  1.00  0.00     0.266 A 
HETATM   19  O   UNL     1      -5.575   4.372 -29.901  1.00  0.00    -0.266 OA
BRANCH  16  20
HETATM   20  C   UNL     1      -6.413   7.013 -30.375  1.00  0.00     0.138 C 
BRANCH  20  21
HETATM   21  C   UNL     1      -5.509   7.700 -31.404  1.00  0.00     0.059 C 
BRANCH  21  22
HETATM   22  C   UNL     1      -4.057   7.598 -31.003  1.00  0.00    -0.057 A 
HETATM   23  C   UNL     1      -3.048   7.865 -31.936  1.00  0.00     0.010 A 
HETATM   24  C   UNL     1      -1.704   7.735 -31.578  1.00  0.00     0.037 A 
HETATM   25  C   UNL     1      -1.345   7.353 -30.286  1.00  0.00     0.068 A 
HETATM   26  C   UNL     1      -2.346   7.084 -29.353  1.00  0.00     0.037 A 
HETATM   27  C   UNL     1      -3.695   7.204 -29.710  1.00  0.00     0.010 A 
BRANCH  25  28
HETATM   28  O   UNL     1       0.003   7.268 -30.067  1.00  0.00    -0.356 OA
HETATM   29  C   UNL     1       0.415   6.922 -28.751  1.00  0.00     0.210 C 
ENDBRANCH  25  28
ENDBRANCH  21  22
ENDBRANCH  20  21
ENDBRANCH  16  20
ENDBRANCH  12  13
ENDBRANCH   1  12
BRANCH  11  30
HETATM   30  N   UNL     1      -4.353   1.835 -30.790  1.00  0.00    -0.274 NA
HETATM   31  H   UNL     1      -4.852   2.707 -30.601  1.00  0.00     0.129 HD
BRANCH  30  32
HETATM   32  C   UNL     1      -3.018   2.194 -31.308  1.00  0.00     0.130 C 
BRANCH  32  33
HETATM   33  C   UNL     1      -2.790   3.726 -31.362  1.00  0.00     0.164 C 
BRANCH  33  34
HETATM   34  O   UNL     1      -1.446   4.038 -30.965  1.00  0.00    -0.390 OA
HETATM   35  H   UNL     1      -1.222   4.856 -31.456  1.00  0.00     0.210 HD
ENDBRANCH  33  34
BRANCH  33  36
HETATM   36  C   UNL     1      -3.079   4.274 -32.745  1.00  0.00    -0.029 A 
HETATM   37  C   UNL     1      -2.016   4.657 -33.580  1.00  0.00     0.010 A 
HETATM   38  C   UNL     1      -2.261   5.194 -34.845  1.00  0.00     0.001 A 
HETATM   39  C   UNL     1      -3.571   5.354 -35.295  1.00  0.00     0.000 A 
HETATM   40  C   UNL     1      -4.635   4.977 -34.479  1.00  0.00     0.001 A 
HETATM   41  C   UNL     1      -4.391   4.444 -33.213  1.00  0.00     0.010 A 
ENDBRANCH  33  36
ENDBRANCH  32  33
ENDBRANCH  30  32
ENDBRANCH  11  30
TORSDOF 11
ENDMDL
MODEL 5
REMARK VINA RESULT:      -9.6      2.703      8.062
REMARK  11 active torsions:
REMARK  status: ('A' for Active; 'I' for Inactive)
REMARK    1  A    between atoms: O_2  and  C_3 
REMARK    2  A    between atoms: C_6  and  C_7 
REMARK    3  A    between atoms: C_7  and  C_8 
REMARK    4  A    between atoms: C_8  and  N_9 
REMARK    5  A    between atoms: C_13  and  C_14 
REMARK    6  A    between atoms: C_14  and  C_15 
REMARK    7  A    between atoms: C_25  and  N_26 
REMARK    8  A    between atoms: N_26  and  C_27 
REMARK    9  A    between atoms: C_27  and  C_28 
REMARK   10  A    between atoms: C_28  and  O_29 
REMARK   11  A    between atoms: C_28  and  C_30 
ROOT
HETATM    1  C   UNL     1      -9.997   2.655 -34.216  1.00  0.00     0.074 A 
HETATM    2  C   UNL     1     -11.449   2.987 -34.355  1.00  0.00     0.266 A 
HETATM    3  O   UNL     1     -11.785   4.134 -34.663  1.00  0.00    -0.267 OA
HETATM    4  N   UNL     1     -12.342   1.958 -34.118  1.00  0.00    -0.273 N 
HETATM    5  C   UNL     1     -11.864   0.721 -33.727  1.00  0.00     0.138 A 
HETATM    6  N   UNL     1     -10.611   0.439 -33.563  1.00  0.00    -0.218 NA
HETATM    7  C   UNL     1     -13.705   2.191 -34.262  1.00  0.00     0.102 A 
HETATM    8  C   UNL     1     -14.612   1.232 -34.036  1.00  0.00     0.018 A 
HETATM    9  C   UNL     1     -14.179  -0.078 -33.629  1.00  0.00     0.005 A 
HETATM   10  C   UNL     1     -12.877  -0.345 -33.475  1.00  0.00     0.051 A 
HETATM   11  C   UNL     1      -9.673   1.408 -33.809  1.00  0.00     0.121 A 
ENDROOT
BRANCH   1  12
HETATM   12  C   UNL     1      -9.058   3.726 -34.519  1.00  0.00     0.045 C 
BRANCH  12  13
HETATM   13  C   UNL     1      -8.451   4.550 -33.658  1.00  0.00     0.077 A 
HETATM   14  S   UNL     1      -9.105   5.883 -32.798  1.00  0.00    -0.055 SA
HETATM   15  C   UNL     1      -7.613   6.162 -31.906  1.00  0.00     0.148 A 
HETATM   16  N   UNL     1      -6.685   5.199 -32.239  1.00  0.00    -0.298 N 
HETATM   17  S   UNL     1      -7.443   7.429 -30.833  1.00  0.00    -0.052 SA
HETATM   18  C   UNL     1      -7.046   4.312 -33.237  1.00  0.00     0.266 A 
HETATM   19  O   UNL     1      -6.333   3.439 -33.712  1.00  0.00    -0.266 OA
BRANCH  16  20
HETATM   20  C   UNL     1      -5.380   5.026 -31.597  1.00  0.00     0.138 C 
BRANCH  20  21
HETATM   21  C   UNL     1      -5.459   4.216 -30.298  1.00  0.00     0.059 C 
BRANCH  21  22
HETATM   22  C   UNL     1      -5.000   2.795 -30.517  1.00  0.00    -0.057 A 
HETATM   23  C   UNL     1      -3.797   2.538 -31.184  1.00  0.00     0.010 A 
HETATM   24  C   UNL     1      -3.387   1.223 -31.421  1.00  0.00     0.037 A 
HETATM   25  C   UNL     1      -4.162   0.147 -30.987  1.00  0.00     0.068 A 
HETATM   26  C   UNL     1      -5.363   0.398 -30.324  1.00  0.00     0.037 A 
HETATM   27  C   UNL     1      -5.781   1.714 -30.092  1.00  0.00     0.010 A 
BRANCH  25  28
HETATM   28  O   UNL     1      -3.645  -1.085 -31.278  1.00  0.00    -0.356 OA
HETATM   29  C   UNL     1      -2.312  -1.118 -31.772  1.00  0.00     0.210 C 
ENDBRANCH  25  28
ENDBRANCH  21  22
ENDBRANCH  20  21
ENDBRANCH  16  20
ENDBRANCH  12  13
ENDBRANCH   1  12
BRANCH  11  30
HETATM   30  N   UNL     1      -8.355   1.007 -33.618  1.00  0.00    -0.274 NA
HETATM   31  H   UNL     1      -7.790   1.558 -34.269  1.00  0.00     0.129 HD
BRANCH  30  32
HETATM   32  C   UNL     1      -7.947  -0.404 -33.765  1.00  0.00     0.130 C 
BRANCH  32  33
HETATM   33  C   UNL     1      -6.631  -0.564 -34.568  1.00  0.00     0.164 C 
BRANCH  33  34
HETATM   34  O   UNL     1      -5.630   0.330 -34.057  1.00  0.00    -0.390 OA
HETATM   35  H   UNL     1      -5.383   0.893 -34.819  1.00  0.00     0.210 HD
ENDBRANCH  33  34
BRANCH  33  36
HETATM   36  C   UNL     1      -6.137  -1.997 -34.527  1.00  0.00    -0.029 A 
HETATM   37  C   UNL     1      -4.780  -2.261 -34.275  1.00  0.00     0.010 A 
HETATM   38  C   UNL     1      -4.299  -3.571 -34.266  1.00  0.00     0.001 A 
HETATM   39  C   UNL     1      -5.165  -4.636 -34.505  1.00  0.00     0.000 A 
HETATM   40  C   UNL     1      -6.513  -4.390 -34.755  1.00  0.00     0.001 A 
HETATM   41  C   UNL     1      -6.995  -3.081 -34.769  1.00  0.00     0.010 A 
ENDBRANCH  33  36
ENDBRANCH  32  33
ENDBRANCH  30  32
ENDBRANCH  11  30
TORSDOF 11
ENDMDL
MODEL 6
REMARK VINA RESULT:      -9.6      2.230      8.898
REMARK  11 active torsions:
REMARK  status: ('A' for Active; 'I' for Inactive)
REMARK    1  A    between atoms: O_2  and  C_3 
REMARK    2  A    between atoms: C_6  and  C_7 
REMARK    3  A    between atoms: C_7  and  C_8 
REMARK    4  A    between atoms: C_8  and  N_9 
REMARK    5  A    between atoms: C_13  and  C_14 
REMARK    6  A    between atoms: C_14  and  C_15 
REMARK    7  A    between atoms: C_25  and  N_26 
REMARK    8  A    between atoms: N_26  and  C_27 
REMARK    9  A    between atoms: C_27  and  C_28 
REMARK   10  A    between atoms: C_28  and  O_29 
REMARK   11  A    between atoms: C_28  and  C_30 
ROOT
HETATM    1  C   UNL     1      -8.939   2.128 -32.129  1.00  0.00     0.074 A 
HETATM    2  C   UNL     1     -10.144   3.011 -32.053  1.00  0.00     0.266 A 
HETATM    3  O   UNL     1     -10.131   4.000 -31.316  1.00  0.00    -0.267 OA
HETATM    4  N   UNL     1     -11.226   2.645 -32.833  1.00  0.00    -0.273 N 
HETATM    5  C   UNL     1     -11.160   1.487 -33.586  1.00  0.00     0.138 A 
HETATM    6  N   UNL     1     -10.134   0.696 -33.623  1.00  0.00    -0.218 NA
HETATM    7  C   UNL     1     -12.367   3.440 -32.834  1.00  0.00     0.102 A 
HETATM    8  C   UNL     1     -13.445   3.126 -33.565  1.00  0.00     0.018 A 
HETATM    9  C   UNL     1     -13.437   1.935 -34.372  1.00  0.00     0.005 A 
HETATM   10  C   UNL     1     -12.362   1.140 -34.398  1.00  0.00     0.051 A 
HETATM   11  C   UNL     1      -9.020   1.017 -32.893  1.00  0.00     0.121 A 
ENDROOT
BRANCH   1  12
HETATM   12  C   UNL     1      -7.783   2.546 -31.348  1.00  0.00     0.045 C 
BRANCH  12  13
HETATM   13  C   UNL     1      -6.975   3.588 -31.575  1.00  0.00     0.077 A 
HETATM   14  S   UNL     1      -6.699   4.972 -30.600  1.00  0.00    -0.055 SA
HETATM   15  C   UNL     1      -5.448   5.595 -31.670  1.00  0.00     0.148 A 
HETATM   16  N   UNL     1      -5.232   4.705 -32.701  1.00  0.00    -0.298 N 
HETATM   17  S   UNL     1      -4.689   7.055 -31.395  1.00  0.00    -0.052 SA
HETATM   18  C   UNL     1      -6.069   3.606 -32.754  1.00  0.00     0.266 A 
HETATM   19  O   UNL     1      -6.075   2.750 -33.628  1.00  0.00    -0.266 OA
BRANCH  16  20
HETATM   20  C   UNL     1      -4.171   4.817 -33.704  1.00  0.00     0.138 C 
BRANCH  20  21
HETATM   21  C   UNL     1      -2.910   4.034 -33.327  1.00  0.00     0.059 C 
BRANCH  21  22
HETATM   22  C   UNL     1      -1.926   4.913 -32.592  1.00  0.00    -0.057 A 
HETATM   23  C   UNL     1      -1.552   4.606 -31.278  1.00  0.00     0.010 A 
HETATM   24  C   UNL     1      -0.671   5.437 -30.583  1.00  0.00     0.037 A 
HETATM   25  C   UNL     1      -0.140   6.577 -31.188  1.00  0.00     0.068 A 
HETATM   26  C   UNL     1      -0.512   6.888 -32.495  1.00  0.00     0.037 A 
HETATM   27  C   UNL     1      -1.402   6.062 -33.193  1.00  0.00     0.010 A 
BRANCH  25  28
HETATM   28  O   UNL     1       0.712   7.300 -30.399  1.00  0.00    -0.356 OA
HETATM   29  C   UNL     1       0.344   7.454 -29.034  1.00  0.00     0.210 C 
ENDBRANCH  25  28
ENDBRANCH  21  22
ENDBRANCH  20  21
ENDBRANCH  16  20
ENDBRANCH  12  13
ENDBRANCH   1  12
BRANCH  11  30
HETATM   30  N   UNL     1      -7.967   0.115 -33.007  1.00  0.00    -0.274 NA
HETATM   31  H   UNL     1      -7.130   0.611 -32.694  1.00  0.00     0.129 HD
BRANCH  30  32
HETATM   32  C   UNL     1      -7.641  -0.535 -34.291  1.00  0.00     0.130 C 
BRANCH  32  33
HETATM   33  C   UNL     1      -6.117  -0.727 -34.493  1.00  0.00     0.164 C 
BRANCH  33  34
HETATM   34  O   UNL     1      -5.392  -0.035 -33.465  1.00  0.00    -0.390 OA
HETATM   35  H   UNL     1      -5.816   0.847 -33.410  1.00  0.00     0.210 HD
ENDBRANCH  33  34
BRANCH  33  36
HETATM   36  C   UNL     1      -5.749  -2.197 -34.508  1.00  0.00    -0.029 A 
HETATM   37  C   UNL     1      -6.724  -3.158 -34.824  1.00  0.00     0.010 A 
HETATM   38  C   UNL     1      -6.414  -4.519 -34.811  1.00  0.00     0.001 A 
HETATM   39  C   UNL     1      -5.126  -4.940 -34.485  1.00  0.00     0.000 A 
HETATM   40  C   UNL     1      -4.148  -4.000 -34.171  1.00  0.00     0.001 A 
HETATM   41  C   UNL     1      -4.458  -2.639 -34.179  1.00  0.00     0.010 A 
ENDBRANCH  33  36
ENDBRANCH  32  33
ENDBRANCH  30  32
ENDBRANCH  11  30
TORSDOF 11
ENDMDL
MODEL 7
REMARK VINA RESULT:      -9.4      2.896      9.330
REMARK  11 active torsions:
REMARK  status: ('A' for Active; 'I' for Inactive)
REMARK    1  A    between atoms: O_2  and  C_3 
REMARK    2  A    between atoms: C_6  and  C_7 
REMARK    3  A    between atoms: C_7  and  C_8 
REMARK    4  A    between atoms: C_8  and  N_9 
REMARK    5  A    between atoms: C_13  and  C_14 
REMARK    6  A    between atoms: C_14  and  C_15 
REMARK    7  A    between atoms: C_25  and  N_26 
REMARK    8  A    between atoms: N_26  and  C_27 
REMARK    9  A    between atoms: C_27  and  C_28 
REMARK   10  A    between atoms: C_28  and  O_29 
REMARK   11  A    between atoms: C_28  and  C_30 
ROOT
HETATM    1  C   UNL     1      -7.672   3.395 -32.302  1.00  0.00     0.074 A 
HETATM    2  C   UNL     1      -8.792   3.735 -33.233  1.00  0.00     0.266 A 
HETATM    3  O   UNL     1      -8.851   4.862 -33.732  1.00  0.00    -0.267 OA
HETATM    4  N   UNL     1      -9.716   2.735 -33.476  1.00  0.00    -0.273 N 
HETATM    5  C   UNL     1      -9.590   1.522 -32.826  1.00  0.00     0.138 A 
HETATM    6  N   UNL     1      -8.646   1.236 -31.985  1.00  0.00    -0.218 NA
HETATM    7  C   UNL     1     -10.765   2.973 -34.357  1.00  0.00     0.102 A 
HETATM    8  C   UNL     1     -11.691   2.043 -34.620  1.00  0.00     0.018 A 
HETATM    9  C   UNL     1     -11.614   0.758 -33.978  1.00  0.00     0.005 A 
HETATM   10  C   UNL     1     -10.624   0.487 -33.120  1.00  0.00     0.051 A 
HETATM   11  C   UNL     1      -7.684   2.175 -31.722  1.00  0.00     0.121 A 
ENDROOT
BRANCH   1  12
HETATM   12  C   UNL     1      -6.671   4.432 -32.091  1.00  0.00     0.045 C 
BRANCH  12  13
HETATM   13  C   UNL     1      -5.438   4.496 -32.604  1.00  0.00     0.077 A 
HETATM   14  S   UNL     1      -4.945   4.992 -34.171  1.00  0.00    -0.055 SA
HETATM   15  C   UNL     1      -3.234   4.845 -33.784  1.00  0.00     0.148 A 
HETATM   16  N   UNL     1      -3.085   4.486 -32.461  1.00  0.00    -0.298 N 
HETATM   17  S   UNL     1      -2.040   5.124 -34.915  1.00  0.00    -0.052 SA
HETATM   18  C   UNL     1      -4.247   4.218 -31.760  1.00  0.00     0.266 A 
HETATM   19  O   UNL     1      -4.311   3.822 -30.604  1.00  0.00    -0.266 OA
BRANCH  16  20
HETATM   20  C   UNL     1      -1.810   4.408 -31.746  1.00  0.00     0.138 C 
BRANCH  20  21
HETATM   21  C   UNL     1      -0.982   5.691 -31.863  1.00  0.00     0.059 C 
BRANCH  21  22
HETATM   22  C   UNL     1      -0.486   6.141 -30.510  1.00  0.00    -0.057 A 
HETATM   23  C   UNL     1       0.302   5.288 -29.729  1.00  0.00     0.010 A 
HETATM   24  C   UNL     1       0.732   5.687 -28.461  1.00  0.00     0.037 A 
HETATM   25  C   UNL     1       0.395   6.944 -27.958  1.00  0.00     0.068 A 
HETATM   26  C   UNL     1      -0.392   7.798 -28.732  1.00  0.00     0.037 A 
HETATM   27  C   UNL     1      -0.832   7.398 -30.000  1.00  0.00     0.010 A 
BRANCH  25  28
HETATM   28  O   UNL     1       0.883   7.211 -26.709  1.00  0.00    -0.356 OA
HETATM   29  C   UNL     1       1.839   8.259 -26.606  1.00  0.00     0.210 C 
ENDBRANCH  25  28
ENDBRANCH  21  22
ENDBRANCH  20  21
ENDBRANCH  16  20
ENDBRANCH  12  13
ENDBRANCH   1  12
BRANCH  11  30
HETATM   30  N   UNL     1      -6.706   1.773 -30.818  1.00  0.00    -0.274 NA
HETATM   31  H   UNL     1      -6.101   2.583 -30.670  1.00  0.00     0.129 HD
BRANCH  30  32
HETATM   32  C   UNL     1      -5.833   0.613 -31.088  1.00  0.00     0.130 C 
BRANCH  32  33
HETATM   33  C   UNL     1      -5.129   0.704 -32.466  1.00  0.00     0.164 C 
BRANCH  33  34
HETATM   34  O   UNL     1      -3.727   0.956 -32.287  1.00  0.00    -0.390 OA
HETATM   35  H   UNL     1      -3.679   1.593 -31.545  1.00  0.00     0.210 HD
ENDBRANCH  33  34
BRANCH  33  36
HETATM   36  C   UNL     1      -5.345  -0.561 -33.274  1.00  0.00    -0.029 A 
HETATM   37  C   UNL     1      -4.287  -1.470 -33.444  1.00  0.00     0.010 A 
HETATM   38  C   UNL     1      -4.456  -2.624 -34.211  1.00  0.00     0.001 A 
HETATM   39  C   UNL     1      -5.682  -2.887 -34.817  1.00  0.00     0.000 A 
HETATM   40  C   UNL     1      -6.741  -1.997 -34.657  1.00  0.00     0.001 A 
HETATM   41  C   UNL     1      -6.573  -0.840 -33.894  1.00  0.00     0.010 A 
ENDBRANCH  33  36
ENDBRANCH  32  33
ENDBRANCH  30  32
ENDBRANCH  11  30
TORSDOF 11
ENDMDL
MODEL 8
REMARK VINA RESULT:      -9.3      1.963      5.665
REMARK  11 active torsions:
REMARK  status: ('A' for Active; 'I' for Inactive)
REMARK    1  A    between atoms: O_2  and  C_3 
REMARK    2  A    between atoms: C_6  and  C_7 
REMARK    3  A    between atoms: C_7  and  C_8 
REMARK    4  A    between atoms: C_8  and  N_9 
REMARK    5  A    between atoms: C_13  and  C_14 
REMARK    6  A    between atoms: C_14  and  C_15 
REMARK    7  A    between atoms: C_25  and  N_26 
REMARK    8  A    between atoms: N_26  and  C_27 
REMARK    9  A    between atoms: C_27  and  C_28 
REMARK   10  A    between atoms: C_28  and  O_29 
REMARK   11  A    between atoms: C_28  and  C_30 
ROOT
HETATM    1  C   UNL     1      -5.554   0.224 -33.342  1.00  0.00     0.074 A 
HETATM    2  C   UNL     1      -5.790  -1.036 -34.114  1.00  0.00     0.266 A 
HETATM    3  O   UNL     1      -6.659  -1.061 -34.989  1.00  0.00    -0.267 OA
HETATM    4  N   UNL     1      -4.999  -2.120 -33.781  1.00  0.00    -0.273 N 
HETATM    5  C   UNL     1      -4.088  -2.004 -32.748  1.00  0.00     0.138 A 
HETATM    6  N   UNL     1      -3.908  -0.929 -32.048  1.00  0.00    -0.218 NA
HETATM    7  C   UNL     1      -5.144  -3.313 -34.482  1.00  0.00     0.102 A 
HETATM    8  C   UNL     1      -4.410  -4.394 -34.194  1.00  0.00     0.018 A 
HETATM    9  C   UNL     1      -3.441  -4.337 -33.131  1.00  0.00     0.005 A 
HETATM   10  C   UNL     1      -3.271  -3.211 -32.429  1.00  0.00     0.051 A 
HETATM   11  C   UNL     1      -4.642   0.189 -32.345  1.00  0.00     0.121 A 
ENDROOT
BRANCH   1  12
HETATM   12  C   UNL     1      -6.351   1.378 -33.732  1.00  0.00     0.045 C 
BRANCH  12  13
HETATM   13  C   UNL     1      -7.450   1.852 -33.135  1.00  0.00     0.077 A 
HETATM   14  S   UNL     1      -7.606   2.602 -31.599  1.00  0.00    -0.055 SA
HETATM   15  C   UNL     1      -9.316   2.945 -31.833  1.00  0.00     0.148 A 
HETATM   16  N   UNL     1      -9.705   2.538 -33.092  1.00  0.00    -0.298 N 
HETATM   17  S   UNL     1     -10.248   3.664 -30.651  1.00  0.00    -0.052 SA
HETATM   18  C   UNL     1      -8.754   1.876 -33.847  1.00  0.00     0.266 A 
HETATM   19  O   UNL     1      -8.933   1.383 -34.953  1.00  0.00    -0.266 OA
BRANCH  16  20
HETATM   20  C   UNL     1     -11.016   2.787 -33.692  1.00  0.00     0.138 C 
BRANCH  20  21
HETATM   21  C   UNL     1     -11.997   1.629 -33.483  1.00  0.00     0.059 C 
BRANCH  21  22
HETATM   22  C   UNL     1     -13.355   2.139 -33.062  1.00  0.00    -0.057 A 
HETATM   23  C   UNL     1     -13.490   3.427 -32.531  1.00  0.00     0.010 A 
HETATM   24  C   UNL     1     -14.739   3.888 -32.106  1.00  0.00     0.037 A 
HETATM   25  C   UNL     1     -15.871   3.080 -32.216  1.00  0.00     0.068 A 
HETATM   26  C   UNL     1     -15.741   1.795 -32.742  1.00  0.00     0.037 A 
HETATM   27  C   UNL     1     -14.490   1.326 -33.161  1.00  0.00     0.010 A 
BRANCH  25  28
HETATM   28  O   UNL     1     -17.029   3.654 -31.769  1.00  0.00    -0.356 OA
HETATM   29  C   UNL     1     -18.239   3.187 -32.351  1.00  0.00     0.210 C 
ENDBRANCH  25  28
ENDBRANCH  21  22
ENDBRANCH  20  21
ENDBRANCH  16  20
ENDBRANCH  12  13
ENDBRANCH   1  12
BRANCH  11  30
HETATM   30  N   UNL     1      -4.371   1.296 -31.549  1.00  0.00    -0.274 NA
HETATM   31  H   UNL     1      -5.024   2.027 -31.840  1.00  0.00     0.129 HD
BRANCH  30  32
HETATM   32  C   UNL     1      -3.025   1.901 -31.498  1.00  0.00     0.130 C 
BRANCH  32  33
HETATM   33  C   UNL     1      -3.068   3.447 -31.407  1.00  0.00     0.164 C 
BRANCH  33  34
HETATM   34  O   UNL     1      -1.853   3.940 -30.824  1.00  0.00    -0.390 OA
HETATM   35  H   UNL     1      -1.430   4.469 -31.532  1.00  0.00     0.210 HD
ENDBRANCH  33  34
BRANCH  33  36
HETATM   36  C   UNL     1      -3.296   4.069 -32.771  1.00  0.00    -0.029 A 
HETATM   37  C   UNL     1      -2.196   4.420 -33.571  1.00  0.00     0.010 A 
HETATM   38  C   UNL     1      -2.383   5.023 -34.816  1.00  0.00     0.001 A 
HETATM   39  C   UNL     1      -3.671   5.282 -35.280  1.00  0.00     0.000 A 
HETATM   40  C   UNL     1      -4.772   4.939 -34.499  1.00  0.00     0.001 A 
HETATM   41  C   UNL     1      -4.586   4.340 -33.253  1.00  0.00     0.010 A 
ENDBRANCH  33  36
ENDBRANCH  32  33
ENDBRANCH  30  32
ENDBRANCH  11  30
TORSDOF 11
ENDMDL
MODEL 9
REMARK VINA RESULT:      -9.2      3.512      7.611
REMARK  11 active torsions:
REMARK  status: ('A' for Active; 'I' for Inactive)
REMARK    1  A    between atoms: O_2  and  C_3 
REMARK    2  A    between atoms: C_6  and  C_7 
REMARK    3  A    between atoms: C_7  and  C_8 
REMARK    4  A    between atoms: C_8  and  N_9 
REMARK    5  A    between atoms: C_13  and  C_14 
REMARK    6  A    between atoms: C_14  and  C_15 
REMARK    7  A    between atoms: C_25  and  N_26 
REMARK    8  A    between atoms: N_26  and  C_27 
REMARK    9  A    between atoms: C_27  and  C_28 
REMARK   10  A    between atoms: C_28  and  O_29 
REMARK   11  A    between atoms: C_28  and  C_30 
ROOT
HETATM    1  C   UNL     1      -4.263   4.928 -30.827  1.00  0.00     0.074 A 
HETATM    2  C   UNL     1      -3.610   4.344 -32.040  1.00  0.00     0.266 A 
HETATM    3  O   UNL     1      -3.858   3.180 -32.365  1.00  0.00    -0.267 OA
HETATM    4  N   UNL     1      -2.746   5.171 -32.733  1.00  0.00    -0.273 N 
HETATM    5  C   UNL     1      -2.495   6.444 -32.257  1.00  0.00     0.138 A 
HETATM    6  N   UNL     1      -3.024   6.941 -31.183  1.00  0.00    -0.218 NA
HETATM    7  C   UNL     1      -2.131   4.701 -33.888  1.00  0.00     0.102 A 
HETATM    8  C   UNL     1      -1.278   5.458 -34.591  1.00  0.00     0.018 A 
HETATM    9  C   UNL     1      -0.978   6.794 -34.150  1.00  0.00     0.005 A 
HETATM   10  C   UNL     1      -1.545   7.285 -33.041  1.00  0.00     0.051 A 
HETATM   11  C   UNL     1      -3.911   6.182 -30.466  1.00  0.00     0.121 A 
ENDROOT
BRANCH   1  12
HETATM   12  C   UNL     1      -5.214   4.073 -30.131  1.00  0.00     0.045 C 
BRANCH  12  13
HETATM   13  C   UNL     1      -6.347   3.549 -30.611  1.00  0.00     0.077 A 
HETATM   14  S   UNL     1      -7.698   4.349 -31.301  1.00  0.00    -0.055 SA
HETATM   15  C   UNL     1      -8.509   2.839 -31.701  1.00  0.00     0.148 A 
HETATM   16  N   UNL     1      -7.705   1.774 -31.358  1.00  0.00    -0.298 N 
HETATM   17  S   UNL     1     -10.025   2.802 -32.397  1.00  0.00    -0.052 SA
HETATM   18  C   UNL     1      -6.526   2.076 -30.701  1.00  0.00     0.266 A 
HETATM   19  O   UNL     1      -5.723   1.266 -30.259  1.00  0.00    -0.266 OA
BRANCH  16  20
HETATM   20  C   UNL     1      -7.984   0.370 -31.668  1.00  0.00     0.138 C 
BRANCH  20  21
HETATM   21  C   UNL     1      -7.953   0.076 -33.172  1.00  0.00     0.059 C 
BRANCH  21  22
HETATM   22  C   UNL     1      -6.880  -0.933 -33.504  1.00  0.00    -0.057 A 
HETATM   23  C   UNL     1      -5.605  -0.817 -32.938  1.00  0.00     0.010 A 
HETATM   24  C   UNL     1      -4.599  -1.728 -33.272  1.00  0.00     0.037 A 
HETATM   25  C   UNL     1      -4.851  -2.773 -34.161  1.00  0.00     0.068 A 
HETATM   26  C   UNL     1      -6.120  -2.892 -34.729  1.00  0.00     0.037 A 
HETATM   27  C   UNL     1      -7.128  -1.976 -34.404  1.00  0.00     0.010 A 
BRANCH  25  28
HETATM   28  O   UNL     1      -3.784  -3.594 -34.398  1.00  0.00    -0.356 OA
HETATM   29  C   UNL     1      -3.645  -4.724 -33.546  1.00  0.00     0.210 C 
ENDBRANCH  25  28
ENDBRANCH  21  22
ENDBRANCH  20  21
ENDBRANCH  16  20
ENDBRANCH  12  13
ENDBRANCH   1  12
BRANCH  11  30
HETATM   30  N   UNL     1      -4.435   6.804 -29.338  1.00  0.00    -0.274 NA
HETATM   31  H   UNL     1      -5.398   7.055 -29.569  1.00  0.00     0.129 HD
BRANCH  30  32
HETATM   32  C   UNL     1      -3.798   7.998 -28.748  1.00  0.00     0.130 C 
BRANCH  32  33
HETATM   33  C   UNL     1      -2.984   7.672 -27.470  1.00  0.00     0.164 C 
BRANCH  33  34
HETATM   34  O   UNL     1      -3.258   6.329 -27.042  1.00  0.00    -0.390 OA
HETATM   35  H   UNL     1      -2.392   5.872 -27.079  1.00  0.00     0.210 HD
ENDBRANCH  33  34
BRANCH  33  36
HETATM   36  C   UNL     1      -1.499   7.866 -27.703  1.00  0.00    -0.029 A 
HETATM   37  C   UNL     1      -0.829   8.934 -27.084  1.00  0.00     0.010 A 
HETATM   38  C   UNL     1       0.531   9.150 -27.311  1.00  0.00     0.001 A 
HETATM   39  C   UNL     1       1.242   8.301 -28.157  1.00  0.00     0.000 A 
HETATM   40  C   UNL     1       0.592   7.236 -28.777  1.00  0.00     0.001 A 
HETATM   41  C   UNL     1      -0.769   7.022 -28.554  1.00  0.00     0.010 A 
ENDBRANCH  33  36
ENDBRANCH  32  33
ENDBRANCH  30  32
ENDBRANCH  11  30
TORSDOF 11
ENDMDL
MODEL 10
REMARK VINA RESULT:      -9.1      2.696      9.286
REMARK  11 active torsions:
REMARK  status: ('A' for Active; 'I' for Inactive)
REMARK    1  A    between atoms: O_2  and  C_3 
REMARK    2  A    between atoms: C_6  and  C_7 
REMARK    3  A    between atoms: C_7  and  C_8 
REMARK    4  A    between atoms: C_8  and  N_9 
REMARK    5  A    between atoms: C_13  and  C_14 
REMARK    6  A    between atoms: C_14  and  C_15 
REMARK    7  A    between atoms: C_25  and  N_26 
REMARK    8  A    between atoms: N_26  and  C_27 
REMARK    9  A    between atoms: C_27  and  C_28 
REMARK   10  A    between atoms: C_28  and  O_29 
REMARK   11  A    between atoms: C_28  and  C_30 
ROOT
HETATM    1  C   UNL     1      -8.339   3.095 -33.757  1.00  0.00     0.074 A 
HETATM    2  C   UNL     1      -9.674   3.570 -34.237  1.00  0.00     0.266 A 
HETATM    3  O   UNL     1      -9.798   4.726 -34.650  1.00  0.00    -0.267 OA
HETATM    4  N   UNL     1     -10.710   2.656 -34.182  1.00  0.00    -0.273 N 
HETATM    5  C   UNL     1     -10.479   1.399 -33.654  1.00  0.00     0.138 A 
HETATM    6  N   UNL     1      -9.336   0.996 -33.196  1.00  0.00    -0.218 NA
HETATM    7  C   UNL     1     -11.969   3.022 -34.644  1.00  0.00     0.102 A 
HETATM    8  C   UNL     1     -13.008   2.178 -34.605  1.00  0.00     0.018 A 
HETATM    9  C   UNL     1     -12.832   0.854 -34.069  1.00  0.00     0.005 A 
HETATM   10  C   UNL     1     -11.638   0.461 -33.611  1.00  0.00     0.051 A 
HETATM   11  C   UNL     1      -8.262   1.846 -33.248  1.00  0.00     0.121 A 
ENDROOT
BRANCH   1  12
HETATM   12  C   UNL     1      -7.239   4.043 -33.867  1.00  0.00     0.045 C 
BRANCH  12  13
HETATM   13  C   UNL     1      -6.730   4.821 -32.905  1.00  0.00     0.077 A 
HETATM   14  S   UNL     1      -7.266   5.027 -31.288  1.00  0.00    -0.055 SA
HETATM   15  C   UNL     1      -5.915   6.077 -30.874  1.00  0.00     0.148 A 
HETATM   16  N   UNL     1      -5.064   6.189 -31.953  1.00  0.00    -0.298 N 
HETATM   17  S   UNL     1      -5.767   6.783 -29.369  1.00  0.00    -0.052 SA
HETATM   18  C   UNL     1      -5.470   5.578 -33.125  1.00  0.00     0.266 A 
HETATM   19  O   UNL     1      -4.885   5.626 -34.199  1.00  0.00    -0.266 OA
BRANCH  16  20
HETATM   20  C   UNL     1      -3.765   6.864 -31.938  1.00  0.00     0.138 C 
BRANCH  20  21
HETATM   21  C   UNL     1      -2.604   5.915 -31.623  1.00  0.00     0.059 C 
BRANCH  21  22
HETATM   22  C   UNL     1      -1.611   6.565 -30.689  1.00  0.00    -0.057 A 
HETATM   23  C   UNL     1      -0.238   6.468 -30.943  1.00  0.00     0.010 A 
HETATM   24  C   UNL     1       0.685   7.036 -30.061  1.00  0.00     0.037 A 
HETATM   25  C   UNL     1       0.254   7.721 -28.925  1.00  0.00     0.068 A 
HETATM   26  C   UNL     1      -1.113   7.819 -28.666  1.00  0.00     0.037 A 
HETATM   27  C   UNL     1      -2.041   7.242 -29.543  1.00  0.00     0.010 A 
BRANCH  25  28
HETATM   28  O   UNL     1       1.258   8.232 -28.150  1.00  0.00    -0.356 OA
HETATM   29  C   UNL     1       1.457   7.625 -26.879  1.00  0.00     0.210 C 
ENDBRANCH  25  28
ENDBRANCH  21  22
ENDBRANCH  20  21
ENDBRANCH  16  20
ENDBRANCH  12  13
ENDBRANCH   1  12
BRANCH  11  30
HETATM   30  N   UNL     1      -7.076   1.321 -32.746  1.00  0.00    -0.274 NA
HETATM   31  H   UNL     1      -6.319   1.776 -33.261  1.00  0.00     0.129 HD
BRANCH  30  32
HETATM   32  C   UNL     1      -6.807  -0.131 -32.759  1.00  0.00     0.130 C 
BRANCH  32  33
HETATM   33  C   UNL     1      -5.592  -0.506 -33.645  1.00  0.00     0.164 C 
BRANCH  33  34
HETATM   34  O   UNL     1      -4.369  -0.200 -32.958  1.00  0.00    -0.390 OA
HETATM   35  H   UNL     1      -3.824   0.279 -33.617  1.00  0.00     0.210 HD
ENDBRANCH  33  34
BRANCH  33  36
HETATM   36  C   UNL     1      -5.632  -1.969 -34.037  1.00  0.00    -0.029 A 
HETATM   37  C   UNL     1      -4.454  -2.734 -33.999  1.00  0.00     0.010 A 
HETATM   38  C   UNL     1      -4.463  -4.075 -34.387  1.00  0.00     0.001 A 
HETATM   39  C   UNL     1      -5.647  -4.671 -34.817  1.00  0.00     0.000 A 
HETATM   40  C   UNL     1      -6.823  -3.926 -34.859  1.00  0.00     0.001 A 
HETATM   41  C   UNL     1      -6.815  -2.584 -34.475  1.00  0.00     0.010 A 
ENDBRANCH  33  36
ENDBRANCH  32  33
ENDBRANCH  30  32
ENDBRANCH  11  30
TORSDOF 11
ENDMDL
