MODEL 1
REMARK VINA RESULT:      -9.5      0.000      0.000
REMARK  4 active torsions:
REMARK  status: ('A' for Active; 'I' for Inactive)
REMARK    1  A    between atoms: C_2  and  C_3 
REMARK    2  A    between atoms: C_11  and  C_12 
REMARK       I    between atoms: C_12  and  N_13 
REMARK    3  A    between atoms: N_13  and  C_14 
REMARK    4  A    between atoms: C_21  and  C_22 
REMARK       I    between atoms: C_22  and  N_23 
ROOT
HETATM    1  C   UNL     1      -9.833   1.939 -34.265  1.00  0.00     0.035 A 
HETATM    2  C   UNL     1     -11.099   1.345 -34.307  1.00  0.00     0.046 A 
HETATM    3  C   UNL     1     -12.148   1.874 -33.523  1.00  0.00     0.030 A 
HETATM    4  C   UNL     1     -11.905   2.989 -32.734  1.00  0.00     0.063 A 
HETATM    5  N   UNL     1     -13.091   3.260 -32.111  1.00  0.00    -0.277 N 
HETATM    6  H   UNL     1     -13.285   4.011 -31.458  1.00  0.00     0.189 HD
HETATM    7  N   UNL     1     -14.090   2.417 -32.427  1.00  0.00    -0.168 NA
HETATM    8  C   UNL     1     -13.522   1.556 -33.300  1.00  0.00     0.156 A 
HETATM    9  C   UNL     1     -10.663   3.620 -32.676  1.00  0.00     0.034 A 
HETATM   10  C   UNL     1      -9.639   3.072 -33.460  1.00  0.00     0.032 A 
ENDROOT
BRANCH   1  11
HETATM   11  N   UNL     1      -8.717   1.512 -35.008  1.00  0.00    -0.324 N 
HETATM   12  C   UNL     1      -7.524   0.934 -34.688  1.00  0.00     0.246 C 
HETATM   13  O   UNL     1      -6.781   0.555 -35.592  1.00  0.00    -0.268 OA
HETATM   14  H   UNL     1      -8.789   1.607 -36.016  1.00  0.00     0.169 HD
BRANCH  12  15
HETATM   15  C   UNL     1      -7.097   0.841 -33.278  1.00  0.00     0.082 C 
HETATM   16  C   UNL     1      -6.488  -0.242 -32.759  1.00  0.00    -0.043 C 
HETATM   17  C   UNL     1      -6.019  -0.294 -31.334  1.00  0.00     0.049 C 
BRANCH  16  18
HETATM   18  C   UNL     1      -6.250  -1.464 -33.548  1.00  0.00     0.009 A 
HETATM   19  C   UNL     1      -4.964  -1.799 -33.992  1.00  0.00     0.130 A 
HETATM   20  F   UNL     1      -3.915  -1.025 -33.675  1.00  0.00    -0.205 F 
HETATM   21  C   UNL     1      -4.744  -2.935 -34.764  1.00  0.00     0.085 A 
HETATM   22  C   UNL     1      -5.821  -3.748 -35.086  1.00  0.00     0.119 A 
HETATM   23  F   UNL     1      -5.620  -4.847 -35.825  1.00  0.00    -0.206 F 
HETATM   24  C   UNL     1      -7.109  -3.445 -34.650  1.00  0.00     0.043 A 
HETATM   25  C   UNL     1      -7.326  -2.299 -33.882  1.00  0.00     0.018 A 
ENDBRANCH  16  18
ENDBRANCH  12  15
ENDBRANCH   1  11
BRANCH   8  26
HETATM   26  C   UNL     1     -14.286   0.452 -33.899  1.00  0.00     0.270 C 
HETATM   27  N   UNL     1     -13.911  -0.788 -33.461  1.00  0.00    -0.365 N 
HETATM   28  H   UNL     1     -13.158  -0.859 -32.786  1.00  0.00     0.159 HD
HETATM   29  H   UNL     1     -14.371  -1.610 -33.822  1.00  0.00     0.159 HD
HETATM   30  O   UNL     1     -15.184   0.597 -34.722  1.00  0.00    -0.266 OA
ENDBRANCH   8  26
TORSDOF 4
ENDMDL
MODEL 2
REMARK VINA RESULT:      -9.2      3.276      4.569
REMARK  4 active torsions:
REMARK  status: ('A' for Active; 'I' for Inactive)
REMARK    1  A    between atoms: C_2  and  C_3 
REMARK    2  A    between atoms: C_11  and  C_12 
REMARK       I    between atoms: C_12  and  N_13 
REMARK    3  A    between atoms: N_13  and  C_14 
REMARK    4  A    between atoms: C_21  and  C_22 
REMARK       I    between atoms: C_22  and  N_23 
ROOT
HETATM    1  C   UNL     1      -8.292   1.120 -31.776  1.00  0.00     0.035 A 
HETATM    2  C   UNL     1      -8.210   2.400 -32.335  1.00  0.00     0.046 A 
HETATM    3  C   UNL     1      -9.091   2.768 -33.377  1.00  0.00     0.030 A 
HETATM    4  C   UNL     1     -10.035   1.852 -33.817  1.00  0.00     0.063 A 
HETATM    5  N   UNL     1     -10.728   2.491 -34.808  1.00  0.00    -0.277 N 
HETATM    6  H   UNL     1     -11.496   2.123 -35.356  1.00  0.00     0.189 HD
HETATM    7  N   UNL     1     -10.315   3.747 -35.053  1.00  0.00    -0.168 NA
HETATM    8  C   UNL     1      -9.305   3.933 -34.174  1.00  0.00     0.156 A 
HETATM    9  C   UNL     1     -10.160   0.574 -33.276  1.00  0.00     0.034 A 
HETATM   10  C   UNL     1      -9.271   0.232 -32.248  1.00  0.00     0.032 A 
ENDROOT
BRANCH   1  11
HETATM   11  N   UNL     1      -7.482   0.643 -30.729  1.00  0.00    -0.324 N 
HETATM   12  C   UNL     1      -6.283   1.026 -30.203  1.00  0.00     0.246 C 
HETATM   13  O   UNL     1      -5.874   0.473 -29.184  1.00  0.00    -0.268 OA
HETATM   14  H   UNL     1      -7.852  -0.138 -30.199  1.00  0.00     0.169 HD
BRANCH  12  15
HETATM   15  C   UNL     1      -5.452   2.030 -30.897  1.00  0.00     0.082 C 
HETATM   16  C   UNL     1      -4.559   1.718 -31.854  1.00  0.00    -0.043 C 
HETATM   17  C   UNL     1      -3.761   2.762 -32.579  1.00  0.00     0.049 C 
BRANCH  16  18
HETATM   18  C   UNL     1      -4.286   0.325 -32.251  1.00  0.00     0.009 A 
HETATM   19  C   UNL     1      -4.977  -0.273 -33.313  1.00  0.00     0.130 A 
HETATM   20  F   UNL     1      -5.880   0.429 -34.015  1.00  0.00    -0.205 F 
HETATM   21  C   UNL     1      -4.742  -1.597 -33.668  1.00  0.00     0.085 A 
HETATM   22  C   UNL     1      -3.801  -2.327 -32.957  1.00  0.00     0.119 A 
HETATM   23  F   UNL     1      -3.564  -3.602 -33.291  1.00  0.00    -0.206 F 
HETATM   24  C   UNL     1      -3.093  -1.756 -31.902  1.00  0.00     0.043 A 
HETATM   25  C   UNL     1      -3.336  -0.428 -31.545  1.00  0.00     0.018 A 
ENDBRANCH  16  18
ENDBRANCH  12  15
ENDBRANCH   1  11
BRANCH   8  26
HETATM   26  C   UNL     1      -8.564   5.200 -34.111  1.00  0.00     0.270 C 
HETATM   27  N   UNL     1      -9.359   6.313 -34.104  1.00  0.00    -0.365 N 
HETATM   28  H   UNL     1     -10.365   6.192 -34.147  1.00  0.00     0.159 HD
HETATM   29  H   UNL     1      -8.942   7.230 -34.071  1.00  0.00     0.159 HD
HETATM   30  O   UNL     1      -7.341   5.286 -34.069  1.00  0.00    -0.266 OA
ENDBRANCH   8  26
TORSDOF 4
ENDMDL
MODEL 3
REMARK VINA RESULT:      -8.9      6.401      9.217
REMARK  4 active torsions:
REMARK  status: ('A' for Active; 'I' for Inactive)
REMARK    1  A    between atoms: C_2  and  C_3 
REMARK    2  A    between atoms: C_11  and  C_12 
REMARK       I    between atoms: C_12  and  N_13 
REMARK    3  A    between atoms: N_13  and  C_14 
REMARK    4  A    between atoms: C_21  and  C_22 
REMARK       I    between atoms: C_22  and  N_23 
ROOT
HETATM    1  C   UNL     1      -5.200   3.479 -32.503  1.00  0.00     0.035 A 
HETATM    2  C   UNL     1      -4.412   2.392 -32.109  1.00  0.00     0.046 A 
HETATM    3  C   UNL     1      -4.700   1.101 -32.607  1.00  0.00     0.030 A 
HETATM    4  C   UNL     1      -5.755   0.940 -33.494  1.00  0.00     0.063 A 
HETATM    5  N   UNL     1      -5.777  -0.395 -33.793  1.00  0.00    -0.277 N 
HETATM    6  H   UNL     1      -6.418  -0.874 -34.415  1.00  0.00     0.189 HD
HETATM    7  N   UNL     1      -4.826  -1.118 -33.178  1.00  0.00    -0.168 NA
HETATM    8  C   UNL     1      -4.151  -0.207 -32.442  1.00  0.00     0.156 A 
HETATM    9  C   UNL     1      -6.553   1.998 -33.923  1.00  0.00     0.034 A 
HETATM   10  C   UNL     1      -6.250   3.267 -33.410  1.00  0.00     0.032 A 
ENDROOT
BRANCH   1  11
HETATM   11  N   UNL     1      -5.004   4.809 -32.087  1.00  0.00    -0.324 N 
HETATM   12  C   UNL     1      -4.364   5.889 -32.619  1.00  0.00     0.246 C 
HETATM   13  O   UNL     1      -4.471   6.982 -32.064  1.00  0.00    -0.268 OA
HETATM   14  H   UNL     1      -5.453   5.075 -31.217  1.00  0.00     0.169 HD
BRANCH  12  15
HETATM   15  C   UNL     1      -3.488   5.729 -33.797  1.00  0.00     0.082 C 
HETATM   16  C   UNL     1      -2.145   5.686 -33.719  1.00  0.00    -0.043 C 
HETATM   17  C   UNL     1      -1.277   5.474 -34.926  1.00  0.00     0.049 C 
BRANCH  16  18
HETATM   18  C   UNL     1      -1.425   5.860 -32.445  1.00  0.00     0.009 A 
HETATM   19  C   UNL     1      -1.018   7.128 -32.011  1.00  0.00     0.130 A 
HETATM   20  F   UNL     1      -1.309   8.219 -32.737  1.00  0.00    -0.205 F 
HETATM   21  C   UNL     1      -0.310   7.289 -30.824  1.00  0.00     0.085 A 
HETATM   22  C   UNL     1      -0.016   6.168 -30.061  1.00  0.00     0.119 A 
HETATM   23  F   UNL     1       0.662   6.311 -28.914  1.00  0.00    -0.206 F 
HETATM   24  C   UNL     1      -0.416   4.896 -30.462  1.00  0.00     0.043 A 
HETATM   25  C   UNL     1      -1.120   4.740 -31.658  1.00  0.00     0.018 A 
ENDBRANCH  16  18
ENDBRANCH  12  15
ENDBRANCH   1  11
BRANCH   8  26
HETATM   26  C   UNL     1      -3.010  -0.590 -31.599  1.00  0.00     0.270 C 
HETATM   27  N   UNL     1      -2.684  -1.917 -31.670  1.00  0.00    -0.365 N 
HETATM   28  H   UNL     1      -3.234  -2.521 -32.271  1.00  0.00     0.159 HD
HETATM   29  H   UNL     1      -1.920  -2.278 -31.121  1.00  0.00     0.159 HD
HETATM   30  O   UNL     1      -2.386   0.185 -30.883  1.00  0.00    -0.266 OA
ENDBRANCH   8  26
TORSDOF 4
ENDMDL
MODEL 4
REMARK VINA RESULT:      -8.9      6.114      8.564
REMARK  4 active torsions:
REMARK  status: ('A' for Active; 'I' for Inactive)
REMARK    1  A    between atoms: C_2  and  C_3 
REMARK    2  A    between atoms: C_11  and  C_12 
REMARK       I    between atoms: C_12  and  N_13 
REMARK    3  A    between atoms: N_13  and  C_14 
REMARK    4  A    between atoms: C_21  and  C_22 
REMARK       I    between atoms: C_22  and  N_23 
ROOT
HETATM    1  C   UNL     1      -4.782   3.054 -32.163  1.00  0.00     0.035 A 
HETATM    2  C   UNL     1      -5.831   2.341 -32.754  1.00  0.00     0.046 A 
HETATM    3  C   UNL     1      -5.713   0.945 -32.938  1.00  0.00     0.030 A 
HETATM    4  C   UNL     1      -4.559   0.303 -32.512  1.00  0.00     0.063 A 
HETATM    5  N   UNL     1      -4.743  -1.017 -32.816  1.00  0.00    -0.277 N 
HETATM    6  H   UNL     1      -4.102  -1.782 -32.645  1.00  0.00     0.189 HD
HETATM    7  N   UNL     1      -5.920  -1.292 -33.405  1.00  0.00    -0.168 NA
HETATM    8  C   UNL     1      -6.531  -0.089 -33.485  1.00  0.00     0.156 A 
HETATM    9  C   UNL     1      -3.499   0.974 -31.905  1.00  0.00     0.034 A 
HETATM   10  C   UNL     1      -3.639   2.359 -31.739  1.00  0.00     0.032 A 
ENDROOT
BRANCH   1  11
HETATM   11  N   UNL     1      -4.788   4.440 -31.916  1.00  0.00    -0.324 N 
HETATM   12  C   UNL     1      -4.344   5.531 -32.602  1.00  0.00     0.246 C 
HETATM   13  O   UNL     1      -4.606   6.654 -32.175  1.00  0.00    -0.268 OA
HETATM   14  H   UNL     1      -5.246   4.738 -31.062  1.00  0.00     0.169 HD
BRANCH  12  15
HETATM   15  C   UNL     1      -3.489   5.364 -33.795  1.00  0.00     0.082 C 
HETATM   16  C   UNL     1      -2.147   5.464 -33.763  1.00  0.00    -0.043 C 
HETATM   17  C   UNL     1      -1.297   5.242 -34.980  1.00  0.00     0.049 C 
BRANCH  16  18
HETATM   18  C   UNL     1      -1.414   5.816 -32.535  1.00  0.00     0.009 A 
HETATM   19  C   UNL     1      -1.126   7.150 -32.220  1.00  0.00     0.130 A 
HETATM   20  F   UNL     1      -1.546   8.141 -33.022  1.00  0.00    -0.205 F 
HETATM   21  C   UNL     1      -0.406   7.480 -31.077  1.00  0.00     0.085 A 
HETATM   22  C   UNL     1       0.023   6.464 -30.236  1.00  0.00     0.119 A 
HETATM   23  F   UNL     1       0.714   6.769 -29.130  1.00  0.00    -0.206 F 
HETATM   24  C   UNL     1      -0.257   5.129 -30.518  1.00  0.00     0.043 A 
HETATM   25  C   UNL     1      -0.974   4.802 -31.671  1.00  0.00     0.018 A 
ENDBRANCH  16  18
ENDBRANCH  12  15
ENDBRANCH   1  11
BRANCH   8  26
HETATM   26  C   UNL     1      -7.867   0.057 -34.079  1.00  0.00     0.270 C 
HETATM   27  N   UNL     1      -7.856   0.326 -35.420  1.00  0.00    -0.365 N 
HETATM   28  H   UNL     1      -6.962   0.408 -35.892  1.00  0.00     0.159 HD
HETATM   29  H   UNL     1      -8.725   0.452 -35.916  1.00  0.00     0.159 HD
HETATM   30  O   UNL     1      -8.918  -0.044 -33.455  1.00  0.00    -0.266 OA
ENDBRANCH   8  26
TORSDOF 4
ENDMDL
MODEL 5
REMARK VINA RESULT:      -8.9      1.722      2.182
REMARK  4 active torsions:
REMARK  status: ('A' for Active; 'I' for Inactive)
REMARK    1  A    between atoms: C_2  and  C_3 
REMARK    2  A    between atoms: C_11  and  C_12 
REMARK       I    between atoms: C_12  and  N_13 
REMARK    3  A    between atoms: N_13  and  C_14 
REMARK    4  A    between atoms: C_21  and  C_22 
REMARK       I    between atoms: C_22  and  N_23 
ROOT
HETATM    1  C   UNL     1      -9.054   3.223 -33.003  1.00  0.00     0.035 A 
HETATM    2  C   UNL     1     -10.101   2.552 -33.644  1.00  0.00     0.046 A 
HETATM    3  C   UNL     1     -11.419   2.675 -33.152  1.00  0.00     0.030 A 
HETATM    4  C   UNL     1     -11.653   3.478 -32.044  1.00  0.00     0.063 A 
HETATM    5  N   UNL     1     -12.999   3.401 -31.817  1.00  0.00    -0.277 N 
HETATM    6  H   UNL     1     -13.526   3.864 -31.085  1.00  0.00     0.189 HD
HETATM    7  N   UNL     1     -13.665   2.616 -32.682  1.00  0.00    -0.168 NA
HETATM    8  C   UNL     1     -12.701   2.162 -33.514  1.00  0.00     0.156 A 
HETATM    9  C   UNL     1     -10.641   4.176 -31.387  1.00  0.00     0.034 A 
HETATM   10  C   UNL     1      -9.342   4.032 -31.893  1.00  0.00     0.032 A 
ENDROOT
BRANCH   1  11
HETATM   11  N   UNL     1      -7.706   3.188 -33.407  1.00  0.00    -0.324 N 
HETATM   12  C   UNL     1      -6.582   2.588 -32.922  1.00  0.00     0.246 C 
HETATM   13  O   UNL     1      -5.543   2.644 -33.578  1.00  0.00    -0.268 OA
HETATM   14  H   UNL     1      -7.486   3.678 -34.267  1.00  0.00     0.169 HD
BRANCH  12  15
HETATM   15  C   UNL     1      -6.593   1.954 -31.588  1.00  0.00     0.082 C 
HETATM   16  C   UNL     1      -6.369   0.642 -31.392  1.00  0.00    -0.043 C 
HETATM   17  C   UNL     1      -6.337   0.029 -30.021  1.00  0.00     0.049 C 
BRANCH  16  18
HETATM   18  C   UNL     1      -6.153  -0.295 -32.508  1.00  0.00     0.009 A 
HETATM   19  C   UNL     1      -7.225  -0.752 -33.287  1.00  0.00     0.130 A 
HETATM   20  F   UNL     1      -8.471  -0.313 -33.049  1.00  0.00    -0.205 F 
HETATM   21  C   UNL     1      -7.026  -1.661 -34.321  1.00  0.00     0.085 A 
HETATM   22  C   UNL     1      -5.739  -2.110 -34.582  1.00  0.00     0.119 A 
HETATM   23  F   UNL     1      -5.534  -2.983 -35.577  1.00  0.00    -0.206 F 
HETATM   24  C   UNL     1      -4.654  -1.666 -33.830  1.00  0.00     0.043 A 
HETATM   25  C   UNL     1      -4.860  -0.759 -32.789  1.00  0.00     0.018 A 
ENDBRANCH  16  18
ENDBRANCH  12  15
ENDBRANCH   1  11
BRANCH   8  26
HETATM   26  C   UNL     1     -13.011   1.253 -34.626  1.00  0.00     0.270 C 
HETATM   27  N   UNL     1     -13.639   0.099 -34.246  1.00  0.00    -0.365 N 
HETATM   28  H   UNL     1     -13.835  -0.046 -33.262  1.00  0.00     0.159 HD
HETATM   29  H   UNL     1     -13.885  -0.592 -34.937  1.00  0.00     0.159 HD
HETATM   30  O   UNL     1     -12.741   1.478 -35.801  1.00  0.00    -0.266 OA
ENDBRANCH   8  26
TORSDOF 4
ENDMDL
MODEL 6
REMARK VINA RESULT:      -8.9      5.309      8.316
REMARK  4 active torsions:
REMARK  status: ('A' for Active; 'I' for Inactive)
REMARK    1  A    between atoms: C_2  and  C_3 
REMARK    2  A    between atoms: C_11  and  C_12 
REMARK       I    between atoms: C_12  and  N_13 
REMARK    3  A    between atoms: N_13  and  C_14 
REMARK    4  A    between atoms: C_21  and  C_22 
REMARK       I    between atoms: C_22  and  N_23 
ROOT
HETATM    1  C   UNL     1      -5.272   4.361 -32.250  1.00  0.00     0.035 A 
HETATM    2  C   UNL     1      -3.941   4.663 -31.944  1.00  0.00     0.046 A 
HETATM    3  C   UNL     1      -3.050   5.032 -32.976  1.00  0.00     0.030 A 
HETATM    4  C   UNL     1      -3.520   5.102 -34.280  1.00  0.00     0.063 A 
HETATM    5  N   UNL     1      -2.445   5.482 -35.034  1.00  0.00    -0.277 N 
HETATM    6  H   UNL     1      -2.420   5.635 -36.036  1.00  0.00     0.189 HD
HETATM    7  N   UNL     1      -1.312   5.666 -34.334  1.00  0.00    -0.168 NA
HETATM    8  C   UNL     1      -1.671   5.393 -33.060  1.00  0.00     0.156 A 
HETATM    9  C   UNL     1      -4.842   4.825 -34.625  1.00  0.00     0.034 A 
HETATM   10  C   UNL     1      -5.703   4.457 -33.583  1.00  0.00     0.032 A 
ENDROOT
BRANCH   1  11
HETATM   11  N   UNL     1      -6.253   3.996 -31.310  1.00  0.00    -0.324 N 
HETATM   12  C   UNL     1      -6.460   2.899 -30.527  1.00  0.00     0.246 C 
HETATM   13  O   UNL     1      -7.363   2.921 -29.692  1.00  0.00    -0.268 OA
HETATM   14  H   UNL     1      -6.967   4.690 -31.118  1.00  0.00     0.169 HD
BRANCH  12  15
HETATM   15  C   UNL     1      -5.662   1.674 -30.735  1.00  0.00     0.082 C 
HETATM   16  C   UNL     1      -6.007   0.707 -31.606  1.00  0.00    -0.043 C 
HETATM   17  C   UNL     1      -5.153  -0.507 -31.836  1.00  0.00     0.049 C 
BRANCH  16  18
HETATM   18  C   UNL     1      -7.254   0.760 -32.388  1.00  0.00     0.009 A 
HETATM   19  C   UNL     1      -7.248   1.142 -33.736  1.00  0.00     0.130 A 
HETATM   20  F   UNL     1      -6.092   1.435 -34.352  1.00  0.00    -0.205 F 
HETATM   21  C   UNL     1      -8.429   1.223 -34.466  1.00  0.00     0.085 A 
HETATM   22  C   UNL     1      -9.628   0.910 -33.841  1.00  0.00     0.119 A 
HETATM   23  F   UNL     1     -10.772   0.981 -34.534  1.00  0.00    -0.206 F 
HETATM   24  C   UNL     1      -9.664   0.518 -32.505  1.00  0.00     0.043 A 
HETATM   25  C   UNL     1      -8.476   0.445 -31.774  1.00  0.00     0.018 A 
ENDBRANCH  16  18
ENDBRANCH  12  15
ENDBRANCH   1  11
BRANCH   8  26
HETATM   26  C   UNL     1      -0.706   5.474 -31.954  1.00  0.00     0.270 C 
HETATM   27  N   UNL     1      -0.138   6.709 -31.798  1.00  0.00    -0.365 N 
HETATM   28  H   UNL     1      -0.406   7.451 -32.434  1.00  0.00     0.159 HD
HETATM   29  H   UNL     1       0.543   6.861 -31.071  1.00  0.00     0.159 HD
HETATM   30  O   UNL     1      -0.414   4.537 -31.220  1.00  0.00    -0.266 OA
ENDBRANCH   8  26
TORSDOF 4
ENDMDL
MODEL 7
REMARK VINA RESULT:      -8.8      4.275      8.076
REMARK  4 active torsions:
REMARK  status: ('A' for Active; 'I' for Inactive)
REMARK    1  A    between atoms: C_2  and  C_3 
REMARK    2  A    between atoms: C_11  and  C_12 
REMARK       I    between atoms: C_12  and  N_13 
REMARK    3  A    between atoms: N_13  and  C_14 
REMARK    4  A    between atoms: C_21  and  C_22 
REMARK       I    between atoms: C_22  and  N_23 
ROOT
HETATM    1  C   UNL     1      -7.824   0.623 -31.756  1.00  0.00     0.035 A 
HETATM    2  C   UNL     1      -6.459   0.383 -31.560  1.00  0.00     0.046 A 
HETATM    3  C   UNL     1      -5.755  -0.442 -32.465  1.00  0.00     0.030 A 
HETATM    4  C   UNL     1      -6.433  -0.990 -33.545  1.00  0.00     0.063 A 
HETATM    5  N   UNL     1      -5.500  -1.721 -34.227  1.00  0.00    -0.277 N 
HETATM    6  H   UNL     1      -5.640  -2.259 -35.074  1.00  0.00     0.189 HD
HETATM    7  N   UNL     1      -4.270  -1.697 -33.684  1.00  0.00    -0.168 NA
HETATM    8  C   UNL     1      -4.412  -0.909 -32.595  1.00  0.00     0.156 A 
HETATM    9  C   UNL     1      -7.787  -0.763 -33.785  1.00  0.00     0.034 A 
HETATM   10  C   UNL     1      -8.463   0.055 -32.869  1.00  0.00     0.032 A 
ENDROOT
BRANCH   1  11
HETATM   11  N   UNL     1      -8.626   1.435 -30.933  1.00  0.00    -0.324 N 
HETATM   12  C   UNL     1      -9.275   2.622 -31.108  1.00  0.00     0.246 C 
HETATM   13  O   UNL     1     -10.017   3.035 -30.219  1.00  0.00    -0.268 OA
HETATM   14  H   UNL     1      -8.818   1.077 -30.003  1.00  0.00     0.169 HD
BRANCH  12  15
HETATM   15  C   UNL     1      -9.023   3.437 -32.313  1.00  0.00     0.082 C 
HETATM   16  C   UNL     1      -9.916   3.578 -33.310  1.00  0.00    -0.043 C 
HETATM   17  C   UNL     1      -9.656   4.453 -34.503  1.00  0.00     0.049 C 
BRANCH  16  18
HETATM   18  C   UNL     1     -11.209   2.873 -33.314  1.00  0.00     0.009 A 
HETATM   19  C   UNL     1     -12.350   3.451 -32.740  1.00  0.00     0.130 A 
HETATM   20  F   UNL     1     -12.291   4.680 -32.205  1.00  0.00    -0.205 F 
HETATM   21  C   UNL     1     -13.564   2.773 -32.715  1.00  0.00     0.085 A 
HETATM   22  C   UNL     1     -13.638   1.506 -33.278  1.00  0.00     0.119 A 
HETATM   23  F   UNL     1     -14.802   0.845 -33.262  1.00  0.00    -0.206 F 
HETATM   24  C   UNL     1     -12.523   0.911 -33.863  1.00  0.00     0.043 A 
HETATM   25  C   UNL     1     -11.305   1.593 -33.879  1.00  0.00     0.018 A 
ENDBRANCH  16  18
ENDBRANCH  12  15
ENDBRANCH   1  11
BRANCH   8  26
HETATM   26  C   UNL     1      -3.282  -0.619 -31.702  1.00  0.00     0.270 C 
HETATM   27  N   UNL     1      -2.424  -1.670 -31.529  1.00  0.00    -0.365 N 
HETATM   28  H   UNL     1      -2.622  -2.543 -32.004  1.00  0.00     0.159 HD
HETATM   29  H   UNL     1      -1.622  -1.570 -30.926  1.00  0.00     0.159 HD
HETATM   30  O   UNL     1      -3.098   0.458 -31.145  1.00  0.00    -0.266 OA
ENDBRANCH   8  26
TORSDOF 4
ENDMDL
MODEL 8
REMARK VINA RESULT:      -8.8      2.134      3.530
REMARK  4 active torsions:
REMARK  status: ('A' for Active; 'I' for Inactive)
REMARK    1  A    between atoms: C_2  and  C_3 
REMARK    2  A    between atoms: C_11  and  C_12 
REMARK       I    between atoms: C_12  and  N_13 
REMARK    3  A    between atoms: N_13  and  C_14 
REMARK    4  A    between atoms: C_21  and  C_22 
REMARK       I    between atoms: C_22  and  N_23 
ROOT
HETATM    1  C   UNL     1      -9.781   1.938 -34.051  1.00  0.00     0.035 A 
HETATM    2  C   UNL     1     -11.044   1.344 -34.158  1.00  0.00     0.046 A 
HETATM    3  C   UNL     1     -12.141   1.899 -33.462  1.00  0.00     0.030 A 
HETATM    4  C   UNL     1     -11.947   3.038 -32.693  1.00  0.00     0.063 A 
HETATM    5  N   UNL     1     -13.171   3.331 -32.160  1.00  0.00    -0.277 N 
HETATM    6  H   UNL     1     -13.405   4.101 -31.545  1.00  0.00     0.189 HD
HETATM    7  N   UNL     1     -14.149   2.479 -32.514  1.00  0.00    -0.168 NA
HETATM    8  C   UNL     1     -13.528   1.590 -33.321  1.00  0.00     0.156 A 
HETATM    9  C   UNL     1     -10.710   3.669 -32.573  1.00  0.00     0.034 A 
HETATM   10  C   UNL     1      -9.637   3.095 -33.270  1.00  0.00     0.032 A 
ENDROOT
BRANCH   1  11
HETATM   11  N   UNL     1      -8.620   1.487 -34.704  1.00  0.00    -0.324 N 
HETATM   12  C   UNL     1      -7.660   0.564 -34.411  1.00  0.00     0.246 C 
HETATM   13  O   UNL     1      -6.809   0.296 -35.258  1.00  0.00    -0.268 OA
HETATM   14  H   UNL     1      -8.438   1.888 -35.618  1.00  0.00     0.169 HD
BRANCH  12  15
HETATM   15  C   UNL     1      -7.596  -0.042 -33.066  1.00  0.00     0.082 C 
HETATM   16  C   UNL     1      -6.794   0.416 -32.086  1.00  0.00    -0.043 C 
HETATM   17  C   UNL     1      -6.782  -0.186 -30.711  1.00  0.00     0.049 C 
BRANCH  16  18
HETATM   18  C   UNL     1      -5.856   1.533 -32.295  1.00  0.00     0.009 A 
HETATM   19  C   UNL     1      -4.494   1.300 -32.529  1.00  0.00     0.130 A 
HETATM   20  F   UNL     1      -4.024   0.046 -32.601  1.00  0.00    -0.205 F 
HETATM   21  C   UNL     1      -3.603   2.355 -32.694  1.00  0.00     0.085 A 
HETATM   22  C   UNL     1      -4.082   3.656 -32.634  1.00  0.00     0.119 A 
HETATM   23  F   UNL     1      -3.234   4.680 -32.795  1.00  0.00    -0.206 F 
HETATM   24  C   UNL     1      -5.432   3.917 -32.413  1.00  0.00     0.043 A 
HETATM   25  C   UNL     1      -6.322   2.855 -32.240  1.00  0.00     0.018 A 
ENDBRANCH  16  18
ENDBRANCH  12  15
ENDBRANCH   1  11
BRANCH   8  26
HETATM   26  C   UNL     1     -14.254   0.469 -33.934  1.00  0.00     0.270 C 
HETATM   27  N   UNL     1     -13.855  -0.762 -33.493  1.00  0.00    -0.365 N 
HETATM   28  H   UNL     1     -13.111  -0.816 -32.806  1.00  0.00     0.159 HD
HETATM   29  H   UNL     1     -14.289  -1.594 -33.863  1.00  0.00     0.159 HD
HETATM   30  O   UNL     1     -15.142   0.594 -34.771  1.00  0.00    -0.266 OA
ENDBRANCH   8  26
TORSDOF 4
ENDMDL
MODEL 9
REMARK VINA RESULT:      -8.7      1.805      2.466
REMARK  4 active torsions:
REMARK  status: ('A' for Active; 'I' for Inactive)
REMARK    1  A    between atoms: C_2  and  C_3 
REMARK    2  A    between atoms: C_11  and  C_12 
REMARK       I    between atoms: C_12  and  N_13 
REMARK    3  A    between atoms: N_13  and  C_14 
REMARK    4  A    between atoms: C_21  and  C_22 
REMARK       I    between atoms: C_22  and  N_23 
ROOT
HETATM    1  C   UNL     1      -9.604   2.173 -33.911  1.00  0.00     0.035 A 
HETATM    2  C   UNL     1     -10.591   3.151 -33.745  1.00  0.00     0.046 A 
HETATM    3  C   UNL     1     -11.915   2.767 -33.439  1.00  0.00     0.030 A 
HETATM    4  C   UNL     1     -12.210   1.418 -33.295  1.00  0.00     0.063 A 
HETATM    5  N   UNL     1     -13.545   1.367 -33.001  1.00  0.00    -0.277 N 
HETATM    6  H   UNL     1     -14.105   0.540 -32.829  1.00  0.00     0.189 HD
HETATM    7  N   UNL     1     -14.147   2.568 -32.942  1.00  0.00    -0.168 NA
HETATM    8  C   UNL     1     -13.152   3.443 -33.209  1.00  0.00     0.156 A 
HETATM    9  C   UNL     1     -11.254   0.414 -33.437  1.00  0.00     0.034 A 
HETATM   10  C   UNL     1      -9.949   0.823 -33.744  1.00  0.00     0.032 A 
ENDROOT
BRANCH   1  11
HETATM   11  N   UNL     1      -8.252   2.432 -34.203  1.00  0.00    -0.324 N 
HETATM   12  C   UNL     1      -7.075   2.181 -33.563  1.00  0.00     0.246 C 
HETATM   13  O   UNL     1      -6.016   2.427 -34.139  1.00  0.00    -0.268 OA
HETATM   14  H   UNL     1      -8.066   2.874 -35.097  1.00  0.00     0.169 HD
BRANCH  12  15
HETATM   15  C   UNL     1      -7.074   1.701 -32.166  1.00  0.00     0.082 C 
HETATM   16  C   UNL     1      -6.696   0.459 -31.812  1.00  0.00    -0.043 C 
HETATM   17  C   UNL     1      -6.657   0.010 -30.380  1.00  0.00     0.049 C 
BRANCH  16  18
HETATM   18  C   UNL     1      -6.306  -0.558 -32.804  1.00  0.00     0.009 A 
HETATM   19  C   UNL     1      -4.957  -0.851 -33.047  1.00  0.00     0.130 A 
HETATM   20  F   UNL     1      -3.992  -0.230 -32.351  1.00  0.00    -0.205 F 
HETATM   21  C   UNL     1      -4.587  -1.788 -34.006  1.00  0.00     0.085 A 
HETATM   22  C   UNL     1      -5.578  -2.444 -34.723  1.00  0.00     0.119 A 
HETATM   23  F   UNL     1      -5.233  -3.350 -35.647  1.00  0.00    -0.206 F 
HETATM   24  C   UNL     1      -6.926  -2.180 -34.496  1.00  0.00     0.043 A 
HETATM   25  C   UNL     1      -7.292  -1.233 -33.537  1.00  0.00     0.018 A 
ENDBRANCH  16  18
ENDBRANCH  12  15
ENDBRANCH   1  11
BRANCH   8  26
HETATM   26  C   UNL     1     -13.390   4.892 -33.245  1.00  0.00     0.270 C 
HETATM   27  N   UNL     1     -13.735   5.371 -34.479  1.00  0.00    -0.365 N 
HETATM   28  H   UNL     1     -13.794   4.720 -35.254  1.00  0.00     0.159 HD
HETATM   29  H   UNL     1     -13.910   6.355 -34.606  1.00  0.00     0.159 HD
HETATM   30  O   UNL     1     -13.296   5.634 -32.273  1.00  0.00    -0.266 OA
ENDBRANCH   8  26
TORSDOF 4
ENDMDL
MODEL 10
REMARK VINA RESULT:      -8.6      2.914      4.057
REMARK  4 active torsions:
REMARK  status: ('A' for Active; 'I' for Inactive)
REMARK    1  A    between atoms: C_2  and  C_3 
REMARK    2  A    between atoms: C_11  and  C_12 
REMARK       I    between atoms: C_12  and  N_13 
REMARK    3  A    between atoms: N_13  and  C_14 
REMARK    4  A    between atoms: C_21  and  C_22 
REMARK       I    between atoms: C_22  and  N_23 
ROOT
HETATM    1  C   UNL     1      -9.417   1.783 -32.406  1.00  0.00     0.035 A 
HETATM    2  C   UNL     1      -9.692   2.958 -33.113  1.00  0.00     0.046 A 
HETATM    3  C   UNL     1     -10.636   2.940 -34.164  1.00  0.00     0.030 A 
HETATM    4  C   UNL     1     -11.287   1.752 -34.465  1.00  0.00     0.063 A 
HETATM    5  N   UNL     1     -12.126   2.050 -35.503  1.00  0.00    -0.277 N 
HETATM    6  H   UNL     1     -12.759   1.420 -35.981  1.00  0.00     0.189 HD
HETATM    7  N   UNL     1     -12.078   3.332 -35.906  1.00  0.00    -0.168 NA
HETATM    8  C   UNL     1     -11.163   3.895 -35.085  1.00  0.00     0.156 A 
HETATM    9  C   UNL     1     -11.053   0.564 -33.775  1.00  0.00     0.034 A 
HETATM   10  C   UNL     1     -10.108   0.609 -32.741  1.00  0.00     0.032 A 
ENDROOT
BRANCH   1  11
HETATM   11  N   UNL     1      -8.510   1.680 -31.335  1.00  0.00    -0.324 N 
HETATM   12  C   UNL     1      -7.355   2.322 -31.000  1.00  0.00     0.246 C 
HETATM   13  O   UNL     1      -6.836   2.090 -29.909  1.00  0.00    -0.268 OA
HETATM   14  H   UNL     1      -8.751   1.012 -30.609  1.00  0.00     0.169 HD
BRANCH  12  15
HETATM   15  C   UNL     1      -6.695   3.220 -31.968  1.00  0.00     0.082 C 
HETATM   16  C   UNL     1      -6.014   2.777 -33.042  1.00  0.00    -0.043 C 
HETATM   17  C   UNL     1      -5.393   3.711 -34.040  1.00  0.00     0.049 C 
BRANCH  16  18
HETATM   18  C   UNL     1      -5.816   1.342 -33.311  1.00  0.00     0.009 A 
HETATM   19  C   UNL     1      -6.577   0.676 -34.282  1.00  0.00     0.130 A 
HETATM   20  F   UNL     1      -7.481   1.347 -35.012  1.00  0.00    -0.205 F 
HETATM   21  C   UNL     1      -6.412  -0.686 -34.514  1.00  0.00     0.085 A 
HETATM   22  C   UNL     1      -5.471  -1.385 -33.772  1.00  0.00     0.119 A 
HETATM   23  F   UNL     1      -5.301  -2.696 -33.989  1.00  0.00    -0.206 F 
HETATM   24  C   UNL     1      -4.694  -0.747 -32.808  1.00  0.00     0.043 A 
HETATM   25  C   UNL     1      -4.868   0.618 -32.573  1.00  0.00     0.018 A 
ENDBRANCH  16  18
ENDBRANCH  12  15
ENDBRANCH   1  11
BRANCH   8  26
HETATM   26  C   UNL     1     -10.804   5.316 -35.193  1.00  0.00     0.270 C 
HETATM   27  N   UNL     1     -11.804   6.173 -34.825  1.00  0.00    -0.365 N 
HETATM   28  H   UNL     1     -12.690   5.786 -34.521  1.00  0.00     0.159 HD
HETATM   29  H   UNL     1     -11.655   7.170 -34.872  1.00  0.00     0.159 HD
HETATM   30  O   UNL     1      -9.715   5.728 -35.577  1.00  0.00    -0.266 OA
ENDBRANCH   8  26
TORSDOF 4
ENDMDL
