MODEL 1
REMARK VINA RESULT:      -8.3      0.000      0.000
REMARK  2 active torsions:
REMARK  status: ('A' for Active; 'I' for Inactive)
REMARK    1  A    between atoms: C_5  and  O_6 
REMARK    2  A    between atoms: C_5  and  C_7 
ROOT
HETATM    1  C   UNL     1      -3.127  -2.517 -31.894  1.00  0.00     0.050 C 
HETATM    2  C   UNL     1      -4.213  -1.868 -32.693  1.00  0.00    -0.034 A 
HETATM    3  C   UNL     1      -4.910  -0.757 -32.240  1.00  0.00     0.052 A 
HETATM    4  C   UNL     1      -5.910  -0.120 -32.991  1.00  0.00     0.039 A 
HETATM    5  C   UNL     1      -6.483   1.023 -32.194  1.00  0.00     0.200 A 
HETATM    6  C   UNL     1      -5.639   0.943 -30.871  1.00  0.00     0.266 A 
HETATM    7  O   UNL     1      -5.723   1.638 -29.868  1.00  0.00    -0.269 OA
HETATM    8  N   UNL     1      -4.751  -0.119 -31.017  1.00  0.00    -0.323 N 
HETATM    9  C   UNL     1      -6.253  -0.620 -34.236  1.00  0.00     0.046 A 
HETATM   10 CL   UNL     1      -7.505   0.076 -35.188  1.00  0.00    -0.084 Cl
HETATM   11  C   UNL     1      -5.554  -1.726 -34.732  1.00  0.00     0.025 A 
HETATM   12  C   UNL     1      -4.541  -2.338 -33.972  1.00  0.00     0.011 A 
HETATM   13  H   UNL     1      -4.111  -0.385 -30.283  1.00  0.00     0.169 HD
ENDROOT
BRANCH   5  14
HETATM   14  O   UNL     1      -7.859   0.731 -31.971  1.00  0.00    -0.371 OA
HETATM   15  H   UNL     1      -7.874  -0.149 -31.558  1.00  0.00     0.212 HD
ENDBRANCH   5  14
BRANCH   5  16
HETATM   16  C   UNL     1      -6.247   2.359 -32.881  1.00  0.00     0.025 A 
HETATM   17  C   UNL     1      -5.024   3.124 -33.038  1.00  0.00     0.003 A 
HETATM   18  C   UNL     1      -5.342   4.285 -33.745  1.00  0.00     0.043 A 
HETATM   19  C   UNL     1      -3.673   2.958 -32.652  1.00  0.00     0.014 A 
HETATM   20  C   UNL     1      -4.396   5.257 -34.101  1.00  0.00     0.030 A 
HETATM   21  N   UNL     1      -6.692   4.267 -33.976  1.00  0.00    -0.359 N 
HETATM   22  C   UNL     1      -3.071   5.048 -33.720  1.00  0.00     0.002 A 
HETATM   23  C   UNL     1      -2.712   3.915 -33.001  1.00  0.00     0.001 A 
HETATM   24  H   UNL     1      -7.197   5.007 -34.442  1.00  0.00     0.166 HD
HETATM   25  C   UNL     1      -7.261   3.148 -33.433  1.00  0.00     0.016 A 
HETATM   26  C   UNL     1      -8.739   2.961 -33.470  1.00  0.00     0.069 C 
ENDBRANCH   5  16
TORSDOF 2
ENDMDL
MODEL 2
REMARK VINA RESULT:      -8.3      1.611      1.988
REMARK  2 active torsions:
REMARK  status: ('A' for Active; 'I' for Inactive)
REMARK    1  A    between atoms: C_5  and  O_6 
REMARK    2  A    between atoms: C_5  and  C_7 
ROOT
HETATM    1  C   UNL     1      -4.472  -2.117 -33.572  1.00  0.00     0.050 C 
HETATM    2  C   UNL     1      -5.724  -1.311 -33.719  1.00  0.00    -0.034 A 
HETATM    3  C   UNL     1      -6.201  -0.482 -32.713  1.00  0.00     0.052 A 
HETATM    4  C   UNL     1      -7.357   0.301 -32.848  1.00  0.00     0.039 A 
HETATM    5  C   UNL     1      -7.607   1.049 -31.565  1.00  0.00     0.200 A 
HETATM    6  C   UNL     1      -6.400   0.575 -30.680  1.00  0.00     0.266 A 
HETATM    7  O   UNL     1      -6.140   0.869 -29.521  1.00  0.00    -0.269 OA
HETATM    8  N   UNL     1      -5.644  -0.302 -31.454  1.00  0.00    -0.323 N 
HETATM    9  C   UNL     1      -8.089   0.243 -34.023  1.00  0.00     0.046 A 
HETATM   10 CL   UNL     1      -9.544   1.133 -34.239  1.00  0.00    -0.084 Cl
HETATM   11  C   UNL     1      -7.624  -0.566 -35.065  1.00  0.00     0.025 A 
HETATM   12  C   UNL     1      -6.451  -1.329 -34.917  1.00  0.00     0.011 A 
HETATM   13  H   UNL     1      -4.820  -0.759 -31.093  1.00  0.00     0.169 HD
ENDROOT
BRANCH   5  14
HETATM   14  O   UNL     1      -8.858   0.597 -31.053  1.00  0.00    -0.371 OA
HETATM   15  H   UNL     1      -8.766   0.623 -30.085  1.00  0.00     0.212 HD
ENDBRANCH   5  14
BRANCH   5  16
HETATM   16  C   UNL     1      -7.542   2.554 -31.771  1.00  0.00     0.025 A 
HETATM   17  C   UNL     1      -6.528   3.363 -32.421  1.00  0.00     0.003 A 
HETATM   18  C   UNL     1      -6.937   4.695 -32.343  1.00  0.00     0.043 A 
HETATM   19  C   UNL     1      -5.296   3.108 -33.069  1.00  0.00     0.014 A 
HETATM   20  C   UNL     1      -6.209   5.762 -32.889  1.00  0.00     0.030 A 
HETATM   21  N   UNL     1      -8.116   4.720 -31.646  1.00  0.00    -0.359 N 
HETATM   22  C   UNL     1      -5.010   5.469 -33.538  1.00  0.00     0.002 A 
HETATM   23  C   UNL     1      -4.555   4.159 -33.624  1.00  0.00     0.001 A 
HETATM   24  H   UNL     1      -8.619   5.565 -31.414  1.00  0.00     0.166 HD
HETATM   25  C   UNL     1      -8.476   3.458 -31.257  1.00  0.00     0.016 A 
HETATM   26  C   UNL     1      -9.674   3.249 -30.397  1.00  0.00     0.069 C 
ENDBRANCH   5  16
TORSDOF 2
ENDMDL
MODEL 3
REMARK VINA RESULT:      -8.2      2.246      5.989
REMARK  2 active torsions:
REMARK  status: ('A' for Active; 'I' for Inactive)
REMARK    1  A    between atoms: C_5  and  O_6 
REMARK    2  A    between atoms: C_5  and  C_7 
ROOT
HETATM    1  C   UNL     1      -5.864   5.095 -32.506  1.00  0.00     0.050 C 
HETATM    2  C   UNL     1      -6.085   3.723 -31.952  1.00  0.00    -0.034 A 
HETATM    3  C   UNL     1      -6.348   2.626 -32.761  1.00  0.00     0.052 A 
HETATM    4  C   UNL     1      -6.528   1.328 -32.258  1.00  0.00     0.039 A 
HETATM    5  C   UNL     1      -6.830   0.388 -33.395  1.00  0.00     0.200 A 
HETATM    6  C   UNL     1      -6.781   1.357 -34.630  1.00  0.00     0.266 A 
HETATM    7  O   UNL     1      -6.984   1.103 -35.810  1.00  0.00    -0.269 OA
HETATM    8  N   UNL     1      -6.481   2.627 -34.143  1.00  0.00    -0.323 N 
HETATM    9  C   UNL     1      -6.470   1.110 -30.891  1.00  0.00     0.046 A 
HETATM   10 CL   UNL     1      -6.734  -0.443 -30.200  1.00  0.00    -0.084 Cl
HETATM   11  C   UNL     1      -6.185   2.191 -30.050  1.00  0.00     0.025 A 
HETATM   12  C   UNL     1      -5.987   3.481 -30.575  1.00  0.00     0.011 A 
HETATM   13  H   UNL     1      -6.415   3.430 -34.749  1.00  0.00     0.169 HD
ENDROOT
BRANCH   5  14
HETATM   14  O   UNL     1      -8.137  -0.133 -33.174  1.00  0.00    -0.371 OA
HETATM   15  H   UNL     1      -8.239  -0.176 -32.208  1.00  0.00     0.212 HD
ENDBRANCH   5  14
BRANCH   5  16
HETATM   16  C   UNL     1      -5.762  -0.686 -33.534  1.00  0.00     0.025 A 
HETATM   17  C   UNL     1      -5.879  -2.066 -33.965  1.00  0.00     0.003 A 
HETATM   18  C   UNL     1      -4.604  -2.633 -33.915  1.00  0.00     0.043 A 
HETATM   19  C   UNL     1      -6.937  -2.904 -34.392  1.00  0.00     0.014 A 
HETATM   20  C   UNL     1      -4.331  -3.957 -34.286  1.00  0.00     0.030 A 
HETATM   21  N   UNL     1      -3.750  -1.674 -33.439  1.00  0.00    -0.359 N 
HETATM   22  C   UNL     1      -5.396  -4.746 -34.721  1.00  0.00     0.002 A 
HETATM   23  C   UNL     1      -6.684  -4.229 -34.770  1.00  0.00     0.001 A 
HETATM   24  H   UNL     1      -2.765  -1.826 -33.271  1.00  0.00     0.166 HD
HETATM   25  C   UNL     1      -4.425  -0.516 -33.164  1.00  0.00     0.016 A 
HETATM   26  C   UNL     1      -3.719   0.637 -32.538  1.00  0.00     0.069 C 
ENDBRANCH   5  16
TORSDOF 2
ENDMDL
MODEL 4
REMARK VINA RESULT:      -7.8      1.899      5.463
REMARK  2 active torsions:
REMARK  status: ('A' for Active; 'I' for Inactive)
REMARK    1  A    between atoms: C_5  and  O_6 
REMARK    2  A    between atoms: C_5  and  C_7 
ROOT
HETATM    1  C   UNL     1      -8.857   4.963 -33.853  1.00  0.00     0.050 C 
HETATM    2  C   UNL     1      -7.595   4.215 -33.555  1.00  0.00    -0.034 A 
HETATM    3  C   UNL     1      -7.595   2.927 -33.038  1.00  0.00     0.052 A 
HETATM    4  C   UNL     1      -6.421   2.204 -32.781  1.00  0.00     0.039 A 
HETATM    5  C   UNL     1      -6.777   0.863 -32.194  1.00  0.00     0.200 A 
HETATM    6  C   UNL     1      -8.345   0.934 -32.168  1.00  0.00     0.266 A 
HETATM    7  O   UNL     1      -9.141   0.101 -31.755  1.00  0.00    -0.269 OA
HETATM    8  N   UNL     1      -8.708   2.172 -32.693  1.00  0.00    -0.323 N 
HETATM    9  C   UNL     1      -5.190   2.790 -33.024  1.00  0.00     0.046 A 
HETATM   10 CL   UNL     1      -3.709   1.984 -32.684  1.00  0.00    -0.084 Cl
HETATM   11  C   UNL     1      -5.155   4.080 -33.566  1.00  0.00     0.025 A 
HETATM   12  C   UNL     1      -6.344   4.781 -33.835  1.00  0.00     0.011 A 
HETATM   13  H   UNL     1      -9.672   2.462 -32.761  1.00  0.00     0.169 HD
ENDROOT
BRANCH   5  14
HETATM   14  O   UNL     1      -6.220   0.818 -30.884  1.00  0.00    -0.371 OA
HETATM   15  H   UNL     1      -6.063  -0.125 -30.701  1.00  0.00     0.212 HD
ENDBRANCH   5  14
BRANCH   5  16
HETATM   16  C   UNL     1      -6.322  -0.280 -33.089  1.00  0.00     0.025 A 
HETATM   17  C   UNL     1      -5.256  -1.245 -32.898  1.00  0.00     0.003 A 
HETATM   18  C   UNL     1      -5.246  -2.087 -34.012  1.00  0.00     0.043 A 
HETATM   19  C   UNL     1      -4.289  -1.496 -31.895  1.00  0.00     0.014 A 
HETATM   20  C   UNL     1      -4.356  -3.159 -34.162  1.00  0.00     0.030 A 
HETATM   21  N   UNL     1      -6.220  -1.644 -34.867  1.00  0.00    -0.359 N 
HETATM   22  C   UNL     1      -3.431  -3.388 -33.144  1.00  0.00     0.002 A 
HETATM   23  C   UNL     1      -3.393  -2.565 -32.026  1.00  0.00     0.001 A 
HETATM   24  H   UNL     1      -6.408  -2.054 -35.771  1.00  0.00     0.166 HD
HETATM   25  C   UNL     1      -6.848  -0.541 -34.357  1.00  0.00     0.016 A 
HETATM   26  C   UNL     1      -7.877   0.178 -35.160  1.00  0.00     0.069 C 
ENDBRANCH   5  16
TORSDOF 2
ENDMDL
MODEL 5
REMARK VINA RESULT:      -7.8      2.092      3.506
REMARK  2 active torsions:
REMARK  status: ('A' for Active; 'I' for Inactive)
REMARK    1  A    between atoms: C_5  and  O_6 
REMARK    2  A    between atoms: C_5  and  C_7 
ROOT
HETATM    1  C   UNL     1      -4.527  -2.218 -33.779  1.00  0.00     0.050 C 
HETATM    2  C   UNL     1      -5.756  -1.365 -33.830  1.00  0.00    -0.034 A 
HETATM    3  C   UNL     1      -6.191  -0.620 -32.743  1.00  0.00     0.052 A 
HETATM    4  C   UNL     1      -7.324   0.207 -32.784  1.00  0.00     0.039 A 
HETATM    5  C   UNL     1      -7.532   0.839 -31.433  1.00  0.00     0.200 A 
HETATM    6  C   UNL     1      -6.327   0.248 -30.617  1.00  0.00     0.266 A 
HETATM    7  O   UNL     1      -6.042   0.425 -29.440  1.00  0.00    -0.269 OA
HETATM    8  N   UNL     1      -5.611  -0.574 -31.482  1.00  0.00    -0.323 N 
HETATM    9  C   UNL     1      -8.074   0.281 -33.946  1.00  0.00     0.046 A 
HETATM   10 CL   UNL     1      -9.504   1.231 -34.053  1.00  0.00    -0.084 Cl
HETATM   11  C   UNL     1      -7.650  -0.441 -35.067  1.00  0.00     0.025 A 
HETATM   12  C   UNL     1      -6.500  -1.249 -35.011  1.00  0.00     0.011 A 
HETATM   13  H   UNL     1      -4.796  -1.087 -31.180  1.00  0.00     0.169 HD
ENDROOT
BRANCH   5  14
HETATM   14  O   UNL     1      -8.788   0.379 -30.943  1.00  0.00    -0.371 OA
HETATM   15  H   UNL     1      -9.397   0.433 -31.700  1.00  0.00     0.212 HD
ENDBRANCH   5  14
BRANCH   5  16
HETATM   16  C   UNL     1      -7.422   2.354 -31.499  1.00  0.00     0.025 A 
HETATM   17  C   UNL     1      -8.400   3.375 -31.170  1.00  0.00     0.003 A 
HETATM   18  C   UNL     1      -7.807   4.617 -31.406  1.00  0.00     0.043 A 
HETATM   19  C   UNL     1      -9.734   3.380 -30.698  1.00  0.00     0.014 A 
HETATM   20  C   UNL     1      -8.454   5.839 -31.175  1.00  0.00     0.030 A 
HETATM   21  N   UNL     1      -6.549   4.383 -31.895  1.00  0.00    -0.359 N 
HETATM   22  C   UNL     1      -9.762   5.803 -30.690  1.00  0.00     0.002 A 
HETATM   23  C   UNL     1     -10.397   4.590 -30.458  1.00  0.00     0.001 A 
HETATM   24  H   UNL     1      -5.909   5.111 -32.182  1.00  0.00     0.166 HD
HETATM   25  C   UNL     1      -6.312   3.040 -32.000  1.00  0.00     0.016 A 
HETATM   26  C   UNL     1      -5.043   2.545 -32.605  1.00  0.00     0.069 C 
ENDBRANCH   5  16
TORSDOF 2
ENDMDL
MODEL 6
REMARK VINA RESULT:      -7.8      2.642      5.105
REMARK  2 active torsions:
REMARK  status: ('A' for Active; 'I' for Inactive)
REMARK    1  A    between atoms: C_5  and  O_6 
REMARK    2  A    between atoms: C_5  and  C_7 
ROOT
HETATM    1  C   UNL     1      -3.944   2.530 -31.145  1.00  0.00     0.050 C 
HETATM    2  C   UNL     1      -4.966   1.660 -31.809  1.00  0.00    -0.034 A 
HETATM    3  C   UNL     1      -6.330   1.844 -31.632  1.00  0.00     0.052 A 
HETATM    4  C   UNL     1      -7.299   1.056 -32.271  1.00  0.00     0.039 A 
HETATM    5  C   UNL     1      -8.671   1.497 -31.834  1.00  0.00     0.200 A 
HETATM    6  C   UNL     1      -8.329   2.672 -30.851  1.00  0.00     0.266 A 
HETATM    7  O   UNL     1      -9.093   3.366 -30.193  1.00  0.00    -0.269 OA
HETATM    8  N   UNL     1      -6.941   2.791 -30.822  1.00  0.00    -0.323 N 
HETATM    9  C   UNL     1      -6.900   0.023 -33.103  1.00  0.00     0.046 A 
HETATM   10 CL   UNL     1      -8.030  -1.018 -33.877  1.00  0.00    -0.084 Cl
HETATM   11  C   UNL     1      -5.532  -0.176 -33.320  1.00  0.00     0.025 A 
HETATM   12  C   UNL     1      -4.577   0.639 -32.686  1.00  0.00     0.011 A 
HETATM   13  H   UNL     1      -6.475   3.471 -30.240  1.00  0.00     0.169 HD
ENDROOT
BRANCH   5  14
HETATM   14  O   UNL     1      -9.272   0.394 -31.161  1.00  0.00    -0.371 OA
HETATM   15  H   UNL     1      -9.806   0.784 -30.449  1.00  0.00     0.212 HD
ENDBRANCH   5  14
BRANCH   5  16
HETATM   16  C   UNL     1      -9.492   2.018 -33.002  1.00  0.00     0.025 A 
HETATM   17  C   UNL     1     -10.766   1.559 -33.525  1.00  0.00     0.003 A 
HETATM   18  C   UNL     1     -11.093   2.373 -34.612  1.00  0.00     0.043 A 
HETATM   19  C   UNL     1     -11.681   0.531 -33.195  1.00  0.00     0.014 A 
HETATM   20  C   UNL     1     -12.274   2.234 -35.354  1.00  0.00     0.030 A 
HETATM   21  N   UNL     1     -10.062   3.259 -34.783  1.00  0.00    -0.359 N 
HETATM   22  C   UNL     1     -13.161   1.223 -34.986  1.00  0.00     0.002 A 
HETATM   23  C   UNL     1     -12.868   0.378 -33.923  1.00  0.00     0.001 A 
HETATM   24  H   UNL     1     -10.024   3.946 -35.523  1.00  0.00     0.166 HD
HETATM   25  C   UNL     1      -9.076   3.040 -33.861  1.00  0.00     0.016 A 
HETATM   26  C   UNL     1      -7.807   3.819 -33.916  1.00  0.00     0.069 C 
ENDBRANCH   5  16
TORSDOF 2
ENDMDL
MODEL 7
REMARK VINA RESULT:      -7.7      2.767      5.332
REMARK  2 active torsions:
REMARK  status: ('A' for Active; 'I' for Inactive)
REMARK    1  A    between atoms: C_5  and  O_6 
REMARK    2  A    between atoms: C_5  and  C_7 
ROOT
HETATM    1  C   UNL     1      -2.821   5.023 -34.824  1.00  0.00     0.050 C 
HETATM    2  C   UNL     1      -3.439   4.458 -33.583  1.00  0.00    -0.034 A 
HETATM    3  C   UNL     1      -4.811   4.442 -33.375  1.00  0.00     0.052 A 
HETATM    4  C   UNL     1      -5.406   3.890 -32.230  1.00  0.00     0.039 A 
HETATM    5  C   UNL     1      -6.899   4.069 -32.306  1.00  0.00     0.200 A 
HETATM    6  C   UNL     1      -7.061   4.802 -33.686  1.00  0.00     0.266 A 
HETATM    7  O   UNL     1      -8.085   5.205 -34.221  1.00  0.00    -0.269 OA
HETATM    8  N   UNL     1      -5.785   4.954 -34.221  1.00  0.00    -0.323 N 
HETATM    9  C   UNL     1      -4.605   3.352 -31.236  1.00  0.00     0.046 A 
HETATM   10 CL   UNL     1      -5.262   2.707 -29.782  1.00  0.00    -0.084 Cl
HETATM   11  C   UNL     1      -3.220   3.333 -31.425  1.00  0.00     0.025 A 
HETATM   12  C   UNL     1      -2.644   3.874 -32.589  1.00  0.00     0.011 A 
HETATM   13  H   UNL     1      -5.627   5.420 -35.102  1.00  0.00     0.169 HD
ENDROOT
BRANCH   5  14
HETATM   14  O   UNL     1      -7.279   4.897 -31.211  1.00  0.00    -0.371 OA
HETATM   15  H   UNL     1      -6.526   5.494 -31.064  1.00  0.00     0.212 HD
ENDBRANCH   5  14
BRANCH   5  16
HETATM   16  C   UNL     1      -7.624   2.732 -32.339  1.00  0.00     0.025 A 
HETATM   17  C   UNL     1      -7.338   1.536 -33.109  1.00  0.00     0.003 A 
HETATM   18  C   UNL     1      -8.304   0.583 -32.780  1.00  0.00     0.043 A 
HETATM   19  C   UNL     1      -6.360   1.156 -34.058  1.00  0.00     0.014 A 
HETATM   20  C   UNL     1      -8.329  -0.711 -33.319  1.00  0.00     0.030 A 
HETATM   21  N   UNL     1      -9.167   1.166 -31.890  1.00  0.00    -0.359 N 
HETATM   22  C   UNL     1      -7.337  -1.055 -34.236  1.00  0.00     0.002 A 
HETATM   23  C   UNL     1      -6.366  -0.133 -34.606  1.00  0.00     0.001 A 
HETATM   24  H   UNL     1      -9.984   0.709 -31.510  1.00  0.00     0.166 HD
HETATM   25  C   UNL     1      -8.806   2.463 -31.644  1.00  0.00     0.016 A 
HETATM   26  C   UNL     1      -9.658   3.331 -30.783  1.00  0.00     0.069 C 
ENDBRANCH   5  16
TORSDOF 2
ENDMDL
MODEL 8
REMARK VINA RESULT:      -7.7      2.407      5.388
REMARK  2 active torsions:
REMARK  status: ('A' for Active; 'I' for Inactive)
REMARK    1  A    between atoms: C_5  and  O_6 
REMARK    2  A    between atoms: C_5  and  C_7 
ROOT
HETATM    1  C   UNL     1      -8.457   5.136 -29.411  1.00  0.00     0.050 C 
HETATM    2  C   UNL     1      -7.818   4.635 -30.669  1.00  0.00    -0.034 A 
HETATM    3  C   UNL     1      -7.185   3.401 -30.743  1.00  0.00     0.052 A 
HETATM    4  C   UNL     1      -6.607   2.906 -31.922  1.00  0.00     0.039 A 
HETATM    5  C   UNL     1      -5.979   1.565 -31.647  1.00  0.00     0.200 A 
HETATM    6  C   UNL     1      -6.303   1.370 -30.123  1.00  0.00     0.266 A 
HETATM    7  O   UNL     1      -5.991   0.442 -29.388  1.00  0.00    -0.269 OA
HETATM    8  N   UNL     1      -7.016   2.492 -29.708  1.00  0.00    -0.323 N 
HETATM    9  C   UNL     1      -6.634   3.677 -33.073  1.00  0.00     0.046 A 
HETATM   10 CL   UNL     1      -5.899   3.158 -34.539  1.00  0.00    -0.084 Cl
HETATM   11  C   UNL     1      -7.283   4.916 -33.037  1.00  0.00     0.025 A 
HETATM   12  C   UNL     1      -7.874   5.386 -31.850  1.00  0.00     0.011 A 
HETATM   13  H   UNL     1      -7.322   2.608 -28.754  1.00  0.00     0.169 HD
ENDROOT
BRANCH   5  14
HETATM   14  O   UNL     1      -4.581   1.700 -31.885  1.00  0.00    -0.371 OA
HETATM   15  H   UNL     1      -4.316   2.514 -31.424  1.00  0.00     0.212 HD
ENDBRANCH   5  14
BRANCH   5  16
HETATM   16  C   UNL     1      -6.633   0.461 -32.463  1.00  0.00     0.025 A 
HETATM   17  C   UNL     1      -6.030  -0.631 -33.204  1.00  0.00     0.003 A 
HETATM   18  C   UNL     1      -7.065  -1.368 -33.784  1.00  0.00     0.043 A 
HETATM   19  C   UNL     1      -4.710  -1.076 -33.451  1.00  0.00     0.014 A 
HETATM   20  C   UNL     1      -6.856  -2.516 -34.560  1.00  0.00     0.030 A 
HETATM   21  N   UNL     1      -8.241  -0.745 -33.460  1.00  0.00    -0.359 N 
HETATM   22  C   UNL     1      -5.541  -2.936 -34.764  1.00  0.00     0.002 A 
HETATM   23  C   UNL     1      -4.480  -2.224 -34.221  1.00  0.00     0.001 A 
HETATM   24  H   UNL     1      -9.150  -1.050 -33.779  1.00  0.00     0.166 HD
HETATM   25  C   UNL     1      -8.006   0.373 -32.707  1.00  0.00     0.016 A 
HETATM   26  C   UNL     1      -9.131   1.271 -32.321  1.00  0.00     0.069 C 
ENDBRANCH   5  16
TORSDOF 2
ENDMDL
MODEL 9
REMARK VINA RESULT:      -7.6     15.923     17.422
REMARK  2 active torsions:
REMARK  status: ('A' for Active; 'I' for Inactive)
REMARK    1  A    between atoms: C_5  and  O_6 
REMARK    2  A    between atoms: C_5  and  C_7 
ROOT
HETATM    1  C   UNL     1       0.261 -14.867 -40.233  1.00  0.00     0.050 C 
HETATM    2  C   UNL     1      -0.861 -14.283 -39.433  1.00  0.00    -0.034 A 
HETATM    3  C   UNL     1      -2.104 -14.003 -39.985  1.00  0.00     0.052 A 
HETATM    4  C   UNL     1      -3.174 -13.483 -39.241  1.00  0.00     0.039 A 
HETATM    5  C   UNL     1      -4.356 -13.266 -40.149  1.00  0.00     0.200 A 
HETATM    6  C   UNL     1      -3.791 -13.757 -41.529  1.00  0.00     0.266 A 
HETATM    7  O   UNL     1      -4.345 -13.771 -42.620  1.00  0.00    -0.269 OA
HETATM    8  N   UNL     1      -2.480 -14.174 -41.311  1.00  0.00    -0.323 N 
HETATM    9  C   UNL     1      -2.999 -13.204 -37.896  1.00  0.00     0.046 A 
HETATM   10 CL   UNL     1      -4.248 -12.515 -36.935  1.00  0.00    -0.084 Cl
HETATM   11  C   UNL     1      -1.765 -13.494 -37.304  1.00  0.00     0.025 A 
HETATM   12  C   UNL     1      -0.711 -14.034 -38.063  1.00  0.00     0.011 A 
HETATM   13  H   UNL     1      -1.897 -14.516 -42.059  1.00  0.00     0.169 HD
ENDROOT
BRANCH   5  14
HETATM   14  O   UNL     1      -4.633 -11.868 -40.150  1.00  0.00    -0.371 OA
HETATM   15  H   UNL     1      -4.191 -11.516 -40.941  1.00  0.00     0.212 HD
ENDBRANCH   5  14
BRANCH   5  16
HETATM   16  C   UNL     1      -5.544 -14.122 -39.738  1.00  0.00     0.025 A 
HETATM   17  C   UNL     1      -6.931 -13.752 -39.530  1.00  0.00     0.003 A 
HETATM   18  C   UNL     1      -7.623 -14.906 -39.158  1.00  0.00     0.043 A 
HETATM   19  C   UNL     1      -7.681 -12.555 -39.615  1.00  0.00     0.014 A 
HETATM   20  C   UNL     1      -9.000 -14.932 -38.896  1.00  0.00     0.030 A 
HETATM   21  N   UNL     1      -6.711 -15.927 -39.094  1.00  0.00    -0.359 N 
HETATM   22  C   UNL     1      -9.708 -13.736 -39.009  1.00  0.00     0.002 A 
HETATM   23  C   UNL     1      -9.058 -12.560 -39.360  1.00  0.00     0.001 A 
HETATM   24  H   UNL     1      -6.937 -16.871 -38.815  1.00  0.00     0.166 HD
HETATM   25  C   UNL     1      -5.456 -15.474 -39.396  1.00  0.00     0.016 A 
HETATM   26  C   UNL     1      -4.282 -16.386 -39.292  1.00  0.00     0.069 C 
ENDBRANCH   5  16
TORSDOF 2
ENDMDL
MODEL 10
REMARK VINA RESULT:      -7.5      2.367      4.687
REMARK  2 active torsions:
REMARK  status: ('A' for Active; 'I' for Inactive)
REMARK    1  A    between atoms: C_5  and  O_6 
REMARK    2  A    between atoms: C_5  and  C_7 
ROOT
HETATM    1  C   UNL     1     -10.992   1.394 -34.240  1.00  0.00     0.050 C 
HETATM    2  C   UNL     1     -10.128   1.838 -33.102  1.00  0.00    -0.034 A 
HETATM    3  C   UNL     1      -8.907   1.243 -32.815  1.00  0.00     0.052 A 
HETATM    4  C   UNL     1      -8.074   1.669 -31.769  1.00  0.00     0.039 A 
HETATM    5  C   UNL     1      -6.852   0.790 -31.715  1.00  0.00     0.200 A 
HETATM    6  C   UNL     1      -7.117  -0.198 -32.906  1.00  0.00     0.266 A 
HETATM    7  O   UNL     1      -6.433  -1.139 -33.285  1.00  0.00    -0.269 OA
HETATM    8  N   UNL     1      -8.332   0.168 -33.479  1.00  0.00    -0.323 N 
HETATM    9  C   UNL     1      -8.478   2.713 -30.955  1.00  0.00     0.046 A 
HETATM   10 CL   UNL     1      -7.534   3.252 -29.622  1.00  0.00    -0.084 Cl
HETATM   11  C   UNL     1      -9.693   3.349 -31.230  1.00  0.00     0.025 A 
HETATM   12  C   UNL     1     -10.505   2.921 -32.296  1.00  0.00     0.011 A 
HETATM   13  H   UNL     1      -8.730  -0.336 -34.257  1.00  0.00     0.169 HD
ENDROOT
BRANCH   5  14
HETATM   14  O   UNL     1      -6.868   0.126 -30.454  1.00  0.00    -0.371 OA
HETATM   15  H   UNL     1      -5.934  -0.043 -30.238  1.00  0.00     0.212 HD
ENDBRANCH   5  14
BRANCH   5  16
HETATM   16  C   UNL     1      -5.579   1.583 -31.969  1.00  0.00     0.025 A 
HETATM   17  C   UNL     1      -5.379   2.812 -32.713  1.00  0.00     0.003 A 
HETATM   18  C   UNL     1      -4.021   3.127 -32.650  1.00  0.00     0.043 A 
HETATM   19  C   UNL     1      -6.209   3.696 -33.443  1.00  0.00     0.014 A 
HETATM   20  C   UNL     1      -3.463   4.269 -33.242  1.00  0.00     0.030 A 
HETATM   21  N   UNL     1      -3.403   2.129 -31.944  1.00  0.00    -0.359 N 
HETATM   22  C   UNL     1      -4.317   5.127 -33.935  1.00  0.00     0.002 A 
HETATM   23  C   UNL     1      -5.672   4.844 -34.039  1.00  0.00     0.001 A 
HETATM   24  H   UNL     1      -2.407   2.088 -31.775  1.00  0.00     0.166 HD
HETATM   25  C   UNL     1      -4.305   1.174 -31.563  1.00  0.00     0.016 A 
HETATM   26  C   UNL     1      -3.846  -0.062 -30.870  1.00  0.00     0.069 C 
ENDBRANCH   5  16
TORSDOF 2
ENDMDL
