MODEL 1
REMARK VINA RESULT:      -8.1      0.000      0.000
REMARK  3 active torsions:
REMARK  status: ('A' for Active; 'I' for Inactive)
REMARK    1  A    between atoms: C_10  and  C_11 
REMARK    2  A    between atoms: C_11  and  C_12 
REMARK    3  A    between atoms: C_13  and  O_14 
ROOT
HETATM    1  C   UNL     1      -8.089   0.498 -32.371  1.00  0.00     0.196 C 
HETATM    2  O   UNL     1      -8.018   0.747 -31.169  1.00  0.00    -0.286 OA
ENDROOT
BRANCH   1   3
HETATM    3  C   UNL     1      -9.233   1.020 -33.145  1.00  0.00     0.034 A 
HETATM    4  C   UNL     1      -9.050   2.185 -33.892  1.00  0.00     0.134 A 
HETATM    5  N   UNL     1      -9.996   2.793 -34.652  1.00  0.00    -0.240 NA
HETATM    6  C   UNL     1     -11.184   2.161 -34.601  1.00  0.00     0.155 A 
HETATM    7  N   UNL     1     -12.327   2.533 -35.246  1.00  0.00    -0.260 N 
HETATM    8  C   UNL     1     -11.507   1.019 -33.885  1.00  0.00     0.038 A 
HETATM    9  N   UNL     1     -13.374   1.716 -35.014  1.00  0.00    -0.177 NA
HETATM   10  H   UNL     1     -12.448   3.333 -35.854  1.00  0.00     0.191 HD
HETATM   11  C   UNL     1     -12.878   0.792 -34.176  1.00  0.00     0.065 A 
HETATM   12  C   UNL     1     -13.743  -0.304 -33.674  1.00  0.00     0.073 C 
HETATM   13  C   UNL     1     -10.498   0.420 -33.113  1.00  0.00     0.034 A 
ENDBRANCH   1   3
BRANCH   1  14
HETATM   14  C   UNL     1      -7.025  -0.345 -32.974  1.00  0.00     0.051 A 
HETATM   15  C   UNL     1      -5.679   0.036 -32.832  1.00  0.00     0.101 A 
HETATM   16  C   UNL     1      -4.667  -0.762 -33.382  1.00  0.00     0.069 A 
HETATM   17 CL   UNL     1      -2.999  -0.348 -33.211  1.00  0.00    -0.081 Cl
HETATM   18  C   UNL     1      -4.990  -1.918 -34.093  1.00  0.00     0.050 A 
HETATM   19  C   UNL     1      -6.326  -2.268 -34.263  1.00  0.00     0.036 A 
HETATM   20 CL   UNL     1      -6.730  -3.683 -35.154  1.00  0.00    -0.084 Cl
HETATM   21  C   UNL     1      -7.346  -1.488 -33.716  1.00  0.00     0.042 A 
BRANCH  15  22
HETATM   22  O   UNL     1      -5.324   1.178 -32.159  1.00  0.00    -0.358 OA
HETATM   23  H   UNL     1      -5.962   1.890 -32.386  1.00  0.00     0.218 HD
ENDBRANCH  15  22
ENDBRANCH   1  14
TORSDOF 3
ENDMDL
MODEL 2
REMARK VINA RESULT:      -7.7      4.066      6.263
REMARK  3 active torsions:
REMARK  status: ('A' for Active; 'I' for Inactive)
REMARK    1  A    between atoms: C_10  and  C_11 
REMARK    2  A    between atoms: C_11  and  C_12 
REMARK    3  A    between atoms: C_13  and  O_14 
ROOT
HETATM    1  C   UNL     1      -8.297   0.977 -32.312  1.00  0.00     0.196 C 
HETATM    2  O   UNL     1      -8.179   1.525 -31.218  1.00  0.00    -0.286 OA
ENDROOT
BRANCH   1   3
HETATM    3  C   UNL     1      -7.184   0.153 -32.825  1.00  0.00     0.034 A 
HETATM    4  C   UNL     1      -5.885   0.650 -32.713  1.00  0.00     0.134 A 
HETATM    5  N   UNL     1      -4.758   0.020 -33.134  1.00  0.00    -0.240 NA
HETATM    6  C   UNL     1      -5.018  -1.165 -33.718  1.00  0.00     0.155 A 
HETATM    7  N   UNL     1      -4.100  -2.024 -34.248  1.00  0.00    -0.260 N 
HETATM    8  C   UNL     1      -6.253  -1.762 -33.914  1.00  0.00     0.038 A 
HETATM    9  N   UNL     1      -4.640  -3.143 -34.771  1.00  0.00    -0.177 NA
HETATM   10  H   UNL     1      -3.096  -1.896 -34.280  1.00  0.00     0.191 HD
HETATM   11  C   UNL     1      -5.958  -2.984 -34.575  1.00  0.00     0.065 A 
HETATM   12  C   UNL     1      -6.913  -4.025 -35.028  1.00  0.00     0.073 C 
HETATM   13  C   UNL     1      -7.393  -1.078 -33.460  1.00  0.00     0.034 A 
ENDBRANCH   1   3
BRANCH   1  14
HETATM   14  C   UNL     1      -9.551   1.201 -33.075  1.00  0.00     0.051 A 
HETATM   15  C   UNL     1      -9.679   2.351 -33.873  1.00  0.00     0.101 A 
HETATM   16  C   UNL     1     -10.851   2.561 -34.611  1.00  0.00     0.069 A 
HETATM   17 CL   UNL     1     -11.043   3.947 -35.624  1.00  0.00    -0.081 Cl
HETATM   18  C   UNL     1     -11.903   1.649 -34.536  1.00  0.00     0.050 A 
HETATM   19  C   UNL     1     -11.786   0.531 -33.715  1.00  0.00     0.036 A 
HETATM   20 CL   UNL     1     -13.088  -0.587 -33.606  1.00  0.00    -0.084 Cl
HETATM   21  C   UNL     1     -10.622   0.304 -32.978  1.00  0.00     0.042 A 
BRANCH  15  22
HETATM   22  O   UNL     1      -8.675   3.283 -33.954  1.00  0.00    -0.358 OA
HETATM   23  H   UNL     1      -8.701   3.846 -33.149  1.00  0.00     0.218 HD
ENDBRANCH  15  22
ENDBRANCH   1  14
TORSDOF 3
ENDMDL
MODEL 3
REMARK VINA RESULT:      -7.7      5.176      7.521
REMARK  3 active torsions:
REMARK  status: ('A' for Active; 'I' for Inactive)
REMARK    1  A    between atoms: C_10  and  C_11 
REMARK    2  A    between atoms: C_11  and  C_12 
REMARK    3  A    between atoms: C_13  and  O_14 
ROOT
HETATM    1  C   UNL     1      -4.338   2.653 -31.596  1.00  0.00     0.196 C 
HETATM    2  O   UNL     1      -4.690   2.804 -30.428  1.00  0.00    -0.286 OA
ENDROOT
BRANCH   1   3
HETATM    3  C   UNL     1      -3.776   3.805 -32.329  1.00  0.00     0.034 A 
HETATM    4  C   UNL     1      -4.416   4.223 -33.496  1.00  0.00     0.134 A 
HETATM    5  N   UNL     1      -4.027   5.258 -34.285  1.00  0.00    -0.240 NA
HETATM    6  C   UNL     1      -2.907   5.855 -33.836  1.00  0.00     0.155 A 
HETATM    7  N   UNL     1      -2.266   6.913 -34.413  1.00  0.00    -0.260 N 
HETATM    8  C   UNL     1      -2.162   5.527 -32.713  1.00  0.00     0.038 A 
HETATM    9  N   UNL     1      -1.162   7.308 -33.749  1.00  0.00    -0.177 NA
HETATM   10  H   UNL     1      -2.539   7.400 -35.257  1.00  0.00     0.191 HD
HETATM   11  C   UNL     1      -1.091   6.459 -32.712  1.00  0.00     0.065 A 
HETATM   12  C   UNL     1       0.016   6.569 -31.729  1.00  0.00     0.073 C 
HETATM   13  C   UNL     1      -2.601   4.452 -31.924  1.00  0.00     0.034 A 
ENDBRANCH   1   3
BRANCH   1  14
HETATM   14  C   UNL     1      -4.525   1.316 -32.216  1.00  0.00     0.051 A 
HETATM   15  C   UNL     1      -3.680   0.257 -31.841  1.00  0.00     0.101 A 
HETATM   16  C   UNL     1      -3.860  -1.012 -32.405  1.00  0.00     0.069 A 
HETATM   17 CL   UNL     1      -2.863  -2.349 -31.956  1.00  0.00    -0.081 Cl
HETATM   18  C   UNL     1      -4.855  -1.223 -33.359  1.00  0.00     0.050 A 
HETATM   19  C   UNL     1      -5.664  -0.161 -33.755  1.00  0.00     0.036 A 
HETATM   20 CL   UNL     1      -6.881  -0.413 -34.944  1.00  0.00    -0.084 Cl
HETATM   21  C   UNL     1      -5.502   1.108 -33.197  1.00  0.00     0.042 A 
BRANCH  15  22
HETATM   22  O   UNL     1      -2.675   0.432 -30.922  1.00  0.00    -0.358 OA
HETATM   23  H   UNL     1      -2.708   1.356 -30.589  1.00  0.00     0.218 HD
ENDBRANCH  15  22
ENDBRANCH   1  14
TORSDOF 3
ENDMDL
MODEL 4
REMARK VINA RESULT:      -7.6      4.855      6.616
REMARK  3 active torsions:
REMARK  status: ('A' for Active; 'I' for Inactive)
REMARK    1  A    between atoms: C_10  and  C_11 
REMARK    2  A    between atoms: C_11  and  C_12 
REMARK    3  A    between atoms: C_13  and  O_14 
ROOT
HETATM    1  C   UNL     1      -4.181   0.539 -31.493  1.00  0.00     0.196 C 
HETATM    2  O   UNL     1      -3.811  -0.007 -30.455  1.00  0.00    -0.286 OA
ENDROOT
BRANCH   1   3
HETATM    3  C   UNL     1      -4.085   2.009 -31.602  1.00  0.00     0.034 A 
HETATM    4  C   UNL     1      -4.812   2.788 -30.702  1.00  0.00     0.134 A 
HETATM    5  N   UNL     1      -4.836   4.146 -30.669  1.00  0.00    -0.240 NA
HETATM    6  C   UNL     1      -4.083   4.697 -31.640  1.00  0.00     0.155 A 
HETATM    7  N   UNL     1      -3.913   6.031 -31.872  1.00  0.00    -0.260 N 
HETATM    8  C   UNL     1      -3.336   4.045 -32.608  1.00  0.00     0.038 A 
HETATM    9  N   UNL     1      -3.103   6.302 -32.916  1.00  0.00    -0.177 NA
HETATM   10  H   UNL     1      -4.324   6.796 -31.352  1.00  0.00     0.191 HD
HETATM   11  C   UNL     1      -2.754   5.090 -33.373  1.00  0.00     0.065 A 
HETATM   12  C   UNL     1      -1.852   4.964 -34.545  1.00  0.00     0.073 C 
HETATM   13  C   UNL     1      -3.337   2.640 -32.604  1.00  0.00     0.034 A 
ENDBRANCH   1   3
BRANCH   1  14
HETATM   14  C   UNL     1      -4.731  -0.314 -32.576  1.00  0.00     0.051 A 
HETATM   15  C   UNL     1      -4.149  -1.568 -32.831  1.00  0.00     0.101 A 
HETATM   16  C   UNL     1      -4.673  -2.389 -33.838  1.00  0.00     0.069 A 
HETATM   17 CL   UNL     1      -4.006  -3.947 -34.170  1.00  0.00    -0.081 Cl
HETATM   18  C   UNL     1      -5.753  -1.957 -34.607  1.00  0.00     0.050 A 
HETATM   19  C   UNL     1      -6.301  -0.699 -34.375  1.00  0.00     0.036 A 
HETATM   20 CL   UNL     1      -7.622  -0.155 -35.334  1.00  0.00    -0.084 Cl
HETATM   21  C   UNL     1      -5.795   0.129 -33.372  1.00  0.00     0.042 A 
BRANCH  15  22
HETATM   22  O   UNL     1      -3.071  -2.018 -32.110  1.00  0.00    -0.358 OA
HETATM   23  H   UNL     1      -2.480  -2.527 -32.709  1.00  0.00     0.218 HD
ENDBRANCH  15  22
ENDBRANCH   1  14
TORSDOF 3
ENDMDL
MODEL 5
REMARK VINA RESULT:      -7.5      5.154      6.892
REMARK  3 active torsions:
REMARK  status: ('A' for Active; 'I' for Inactive)
REMARK    1  A    between atoms: C_10  and  C_11 
REMARK    2  A    between atoms: C_11  and  C_12 
REMARK    3  A    between atoms: C_13  and  O_14 
ROOT
HETATM    1  C   UNL     1      -4.500   0.098 -32.559  1.00  0.00     0.196 C 
HETATM    2  O   UNL     1      -3.557   0.857 -32.772  1.00  0.00    -0.286 OA
ENDROOT
BRANCH   1   3
HETATM    3  C   UNL     1      -4.328  -1.347 -32.812  1.00  0.00     0.034 A 
HETATM    4  C   UNL     1      -3.334  -2.028 -32.108  1.00  0.00     0.134 A 
HETATM    5  N   UNL     1      -3.047  -3.350 -32.226  1.00  0.00    -0.240 NA
HETATM    6  C   UNL     1      -3.821  -3.967 -33.138  1.00  0.00     0.155 A 
HETATM    7  N   UNL     1      -3.767  -5.285 -33.487  1.00  0.00    -0.260 N 
HETATM    8  C   UNL     1      -4.822  -3.409 -33.919  1.00  0.00     0.038 A 
HETATM    9  N   UNL     1      -4.663  -5.634 -34.433  1.00  0.00    -0.177 NA
HETATM   10  H   UNL     1      -3.141  -5.987 -33.113  1.00  0.00     0.191 HD
HETATM   11  C   UNL     1      -5.304  -4.488 -34.704  1.00  0.00     0.065 A 
HETATM   12  C   UNL     1      -6.385  -4.458 -35.721  1.00  0.00     0.073 C 
HETATM   13  C   UNL     1      -5.088  -2.038 -33.764  1.00  0.00     0.034 A 
ENDBRANCH   1   3
BRANCH   1  14
HETATM   14  C   UNL     1      -5.778   0.686 -32.082  1.00  0.00     0.051 A 
HETATM   15  C   UNL     1      -5.748   1.759 -31.174  1.00  0.00     0.101 A 
HETATM   16  C   UNL     1      -6.947   2.332 -30.733  1.00  0.00     0.069 A 
HETATM   17 CL   UNL     1      -6.960   3.667 -29.637  1.00  0.00    -0.081 Cl
HETATM   18  C   UNL     1      -8.172   1.826 -31.169  1.00  0.00     0.050 A 
HETATM   19  C   UNL     1      -8.195   0.739 -32.038  1.00  0.00     0.036 A 
HETATM   20 CL   UNL     1      -9.703   0.101 -32.565  1.00  0.00    -0.084 Cl
HETATM   21  C   UNL     1      -7.009   0.160 -32.492  1.00  0.00     0.042 A 
BRANCH  15  22
HETATM   22  O   UNL     1      -4.563   2.269 -30.705  1.00  0.00    -0.358 OA
HETATM   23  H   UNL     1      -4.442   3.174 -31.069  1.00  0.00     0.218 HD
ENDBRANCH  15  22
ENDBRANCH   1  14
TORSDOF 3
ENDMDL
MODEL 6
REMARK VINA RESULT:      -7.3      4.364      6.482
REMARK  3 active torsions:
REMARK  status: ('A' for Active; 'I' for Inactive)
REMARK    1  A    between atoms: C_10  and  C_11 
REMARK    2  A    between atoms: C_11  and  C_12 
REMARK    3  A    between atoms: C_13  and  O_14 
ROOT
HETATM    1  C   UNL     1      -9.246   0.514 -32.912  1.00  0.00     0.196 C 
HETATM    2  O   UNL     1     -10.175  -0.244 -32.642  1.00  0.00    -0.286 OA
ENDROOT
BRANCH   1   3
HETATM    3  C   UNL     1      -7.911  -0.055 -33.183  1.00  0.00     0.034 A 
HETATM    4  C   UNL     1      -6.788   0.706 -32.858  1.00  0.00     0.134 A 
HETATM    5  N   UNL     1      -5.496   0.330 -33.044  1.00  0.00    -0.240 NA
HETATM    6  C   UNL     1      -5.391  -0.884 -33.619  1.00  0.00     0.155 A 
HETATM    7  N   UNL     1      -4.232  -1.528 -33.942  1.00  0.00    -0.260 N 
HETATM    8  C   UNL     1      -6.417  -1.728 -34.013  1.00  0.00     0.038 A 
HETATM    9  N   UNL     1      -4.421  -2.735 -34.511  1.00  0.00    -0.177 NA
HETATM   10  H   UNL     1      -3.289  -1.190 -33.797  1.00  0.00     0.191 HD
HETATM   11  C   UNL     1      -5.756  -2.859 -34.562  1.00  0.00     0.065 A 
HETATM   12  C   UNL     1      -6.373  -4.079 -35.140  1.00  0.00     0.073 C 
HETATM   13  C   UNL     1      -7.738  -1.302 -33.799  1.00  0.00     0.034 A 
ENDBRANCH   1   3
BRANCH   1  14
HETATM   14  C   UNL     1      -9.516   1.975 -32.923  1.00  0.00     0.051 A 
HETATM   15  C   UNL     1      -9.597   2.672 -31.705  1.00  0.00     0.101 A 
HETATM   16  C   UNL     1      -9.832   4.053 -31.706  1.00  0.00     0.069 A 
HETATM   17 CL   UNL     1      -9.914   4.955 -30.236  1.00  0.00    -0.081 Cl
HETATM   18  C   UNL     1     -10.015   4.735 -32.909  1.00  0.00     0.050 A 
HETATM   19  C   UNL     1      -9.972   4.033 -34.110  1.00  0.00     0.036 A 
HETATM   20 CL   UNL     1     -10.214   4.867 -35.595  1.00  0.00    -0.084 Cl
HETATM   21  C   UNL     1      -9.732   2.658 -34.127  1.00  0.00     0.042 A 
BRANCH  15  22
HETATM   22  O   UNL     1      -9.445   2.031 -30.501  1.00  0.00    -0.358 OA
HETATM   23  H   UNL     1     -10.326   1.948 -30.074  1.00  0.00     0.218 HD
ENDBRANCH  15  22
ENDBRANCH   1  14
TORSDOF 3
ENDMDL
MODEL 7
REMARK VINA RESULT:      -7.3      4.617      7.022
REMARK  3 active torsions:
REMARK  status: ('A' for Active; 'I' for Inactive)
REMARK    1  A    between atoms: C_10  and  C_11 
REMARK    2  A    between atoms: C_11  and  C_12 
REMARK    3  A    between atoms: C_13  and  O_14 
ROOT
HETATM    1  C   UNL     1      -6.036   2.808 -32.018  1.00  0.00     0.196 C 
HETATM    2  O   UNL     1      -6.356   3.163 -30.885  1.00  0.00    -0.286 OA
ENDROOT
BRANCH   1   3
HETATM    3  C   UNL     1      -5.113   3.655 -32.800  1.00  0.00     0.034 A 
HETATM    4  C   UNL     1      -5.535   4.119 -34.046  1.00  0.00     0.134 A 
HETATM    5  N   UNL     1      -4.810   4.901 -34.886  1.00  0.00    -0.240 NA
HETATM    6  C   UNL     1      -3.585   5.180 -34.402  1.00  0.00     0.155 A 
HETATM    7  N   UNL     1      -2.624   5.931 -35.014  1.00  0.00    -0.260 N 
HETATM    8  C   UNL     1      -3.033   4.766 -33.199  1.00  0.00     0.038 A 
HETATM    9  N   UNL     1      -1.486   6.046 -34.300  1.00  0.00    -0.177 NA
HETATM   10  H   UNL     1      -2.692   6.385 -35.916  1.00  0.00     0.191 HD
HETATM   11  C   UNL     1      -1.730   5.329 -33.193  1.00  0.00     0.065 A 
HETATM   12  C   UNL     1      -0.693   5.207 -32.137  1.00  0.00     0.073 C 
HETATM   13  C   UNL     1      -3.819   3.960 -32.359  1.00  0.00     0.034 A 
ENDBRANCH   1   3
BRANCH   1  14
HETATM   14  C   UNL     1      -6.623   1.552 -32.550  1.00  0.00     0.051 A 
HETATM   15  C   UNL     1      -8.009   1.340 -32.449  1.00  0.00     0.101 A 
HETATM   16  C   UNL     1      -8.575   0.167 -32.965  1.00  0.00     0.069 A 
HETATM   17 CL   UNL     1     -10.275  -0.125 -32.886  1.00  0.00    -0.081 Cl
HETATM   18  C   UNL     1      -7.766  -0.805 -33.553  1.00  0.00     0.050 A 
HETATM   19  C   UNL     1      -6.390  -0.607 -33.616  1.00  0.00     0.036 A 
HETATM   20 CL   UNL     1      -5.386  -1.811 -34.324  1.00  0.00    -0.084 Cl
HETATM   21  C   UNL     1      -5.811   0.559 -33.112  1.00  0.00     0.042 A 
BRANCH  15  22
HETATM   22  O   UNL     1      -8.834   2.263 -31.857  1.00  0.00    -0.358 OA
HETATM   23  H   UNL     1      -9.353   1.817 -31.151  1.00  0.00     0.218 HD
ENDBRANCH  15  22
ENDBRANCH   1  14
TORSDOF 3
ENDMDL
MODEL 8
REMARK VINA RESULT:      -7.3      5.452      8.025
REMARK  3 active torsions:
REMARK  status: ('A' for Active; 'I' for Inactive)
REMARK    1  A    between atoms: C_10  and  C_11 
REMARK    2  A    between atoms: C_11  and  C_12 
REMARK    3  A    between atoms: C_13  and  O_14 
ROOT
HETATM    1  C   UNL     1      -3.736   2.361 -31.808  1.00  0.00     0.196 C 
HETATM    2  O   UNL     1      -2.905   1.730 -31.158  1.00  0.00    -0.286 OA
ENDROOT
BRANCH   1   3
HETATM    3  C   UNL     1      -3.329   3.623 -32.458  1.00  0.00     0.034 A 
HETATM    4  C   UNL     1      -4.016   4.031 -33.601  1.00  0.00     0.134 A 
HETATM    5  N   UNL     1      -3.765   5.159 -34.315  1.00  0.00    -0.240 NA
HETATM    6  C   UNL     1      -2.734   5.867 -33.815  1.00  0.00     0.155 A 
HETATM    7  N   UNL     1      -2.238   7.036 -34.314  1.00  0.00    -0.260 N 
HETATM    8  C   UNL     1      -1.955   5.565 -32.709  1.00  0.00     0.038 A 
HETATM    9  N   UNL     1      -1.196   7.528 -33.613  1.00  0.00    -0.177 NA
HETATM   10  H   UNL     1      -2.570   7.539 -35.127  1.00  0.00     0.191 HD
HETATM   11  C   UNL     1      -1.016   6.627 -32.634  1.00  0.00     0.065 A 
HETATM   12  C   UNL     1       0.065   6.815 -31.634  1.00  0.00     0.073 C 
HETATM   13  C   UNL     1      -2.251   4.390 -31.998  1.00  0.00     0.034 A 
ENDBRANCH   1   3
BRANCH   1  14
HETATM   14  C   UNL     1      -5.120   1.828 -31.881  1.00  0.00     0.051 A 
HETATM   15  C   UNL     1      -5.370   0.654 -32.613  1.00  0.00     0.101 A 
HETATM   16  C   UNL     1      -6.669   0.132 -32.673  1.00  0.00     0.069 A 
HETATM   17 CL   UNL     1      -7.019  -1.321 -33.539  1.00  0.00    -0.081 Cl
HETATM   18  C   UNL     1      -7.721   0.788 -32.032  1.00  0.00     0.050 A 
HETATM   19  C   UNL     1      -7.473   1.970 -31.341  1.00  0.00     0.036 A 
HETATM   20 CL   UNL     1      -8.770   2.791 -30.564  1.00  0.00    -0.084 Cl
HETATM   21  C   UNL     1      -6.184   2.500 -31.267  1.00  0.00     0.042 A 
BRANCH  15  22
HETATM   22  O   UNL     1      -4.366  -0.006 -33.276  1.00  0.00    -0.358 OA
HETATM   23  H   UNL     1      -4.133  -0.817 -32.771  1.00  0.00     0.218 HD
ENDBRANCH  15  22
ENDBRANCH   1  14
TORSDOF 3
ENDMDL
MODEL 9
REMARK VINA RESULT:      -7.2      5.349      7.136
REMARK  3 active torsions:
REMARK  status: ('A' for Active; 'I' for Inactive)
REMARK    1  A    between atoms: C_10  and  C_11 
REMARK    2  A    between atoms: C_11  and  C_12 
REMARK    3  A    between atoms: C_13  and  O_14 
ROOT
HETATM    1  C   UNL     1      -3.824  -0.053 -31.904  1.00  0.00     0.196 C 
HETATM    2  O   UNL     1      -2.849   0.355 -31.276  1.00  0.00    -0.286 OA
ENDROOT
BRANCH   1   3
HETATM    3  C   UNL     1      -3.848  -1.459 -32.355  1.00  0.00     0.034 A 
HETATM    4  C   UNL     1      -2.949  -2.355 -31.777  1.00  0.00     0.134 A 
HETATM    5  N   UNL     1      -2.841  -3.675 -32.080  1.00  0.00    -0.240 NA
HETATM    6  C   UNL     1      -3.698  -4.053 -33.047  1.00  0.00     0.155 A 
HETATM    7  N   UNL     1      -3.823  -5.306 -33.574  1.00  0.00    -0.260 N 
HETATM    8  C   UNL     1      -4.621  -3.265 -33.719  1.00  0.00     0.038 A 
HETATM    9  N   UNL     1      -4.764  -5.400 -34.534  1.00  0.00    -0.177 NA
HETATM   10  H   UNL     1      -3.294  -6.128 -33.315  1.00  0.00     0.191 HD
HETATM   11  C   UNL     1      -5.250  -4.153 -34.631  1.00  0.00     0.065 A 
HETATM   12  C   UNL     1      -6.325  -3.842 -35.606  1.00  0.00     0.073 C 
HETATM   13  C   UNL     1      -4.701  -1.907 -33.372  1.00  0.00     0.034 A 
ENDBRANCH   1   3
BRANCH   1  14
HETATM   14  C   UNL     1      -4.918   0.906 -32.199  1.00  0.00     0.051 A 
HETATM   15  C   UNL     1      -6.188   0.702 -31.631  1.00  0.00     0.101 A 
HETATM   16  C   UNL     1      -7.222   1.611 -31.888  1.00  0.00     0.069 A 
HETATM   17 CL   UNL     1      -8.790   1.414 -31.191  1.00  0.00    -0.081 Cl
HETATM   18  C   UNL     1      -7.006   2.704 -32.728  1.00  0.00     0.050 A 
HETATM   19  C   UNL     1      -5.758   2.880 -33.317  1.00  0.00     0.036 A 
HETATM   20 CL   UNL     1      -5.492   4.216 -34.368  1.00  0.00    -0.084 Cl
HETATM   21  C   UNL     1      -4.715   1.986 -33.067  1.00  0.00     0.042 A 
BRANCH  15  22
HETATM   22  O   UNL     1      -6.445  -0.374 -30.818  1.00  0.00    -0.358 OA
HETATM   23  H   UNL     1      -6.151  -1.193 -31.275  1.00  0.00     0.218 HD
ENDBRANCH  15  22
ENDBRANCH   1  14
TORSDOF 3
ENDMDL
MODEL 10
REMARK VINA RESULT:      -7.1      4.063      6.987
REMARK  3 active torsions:
REMARK  status: ('A' for Active; 'I' for Inactive)
REMARK    1  A    between atoms: C_10  and  C_11 
REMARK    2  A    between atoms: C_11  and  C_12 
REMARK    3  A    between atoms: C_13  and  O_14 
ROOT
HETATM    1  C   UNL     1     -10.341  -0.128 -32.869  1.00  0.00     0.196 C 
HETATM    2  O   UNL     1     -10.685  -1.274 -32.586  1.00  0.00    -0.286 OA
ENDROOT
BRANCH   1   3
HETATM    3  C   UNL     1      -9.008   0.345 -32.444  1.00  0.00     0.034 A 
HETATM    4  C   UNL     1      -8.939   1.412 -31.548  1.00  0.00     0.134 A 
HETATM    5  N   UNL     1      -7.797   1.966 -31.064  1.00  0.00    -0.240 NA
HETATM    6  C   UNL     1      -6.690   1.386 -31.565  1.00  0.00     0.155 A 
HETATM    7  N   UNL     1      -5.400   1.724 -31.280  1.00  0.00    -0.260 N 
HETATM    8  C   UNL     1      -6.617   0.342 -32.475  1.00  0.00     0.038 A 
HETATM    9  N   UNL     1      -4.485   0.975 -31.928  1.00  0.00    -0.177 NA
HETATM   10  H   UNL     1      -5.088   2.455 -30.653  1.00  0.00     0.191 HD
HETATM   11  C   UNL     1      -5.225   0.133 -32.665  1.00  0.00     0.065 A 
HETATM   12  C   UNL     1      -4.569  -0.870 -33.541  1.00  0.00     0.073 C 
HETATM   13  C   UNL     1      -7.822  -0.203 -32.948  1.00  0.00     0.034 A 
ENDBRANCH   1   3
BRANCH   1  14
HETATM   14  C   UNL     1     -11.304   0.731 -33.604  1.00  0.00     0.051 A 
HETATM   15  C   UNL     1     -12.661   0.364 -33.651  1.00  0.00     0.101 A 
HETATM   16  C   UNL     1     -13.580   1.177 -34.326  1.00  0.00     0.069 A 
HETATM   17 CL   UNL     1     -15.260   0.780 -34.388  1.00  0.00    -0.081 Cl
HETATM   18  C   UNL     1     -13.152   2.335 -34.976  1.00  0.00     0.050 A 
HETATM   19  C   UNL     1     -11.802   2.673 -34.958  1.00  0.00     0.036 A 
HETATM   20 CL   UNL     1     -11.267   4.090 -35.772  1.00  0.00    -0.084 Cl
HETATM   21  C   UNL     1     -10.874   1.877 -34.284  1.00  0.00     0.042 A 
BRANCH  15  22
HETATM   22  O   UNL     1     -13.116  -0.779 -33.043  1.00  0.00    -0.358 OA
HETATM   23  H   UNL     1     -13.189  -1.489 -33.719  1.00  0.00     0.218 HD
ENDBRANCH  15  22
ENDBRANCH   1  14
TORSDOF 3
ENDMDL
