MODEL 1
REMARK VINA RESULT:      -9.6      0.000      0.000
REMARK  5 active torsions:
REMARK  status: ('A' for Active; 'I' for Inactive)
REMARK    1  A    between atoms: C_5  and  C_6 
REMARK    2  A    between atoms: C_10  and  C_11 
REMARK       I    between atoms: C_11  and  N_12 
REMARK    3  A    between atoms: N_12  and  C_13 
REMARK    4  A    between atoms: C_15  and  O_16 
REMARK    5  A    between atoms: C_19  and  O_20 
ROOT
HETATM    1  C   UNL     1      -6.481   0.639 -33.599  1.00  0.00     0.068 A 
HETATM    2  N   UNL     1      -7.715   1.030 -34.000  1.00  0.00    -0.248 NA
HETATM    3  C   UNL     1      -8.081   2.318 -33.896  1.00  0.00     0.068 A 
HETATM    4  C   UNL     1      -7.249   3.317 -33.354  1.00  0.00     0.008 A 
HETATM    5  C   UNL     1      -6.009   2.868 -32.843  1.00  0.00     0.047 A 
HETATM    6  C   UNL     1      -5.625   1.530 -32.976  1.00  0.00     0.050 A 
HETATM    7  C   UNL     1      -9.333   2.671 -34.379  1.00  0.00     0.032 A 
HETATM    8  C   UNL     1      -9.782   3.993 -34.380  1.00  0.00     0.002 A 
HETATM    9  C   UNL     1      -8.954   4.997 -33.903  1.00  0.00     0.001 A 
HETATM   10  C   UNL     1      -7.695   4.666 -33.402  1.00  0.00     0.015 A 
ENDROOT
BRANCH   5  11
HETATM   11  C   UNL     1      -4.993   3.750 -32.207  1.00  0.00     0.257 C 
HETATM   12  N   UNL     1      -4.086   4.351 -33.061  1.00  0.00    -0.323 N 
HETATM   13  H   UNL     1      -4.156   4.132 -34.045  1.00  0.00     0.169 HD
HETATM   14  O   UNL     1      -5.057   3.888 -30.989  1.00  0.00    -0.267 OA
BRANCH  12  15
HETATM   15  C   UNL     1      -3.012   5.194 -32.686  1.00  0.00     0.040 A 
HETATM   16  C   UNL     1      -3.082   6.591 -32.722  1.00  0.00     0.066 A 
HETATM   17  C   UNL     1      -1.989   7.370 -32.336  1.00  0.00     0.073 A 
HETATM   18  C   UNL     1      -0.827   6.742 -31.889  1.00  0.00     0.073 A 
HETATM   19  C   UNL     1      -0.746   5.351 -31.828  1.00  0.00     0.073 A 
HETATM   20  C   UNL     1      -1.827   4.578 -32.257  1.00  0.00     0.066 A 
BRANCH  17  21
HETATM   21  O   UNL     1      -1.936   8.738 -32.347  1.00  0.00    -0.356 OA
HETATM   22  C   UNL     1      -2.322   9.407 -31.152  1.00  0.00     0.210 C 
ENDBRANCH  17  21
BRANCH  19  23
HETATM   23  O   UNL     1       0.439   4.863 -31.351  1.00  0.00    -0.356 OA
HETATM   24  C   UNL     1       0.655   4.997 -29.952  1.00  0.00     0.210 C 
ENDBRANCH  19  23
ENDBRANCH  12  15
ENDBRANCH   5  11
BRANCH   1  25
HETATM   25  C   UNL     1      -6.104  -0.755 -33.926  1.00  0.00    -0.007 A 
HETATM   26  C   UNL     1      -7.033  -1.676 -34.448  1.00  0.00     0.014 A 
HETATM   27  C   UNL     1      -6.685  -3.009 -34.700  1.00  0.00     0.007 A 
HETATM   28  C   UNL     1      -5.396  -3.468 -34.427  1.00  0.00    -0.062 A 
HETATM   29  C   UNL     1      -5.018  -4.898 -34.675  1.00  0.00     0.048 C 
HETATM   30  C   UNL     1      -4.454  -2.568 -33.923  1.00  0.00     0.007 A 
HETATM   31  C   UNL     1      -4.806  -1.234 -33.675  1.00  0.00     0.014 A 
ENDBRANCH   1  25
TORSDOF 5
ENDMDL
MODEL 2
REMARK VINA RESULT:      -9.5      0.154      2.068
REMARK  5 active torsions:
REMARK  status: ('A' for Active; 'I' for Inactive)
REMARK    1  A    between atoms: C_5  and  C_6 
REMARK    2  A    between atoms: C_10  and  C_11 
REMARK       I    between atoms: C_11  and  N_12 
REMARK    3  A    between atoms: N_12  and  C_13 
REMARK    4  A    between atoms: C_15  and  O_16 
REMARK    5  A    between atoms: C_19  and  O_20 
ROOT
HETATM    1  C   UNL     1      -6.461   0.622 -33.578  1.00  0.00     0.068 A 
HETATM    2  N   UNL     1      -7.679   1.060 -33.981  1.00  0.00    -0.248 NA
HETATM    3  C   UNL     1      -8.004   2.356 -33.854  1.00  0.00     0.068 A 
HETATM    4  C   UNL     1      -7.146   3.318 -33.286  1.00  0.00     0.008 A 
HETATM    5  C   UNL     1      -5.925   2.821 -32.774  1.00  0.00     0.047 A 
HETATM    6  C   UNL     1      -5.583   1.474 -32.931  1.00  0.00     0.050 A 
HETATM    7  C   UNL     1      -9.241   2.759 -34.341  1.00  0.00     0.032 A 
HETATM    8  C   UNL     1      -9.648   4.094 -34.319  1.00  0.00     0.002 A 
HETATM    9  C   UNL     1      -8.793   5.061 -33.816  1.00  0.00     0.001 A 
HETATM   10  C   UNL     1      -7.549   4.681 -33.312  1.00  0.00     0.015 A 
ENDROOT
BRANCH   5  11
HETATM   11  C   UNL     1      -4.888   3.658 -32.113  1.00  0.00     0.257 C 
HETATM   12  N   UNL     1      -3.956   4.247 -32.948  1.00  0.00    -0.323 N 
HETATM   13  H   UNL     1      -4.025   4.050 -33.937  1.00  0.00     0.169 HD
HETATM   14  O   UNL     1      -4.957   3.773 -30.893  1.00  0.00    -0.267 OA
BRANCH  12  15
HETATM   15  C   UNL     1      -2.859   5.049 -32.547  1.00  0.00     0.040 A 
HETATM   16  C   UNL     1      -1.656   4.520 -32.065  1.00  0.00     0.066 A 
HETATM   17  C   UNL     1      -0.608   5.362 -31.689  1.00  0.00     0.073 A 
HETATM   18  C   UNL     1      -0.760   6.742 -31.820  1.00  0.00     0.073 A 
HETATM   19  C   UNL     1      -1.944   7.285 -32.317  1.00  0.00     0.073 A 
HETATM   20  C   UNL     1      -3.005   6.439 -32.650  1.00  0.00     0.066 A 
BRANCH  17  21
HETATM   21  O   UNL     1       0.602   4.962 -31.189  1.00  0.00    -0.356 OA
HETATM   22  C   UNL     1       0.730   4.919 -29.772  1.00  0.00     0.210 C 
ENDBRANCH  17  21
BRANCH  19  23
HETATM   23  O   UNL     1      -1.956   8.650 -32.417  1.00  0.00    -0.356 OA
HETATM   24  C   UNL     1      -2.346   9.360 -31.248  1.00  0.00     0.210 C 
ENDBRANCH  19  23
ENDBRANCH  12  15
ENDBRANCH   5  11
BRANCH   1  25
HETATM   25  C   UNL     1      -6.126  -0.776 -33.929  1.00  0.00    -0.007 A 
HETATM   26  C   UNL     1      -7.101  -1.687 -34.378  1.00  0.00     0.014 A 
HETATM   27  C   UNL     1      -6.788  -3.024 -34.652  1.00  0.00     0.007 A 
HETATM   28  C   UNL     1      -5.487  -3.498 -34.475  1.00  0.00    -0.062 A 
HETATM   29  C   UNL     1      -5.145  -4.932 -34.748  1.00  0.00     0.048 C 
HETATM   30  C   UNL     1      -4.500  -2.608 -34.045  1.00  0.00     0.007 A 
HETATM   31  C   UNL     1      -4.818  -1.270 -33.775  1.00  0.00     0.014 A 
ENDBRANCH   1  25
TORSDOF 5
ENDMDL
MODEL 3
REMARK VINA RESULT:      -9.0      3.475      8.921
REMARK  5 active torsions:
REMARK  status: ('A' for Active; 'I' for Inactive)
REMARK    1  A    between atoms: C_5  and  C_6 
REMARK    2  A    between atoms: C_10  and  C_11 
REMARK       I    between atoms: C_11  and  N_12 
REMARK    3  A    between atoms: N_12  and  C_13 
REMARK    4  A    between atoms: C_15  and  O_16 
REMARK    5  A    between atoms: C_19  and  O_20 
ROOT
HETATM    1  C   UNL     1      -5.089   1.793 -32.710  1.00  0.00     0.068 A 
HETATM    2  N   UNL     1      -4.487   0.659 -33.146  1.00  0.00    -0.248 NA
HETATM    3  C   UNL     1      -5.227  -0.405 -33.498  1.00  0.00     0.068 A 
HETATM    4  C   UNL     1      -6.633  -0.430 -33.415  1.00  0.00     0.008 A 
HETATM    5  C   UNL     1      -7.233   0.722 -32.857  1.00  0.00     0.047 A 
HETATM    6  C   UNL     1      -6.458   1.835 -32.514  1.00  0.00     0.050 A 
HETATM    7  C   UNL     1      -4.560  -1.516 -33.995  1.00  0.00     0.032 A 
HETATM    8  C   UNL     1      -5.239  -2.646 -34.452  1.00  0.00     0.002 A 
HETATM    9  C   UNL     1      -6.625  -2.666 -34.431  1.00  0.00     0.001 A 
HETATM   10  C   UNL     1      -7.319  -1.566 -33.927  1.00  0.00     0.015 A 
ENDROOT
BRANCH   5  11
HETATM   11  C   UNL     1      -8.698   0.894 -32.656  1.00  0.00     0.257 C 
HETATM   12  N   UNL     1      -9.357   1.667 -33.595  1.00  0.00    -0.323 N 
HETATM   13  H   UNL     1      -8.801   2.081 -34.331  1.00  0.00     0.169 HD
HETATM   14  O   UNL     1      -9.201   0.322 -31.694  1.00  0.00    -0.267 OA
BRANCH  12  15
HETATM   15  C   UNL     1     -10.733   2.001 -33.591  1.00  0.00     0.040 A 
HETATM   16  C   UNL     1     -11.695   1.308 -34.334  1.00  0.00     0.066 A 
HETATM   17  C   UNL     1     -13.038   1.683 -34.286  1.00  0.00     0.073 A 
HETATM   18  C   UNL     1     -13.421   2.747 -33.469  1.00  0.00     0.073 A 
HETATM   19  C   UNL     1     -12.479   3.437 -32.707  1.00  0.00     0.073 A 
HETATM   20  C   UNL     1     -11.130   3.084 -32.794  1.00  0.00     0.066 A 
BRANCH  17  21
HETATM   21  O   UNL     1     -14.061   1.094 -34.980  1.00  0.00    -0.356 OA
HETATM   22  C   UNL     1     -15.232   0.762 -34.243  1.00  0.00     0.210 C 
ENDBRANCH  17  21
BRANCH  19  23
HETATM   23  O   UNL     1     -12.989   4.443 -31.933  1.00  0.00    -0.356 OA
HETATM   24  C   UNL     1     -13.396   4.079 -30.620  1.00  0.00     0.210 C 
ENDBRANCH  19  23
ENDBRANCH  12  15
ENDBRANCH   5  11
BRANCH   1  25
HETATM   25  C   UNL     1      -4.206   2.967 -32.527  1.00  0.00    -0.007 A 
HETATM   26  C   UNL     1      -4.347   4.134 -33.301  1.00  0.00     0.014 A 
HETATM   27  C   UNL     1      -3.471   5.218 -33.163  1.00  0.00     0.007 A 
HETATM   28  C   UNL     1      -2.416   5.164 -32.251  1.00  0.00    -0.062 A 
HETATM   29  C   UNL     1      -1.461   6.312 -32.108  1.00  0.00     0.048 C 
HETATM   30  C   UNL     1      -2.267   4.022 -31.462  1.00  0.00     0.007 A 
HETATM   31  C   UNL     1      -3.147   2.941 -31.601  1.00  0.00     0.014 A 
ENDBRANCH   1  25
TORSDOF 5
ENDMDL
MODEL 4
REMARK VINA RESULT:      -9.0      3.559      8.872
REMARK  5 active torsions:
REMARK  status: ('A' for Active; 'I' for Inactive)
REMARK    1  A    between atoms: C_5  and  C_6 
REMARK    2  A    between atoms: C_10  and  C_11 
REMARK       I    between atoms: C_11  and  N_12 
REMARK    3  A    between atoms: N_12  and  C_13 
REMARK    4  A    between atoms: C_15  and  O_16 
REMARK    5  A    between atoms: C_19  and  O_20 
ROOT
HETATM    1  C   UNL     1      -5.170   1.839 -32.317  1.00  0.00     0.068 A 
HETATM    2  N   UNL     1      -4.529   0.745 -32.797  1.00  0.00    -0.248 NA
HETATM    3  C   UNL     1      -5.234  -0.298 -33.263  1.00  0.00     0.068 A 
HETATM    4  C   UNL     1      -6.642  -0.343 -33.263  1.00  0.00     0.008 A 
HETATM    5  C   UNL     1      -7.288   0.762 -32.660  1.00  0.00     0.047 A 
HETATM    6  C   UNL     1      -6.548   1.854 -32.197  1.00  0.00     0.050 A 
HETATM    7  C   UNL     1      -4.525  -1.364 -33.799  1.00  0.00     0.032 A 
HETATM    8  C   UNL     1      -5.163  -2.466 -34.372  1.00  0.00     0.002 A 
HETATM    9  C   UNL     1      -6.547  -2.501 -34.431  1.00  0.00     0.001 A 
HETATM   10  C   UNL     1      -7.283  -1.446 -33.891  1.00  0.00     0.015 A 
ENDROOT
BRANCH   5  11
HETATM   11  C   UNL     1      -8.763   0.905 -32.530  1.00  0.00     0.257 C 
HETATM   12  N   UNL     1      -9.348   1.908 -33.282  1.00  0.00    -0.323 N 
HETATM   13  H   UNL     1      -8.737   2.488 -33.842  1.00  0.00     0.169 HD
HETATM   14  O   UNL     1      -9.338   0.113 -31.790  1.00  0.00    -0.267 OA
BRANCH  12  15
HETATM   15  C   UNL     1     -10.720   2.258 -33.293  1.00  0.00     0.040 A 
HETATM   16  C   UNL     1     -11.248   3.322 -32.554  1.00  0.00     0.066 A 
HETATM   17  C   UNL     1     -12.610   3.621 -32.608  1.00  0.00     0.073 A 
HETATM   18  C   UNL     1     -13.444   2.860 -33.428  1.00  0.00     0.073 A 
HETATM   19  C   UNL     1     -12.931   1.809 -34.187  1.00  0.00     0.073 A 
HETATM   20  C   UNL     1     -11.575   1.488 -34.094  1.00  0.00     0.066 A 
BRANCH  17  21
HETATM   21  O   UNL     1     -13.240   4.621 -31.918  1.00  0.00    -0.356 OA
HETATM   22  C   UNL     1     -13.531   4.373 -30.547  1.00  0.00     0.210 C 
ENDBRANCH  17  21
BRANCH  19  23
HETATM   23  O   UNL     1     -13.850   1.158 -34.966  1.00  0.00    -0.356 OA
HETATM   24  C   UNL     1     -15.043   0.742 -34.313  1.00  0.00     0.210 C 
ENDBRANCH  19  23
ENDBRANCH  12  15
ENDBRANCH   5  11
BRANCH   1  25
HETATM   25  C   UNL     1      -4.314   3.006 -32.002  1.00  0.00    -0.007 A 
HETATM   26  C   UNL     1      -4.744   4.037 -31.146  1.00  0.00     0.014 A 
HETATM   27  C   UNL     1      -3.954   5.166 -30.899  1.00  0.00     0.007 A 
HETATM   28  C   UNL     1      -2.707   5.306 -31.511  1.00  0.00    -0.062 A 
HETATM   29  C   UNL     1      -1.860   6.519 -31.268  1.00  0.00     0.048 C 
HETATM   30  C   UNL     1      -2.254   4.287 -32.353  1.00  0.00     0.007 A 
HETATM   31  C   UNL     1      -3.047   3.158 -32.595  1.00  0.00     0.014 A 
ENDBRANCH   1  25
TORSDOF 5
ENDMDL
MODEL 5
REMARK VINA RESULT:      -8.8      2.215      4.849
REMARK  5 active torsions:
REMARK  status: ('A' for Active; 'I' for Inactive)
REMARK    1  A    between atoms: C_5  and  C_6 
REMARK    2  A    between atoms: C_10  and  C_11 
REMARK       I    between atoms: C_11  and  N_12 
REMARK    3  A    between atoms: N_12  and  C_13 
REMARK    4  A    between atoms: C_15  and  O_16 
REMARK    5  A    between atoms: C_19  and  O_20 
ROOT
HETATM    1  C   UNL     1      -8.398   0.540 -33.484  1.00  0.00     0.068 A 
HETATM    2  N   UNL     1      -7.900  -0.594 -34.034  1.00  0.00    -0.248 NA
HETATM    3  C   UNL     1      -6.627  -0.953 -33.803  1.00  0.00     0.068 A 
HETATM    4  C   UNL     1      -5.738  -0.189 -33.022  1.00  0.00     0.008 A 
HETATM    5  C   UNL     1      -6.245   1.043 -32.548  1.00  0.00     0.047 A 
HETATM    6  C   UNL     1      -7.579   1.399 -32.773  1.00  0.00     0.050 A 
HETATM    7  C   UNL     1      -6.190  -2.156 -34.341  1.00  0.00     0.032 A 
HETATM    8  C   UNL     1      -4.907  -2.652 -34.104  1.00  0.00     0.002 A 
HETATM    9  C   UNL     1      -4.038  -1.941 -33.292  1.00  0.00     0.001 A 
HETATM   10  C   UNL     1      -4.450  -0.725 -32.747  1.00  0.00     0.015 A 
ENDROOT
BRANCH   5  11
HETATM   11  C   UNL     1      -5.468   2.012 -31.728  1.00  0.00     0.257 C 
HETATM   12  N   UNL     1      -4.822   3.019 -32.422  1.00  0.00    -0.323 N 
HETATM   13  H   UNL     1      -4.897   3.012 -33.431  1.00  0.00     0.169 HD
HETATM   14  O   UNL     1      -5.483   1.853 -30.512  1.00  0.00    -0.267 OA
BRANCH  12  15
HETATM   15  C   UNL     1      -3.996   4.026 -31.866  1.00  0.00     0.040 A 
HETATM   16  C   UNL     1      -4.496   5.128 -31.164  1.00  0.00     0.066 A 
HETATM   17  C   UNL     1      -3.630   6.088 -30.635  1.00  0.00     0.073 A 
HETATM   18  C   UNL     1      -2.254   5.926 -30.792  1.00  0.00     0.073 A 
HETATM   19  C   UNL     1      -1.738   4.823 -31.471  1.00  0.00     0.073 A 
HETATM   20  C   UNL     1      -2.611   3.891 -32.036  1.00  0.00     0.066 A 
BRANCH  17  21
HETATM   21  O   UNL     1      -4.003   7.212 -29.950  1.00  0.00    -0.356 OA
HETATM   22  C   UNL     1      -4.573   7.021 -28.660  1.00  0.00     0.210 C 
ENDBRANCH  17  21
BRANCH  19  23
HETATM   23  O   UNL     1      -0.372   4.772 -31.535  1.00  0.00    -0.356 OA
HETATM   24  C   UNL     1       0.326   5.182 -30.365  1.00  0.00     0.210 C 
ENDBRANCH  19  23
ENDBRANCH  12  15
ENDBRANCH   5  11
BRANCH   1  25
HETATM   25  C   UNL     1      -9.855   0.751 -33.640  1.00  0.00    -0.007 A 
HETATM   26  C   UNL     1     -10.800  -0.168 -33.145  1.00  0.00     0.014 A 
HETATM   27  C   UNL     1     -12.174   0.008 -33.348  1.00  0.00     0.007 A 
HETATM   28  C   UNL     1     -12.649   1.107 -34.066  1.00  0.00    -0.062 A 
HETATM   29  C   UNL     1     -14.117   1.296 -34.305  1.00  0.00     0.048 C 
HETATM   30  C   UNL     1     -11.730   2.039 -34.554  1.00  0.00     0.007 A 
HETATM   31  C   UNL     1     -10.356   1.860 -34.345  1.00  0.00     0.014 A 
ENDBRANCH   1  25
TORSDOF 5
ENDMDL
MODEL 6
REMARK VINA RESULT:      -8.7      3.448      7.673
REMARK  5 active torsions:
REMARK  status: ('A' for Active; 'I' for Inactive)
REMARK    1  A    between atoms: C_5  and  C_6 
REMARK    2  A    between atoms: C_10  and  C_11 
REMARK       I    between atoms: C_11  and  N_12 
REMARK    3  A    between atoms: N_12  and  C_13 
REMARK    4  A    between atoms: C_15  and  O_16 
REMARK    5  A    between atoms: C_19  and  O_20 
ROOT
HETATM    1  C   UNL     1      -5.307   0.237 -32.906  1.00  0.00     0.068 A 
HETATM    2  N   UNL     1      -4.361   1.162 -32.615  1.00  0.00    -0.248 NA
HETATM    3  C   UNL     1      -4.720   2.411 -32.280  1.00  0.00     0.068 A 
HETATM    4  C   UNL     1      -6.059   2.846 -32.236  1.00  0.00     0.008 A 
HETATM    5  C   UNL     1      -7.023   1.896 -32.648  1.00  0.00     0.047 A 
HETATM    6  C   UNL     1      -6.643   0.590 -32.974  1.00  0.00     0.050 A 
HETATM    7  C   UNL     1      -3.711   3.299 -31.931  1.00  0.00     0.032 A 
HETATM    8  C   UNL     1      -3.982   4.599 -31.503  1.00  0.00     0.002 A 
HETATM    9  C   UNL     1      -5.297   5.025 -31.399  1.00  0.00     0.001 A 
HETATM   10  C   UNL     1      -6.329   4.156 -31.753  1.00  0.00     0.015 A 
ENDROOT
BRANCH   5  11
HETATM   11  C   UNL     1      -8.488   2.154 -32.702  1.00  0.00     0.257 C 
HETATM   12  N   UNL     1      -9.101   1.942 -33.924  1.00  0.00    -0.323 N 
HETATM   13  H   UNL     1      -8.514   1.656 -34.697  1.00  0.00     0.169 HD
HETATM   14  O   UNL     1      -9.031   2.510 -31.662  1.00  0.00    -0.267 OA
BRANCH  12  15
HETATM   15  C   UNL     1     -10.467   2.158 -34.227  1.00  0.00     0.040 A 
HETATM   16  C   UNL     1     -10.944   3.321 -34.840  1.00  0.00     0.066 A 
HETATM   17  C   UNL     1     -12.304   3.475 -35.117  1.00  0.00     0.073 A 
HETATM   18  C   UNL     1     -13.186   2.443 -34.795  1.00  0.00     0.073 A 
HETATM   19  C   UNL     1     -12.726   1.269 -34.202  1.00  0.00     0.073 A 
HETATM   20  C   UNL     1     -11.371   1.140 -33.888  1.00  0.00     0.066 A 
BRANCH  17  21
HETATM   21  O   UNL     1     -12.887   4.570 -35.694  1.00  0.00    -0.356 OA
HETATM   22  C   UNL     1     -12.624   5.832 -35.091  1.00  0.00     0.210 C 
ENDBRANCH  17  21
BRANCH  19  23
HETATM   23  O   UNL     1     -13.689   0.328 -33.959  1.00  0.00    -0.356 OA
HETATM   24  C   UNL     1     -15.020   0.690 -34.306  1.00  0.00     0.210 C 
ENDBRANCH  19  23
ENDBRANCH  12  15
ENDBRANCH   5  11
BRANCH   1  25
HETATM   25  C   UNL     1      -4.825  -1.152 -33.079  1.00  0.00    -0.007 A 
HETATM   26  C   UNL     1      -3.852  -1.715 -32.231  1.00  0.00     0.014 A 
HETATM   27  C   UNL     1      -3.357  -3.009 -32.435  1.00  0.00     0.007 A 
HETATM   28  C   UNL     1      -3.814  -3.780 -33.505  1.00  0.00    -0.062 A 
HETATM   29  C   UNL     1      -3.278  -5.160 -33.744  1.00  0.00     0.048 C 
HETATM   30  C   UNL     1      -4.790  -3.248 -34.350  1.00  0.00     0.007 A 
HETATM   31  C   UNL     1      -5.284  -1.954 -34.139  1.00  0.00     0.014 A 
ENDBRANCH   1  25
TORSDOF 5
ENDMDL
MODEL 7
REMARK VINA RESULT:      -8.6      3.522      7.839
REMARK  5 active torsions:
REMARK  status: ('A' for Active; 'I' for Inactive)
REMARK    1  A    between atoms: C_5  and  C_6 
REMARK    2  A    between atoms: C_10  and  C_11 
REMARK       I    between atoms: C_11  and  N_12 
REMARK    3  A    between atoms: N_12  and  C_13 
REMARK    4  A    between atoms: C_15  and  O_16 
REMARK    5  A    between atoms: C_19  and  O_20 
ROOT
HETATM    1  C   UNL     1      -5.299   0.318 -32.857  1.00  0.00     0.068 A 
HETATM    2  N   UNL     1      -4.396   1.266 -32.503  1.00  0.00    -0.248 NA
HETATM    3  C   UNL     1      -4.813   2.478 -32.105  1.00  0.00     0.068 A 
HETATM    4  C   UNL     1      -6.170   2.853 -32.057  1.00  0.00     0.008 A 
HETATM    5  C   UNL     1      -7.087   1.887 -32.533  1.00  0.00     0.047 A 
HETATM    6  C   UNL     1      -6.648   0.618 -32.923  1.00  0.00     0.050 A 
HETATM    7  C   UNL     1      -3.847   3.387 -31.695  1.00  0.00     0.032 A 
HETATM    8  C   UNL     1      -4.179   4.650 -31.201  1.00  0.00     0.002 A 
HETATM    9  C   UNL     1      -5.512   5.013 -31.093  1.00  0.00     0.001 A 
HETATM   10  C   UNL     1      -6.501   4.122 -31.507  1.00  0.00     0.015 A 
ENDROOT
BRANCH   5  11
HETATM   11  C   UNL     1      -8.561   2.086 -32.593  1.00  0.00     0.257 C 
HETATM   12  N   UNL     1      -9.168   1.796 -33.802  1.00  0.00    -0.323 N 
HETATM   13  H   UNL     1      -8.572   1.498 -34.563  1.00  0.00     0.169 HD
HETATM   14  O   UNL     1      -9.116   2.467 -31.567  1.00  0.00    -0.267 OA
BRANCH  12  15
HETATM   15  C   UNL     1     -10.542   1.944 -34.108  1.00  0.00     0.040 A 
HETATM   16  C   UNL     1     -11.515   1.004 -33.752  1.00  0.00     0.066 A 
HETATM   17  C   UNL     1     -12.857   1.208 -34.080  1.00  0.00     0.073 A 
HETATM   18  C   UNL     1     -13.226   2.374 -34.749  1.00  0.00     0.073 A 
HETATM   19  C   UNL     1     -12.273   3.331 -35.094  1.00  0.00     0.073 A 
HETATM   20  C   UNL     1     -10.927   3.100 -34.803  1.00  0.00     0.066 A 
BRANCH  17  21
HETATM   21  O   UNL     1     -13.889   0.353 -33.801  1.00  0.00    -0.356 OA
HETATM   22  C   UNL     1     -15.165   0.690 -34.333  1.00  0.00     0.210 C 
ENDBRANCH  17  21
BRANCH  19  23
HETATM   23  O   UNL     1     -12.770   4.438 -35.726  1.00  0.00    -0.356 OA
HETATM   24  C   UNL     1     -12.398   5.696 -35.174  1.00  0.00     0.210 C 
ENDBRANCH  19  23
ENDBRANCH  12  15
ENDBRANCH   5  11
BRANCH   1  25
HETATM   25  C   UNL     1      -4.756  -1.038 -33.097  1.00  0.00    -0.007 A 
HETATM   26  C   UNL     1      -5.156  -1.817 -34.199  1.00  0.00     0.014 A 
HETATM   27  C   UNL     1      -4.683  -3.121 -34.388  1.00  0.00     0.007 A 
HETATM   28  C   UNL     1      -3.799  -3.694 -33.472  1.00  0.00    -0.062 A 
HETATM   29  C   UNL     1      -3.301  -5.096 -33.655  1.00  0.00     0.048 C 
HETATM   30  C   UNL     1      -3.377  -2.933 -32.379  1.00  0.00     0.007 A 
HETATM   31  C   UNL     1      -3.852  -1.628 -32.196  1.00  0.00     0.014 A 
ENDBRANCH   1  25
TORSDOF 5
ENDMDL
MODEL 8
REMARK VINA RESULT:      -8.6      2.039      5.269
REMARK  5 active torsions:
REMARK  status: ('A' for Active; 'I' for Inactive)
REMARK    1  A    between atoms: C_5  and  C_6 
REMARK    2  A    between atoms: C_10  and  C_11 
REMARK       I    between atoms: C_11  and  N_12 
REMARK    3  A    between atoms: N_12  and  C_13 
REMARK    4  A    between atoms: C_15  and  O_16 
REMARK    5  A    between atoms: C_19  and  O_20 
ROOT
HETATM    1  C   UNL     1      -8.546   0.946 -33.294  1.00  0.00     0.068 A 
HETATM    2  N   UNL     1      -8.247  -0.186 -33.977  1.00  0.00    -0.248 NA
HETATM    3  C   UNL     1      -7.001  -0.686 -33.940  1.00  0.00     0.068 A 
HETATM    4  C   UNL     1      -5.943  -0.076 -33.239  1.00  0.00     0.008 A 
HETATM    5  C   UNL     1      -6.250   1.161 -32.624  1.00  0.00     0.047 A 
HETATM    6  C   UNL     1      -7.555   1.663 -32.647  1.00  0.00     0.050 A 
HETATM    7  C   UNL     1      -6.768  -1.881 -34.607  1.00  0.00     0.032 A 
HETATM    8  C   UNL     1      -5.527  -2.519 -34.575  1.00  0.00     0.002 A 
HETATM    9  C   UNL     1      -4.490  -1.961 -33.843  1.00  0.00     0.001 A 
HETATM   10  C   UNL     1      -4.696  -0.756 -33.172  1.00  0.00     0.015 A 
ENDROOT
BRANCH   5  11
HETATM   11  C   UNL     1      -5.276   1.983 -31.856  1.00  0.00     0.257 C 
HETATM   12  N   UNL     1      -4.859   3.156 -32.458  1.00  0.00    -0.323 N 
HETATM   13  H   UNL     1      -5.219   3.361 -33.381  1.00  0.00     0.169 HD
HETATM   14  O   UNL     1      -4.941   1.566 -30.752  1.00  0.00    -0.267 OA
BRANCH  12  15
HETATM   15  C   UNL     1      -3.913   4.075 -31.941  1.00  0.00     0.040 A 
HETATM   16  C   UNL     1      -2.530   3.890 -32.038  1.00  0.00     0.066 A 
HETATM   17  C   UNL     1      -1.646   4.834 -31.511  1.00  0.00     0.073 A 
HETATM   18  C   UNL     1      -2.156   5.981 -30.904  1.00  0.00     0.073 A 
HETATM   19  C   UNL     1      -3.531   6.191 -30.816  1.00  0.00     0.073 A 
HETATM   20  C   UNL     1      -4.410   5.222 -31.306  1.00  0.00     0.066 A 
BRANCH  17  21
HETATM   21  O   UNL     1      -0.280   4.752 -31.530  1.00  0.00    -0.356 OA
HETATM   22  C   UNL     1       0.438   5.812 -30.909  1.00  0.00     0.210 C 
ENDBRANCH  17  21
BRANCH  19  23
HETATM   23  O   UNL     1      -3.898   7.366 -30.218  1.00  0.00    -0.356 OA
HETATM   24  C   UNL     1      -4.669   8.260 -31.012  1.00  0.00     0.210 C 
ENDBRANCH  19  23
ENDBRANCH  12  15
ENDBRANCH   5  11
BRANCH   1  25
HETATM   25  C   UNL     1      -9.979   1.312 -33.241  1.00  0.00    -0.007 A 
HETATM   26  C   UNL     1     -10.997   0.388 -33.548  1.00  0.00     0.014 A 
HETATM   27  C   UNL     1     -12.348   0.757 -33.554  1.00  0.00     0.007 A 
HETATM   28  C   UNL     1     -12.725   2.069 -33.263  1.00  0.00    -0.062 A 
HETATM   29  C   UNL     1     -14.167   2.479 -33.284  1.00  0.00     0.048 C 
HETATM   30  C   UNL     1     -11.733   2.998 -32.941  1.00  0.00     0.007 A 
HETATM   31  C   UNL     1     -10.383   2.623 -32.934  1.00  0.00     0.014 A 
ENDBRANCH   1  25
TORSDOF 5
ENDMDL
MODEL 9
REMARK VINA RESULT:      -8.5      4.636      8.723
REMARK  5 active torsions:
REMARK  status: ('A' for Active; 'I' for Inactive)
REMARK    1  A    between atoms: C_5  and  C_6 
REMARK    2  A    between atoms: C_10  and  C_11 
REMARK       I    between atoms: C_11  and  N_12 
REMARK    3  A    between atoms: N_12  and  C_13 
REMARK    4  A    between atoms: C_15  and  O_16 
REMARK    5  A    between atoms: C_19  and  O_20 
ROOT
HETATM    1  C   UNL     1     -11.590   4.027 -35.076  1.00  0.00     0.068 A 
HETATM    2  N   UNL     1     -12.761   3.346 -35.102  1.00  0.00    -0.248 NA
HETATM    3  C   UNL     1     -12.824   2.095 -34.619  1.00  0.00     0.068 A 
HETATM    4  C   UNL     1     -11.710   1.411 -34.095  1.00  0.00     0.008 A 
HETATM    5  C   UNL     1     -10.477   2.099 -34.178  1.00  0.00     0.047 A 
HETATM    6  C   UNL     1     -10.423   3.411 -34.660  1.00  0.00     0.050 A 
HETATM    7  C   UNL     1     -14.063   1.469 -34.614  1.00  0.00     0.032 A 
HETATM    8  C   UNL     1     -14.249   0.196 -34.073  1.00  0.00     0.002 A 
HETATM    9  C   UNL     1     -13.175  -0.468 -33.502  1.00  0.00     0.001 A 
HETATM   10  C   UNL     1     -11.917   0.135 -33.503  1.00  0.00     0.015 A 
ENDROOT
BRANCH   5  11
HETATM   11  C   UNL     1      -9.175   1.551 -33.707  1.00  0.00     0.257 C 
HETATM   12  N   UNL     1      -8.508   0.719 -34.589  1.00  0.00    -0.323 N 
HETATM   13  H   UNL     1      -8.958   0.520 -35.473  1.00  0.00     0.169 HD
HETATM   14  O   UNL     1      -8.793   1.897 -32.594  1.00  0.00    -0.267 OA
BRANCH  12  15
HETATM   15  C   UNL     1      -7.282   0.053 -34.350  1.00  0.00     0.040 A 
HETATM   16  C   UNL     1      -6.244   0.602 -33.589  1.00  0.00     0.066 A 
HETATM   17  C   UNL     1      -5.058  -0.106 -33.385  1.00  0.00     0.073 A 
HETATM   18  C   UNL     1      -4.924  -1.383 -33.929  1.00  0.00     0.073 A 
HETATM   19  C   UNL     1      -5.956  -1.954 -34.673  1.00  0.00     0.073 A 
HETATM   20  C   UNL     1      -7.122  -1.222 -34.910  1.00  0.00     0.066 A 
BRANCH  17  21
HETATM   21  O   UNL     1      -3.972   0.335 -32.678  1.00  0.00    -0.356 OA
HETATM   22  C   UNL     1      -2.984  -0.633 -32.346  1.00  0.00     0.210 C 
ENDBRANCH  17  21
BRANCH  19  23
HETATM   23  O   UNL     1      -5.705  -3.219 -35.131  1.00  0.00    -0.356 OA
HETATM   24  C   UNL     1      -6.725  -4.183 -34.900  1.00  0.00     0.210 C 
ENDBRANCH  19  23
ENDBRANCH  12  15
ENDBRANCH   5  11
BRANCH   1  25
HETATM   25  C   UNL     1     -11.662   5.457 -35.454  1.00  0.00    -0.007 A 
HETATM   26  C   UNL     1     -10.539   6.303 -35.391  1.00  0.00     0.014 A 
HETATM   27  C   UNL     1     -10.628   7.668 -35.694  1.00  0.00     0.007 A 
HETATM   28  C   UNL     1     -11.850   8.234 -36.059  1.00  0.00    -0.062 A 
HETATM   29  C   UNL     1     -11.960   9.697 -36.367  1.00  0.00     0.048 C 
HETATM   30  C   UNL     1     -12.975   7.410 -36.142  1.00  0.00     0.007 A 
HETATM   31  C   UNL     1     -12.880   6.045 -35.841  1.00  0.00     0.014 A 
ENDBRANCH   1  25
TORSDOF 5
ENDMDL
MODEL 10
REMARK VINA RESULT:      -8.5      1.887      2.777
REMARK  5 active torsions:
REMARK  status: ('A' for Active; 'I' for Inactive)
REMARK    1  A    between atoms: C_5  and  C_6 
REMARK    2  A    between atoms: C_10  and  C_11 
REMARK       I    between atoms: C_11  and  N_12 
REMARK    3  A    between atoms: N_12  and  C_13 
REMARK    4  A    between atoms: C_15  and  O_16 
REMARK    5  A    between atoms: C_19  and  O_20 
ROOT
HETATM    1  C   UNL     1      -7.034   0.176 -33.647  1.00  0.00     0.068 A 
HETATM    2  N   UNL     1      -8.373  -0.023 -33.574  1.00  0.00    -0.248 NA
HETATM    3  C   UNL     1      -9.211   1.026 -33.553  1.00  0.00     0.068 A 
HETATM    4  C   UNL     1      -8.775   2.365 -33.577  1.00  0.00     0.008 A 
HETATM    5  C   UNL     1      -7.373   2.551 -33.544  1.00  0.00     0.047 A 
HETATM    6  C   UNL     1      -6.507   1.454 -33.588  1.00  0.00     0.050 A 
HETATM    7  C   UNL     1     -10.573   0.760 -33.541  1.00  0.00     0.032 A 
HETATM    8  C   UNL     1     -11.528   1.777 -33.587  1.00  0.00     0.002 A 
HETATM    9  C   UNL     1     -11.116   3.098 -33.668  1.00  0.00     0.001 A 
HETATM   10  C   UNL     1      -9.753   3.392 -33.672  1.00  0.00     0.015 A 
ENDROOT
BRANCH   5  11
HETATM   11  C   UNL     1      -6.701   3.879 -33.537  1.00  0.00     0.257 C 
HETATM   12  N   UNL     1      -5.591   3.998 -32.720  1.00  0.00    -0.323 N 
HETATM   13  H   UNL     1      -5.330   3.192 -32.168  1.00  0.00     0.169 HD
HETATM   14  O   UNL     1      -7.171   4.746 -34.266  1.00  0.00    -0.267 OA
BRANCH  12  15
HETATM   15  C   UNL     1      -4.818   5.167 -32.519  1.00  0.00     0.040 A 
HETATM   16  C   UNL     1      -3.653   5.451 -33.241  1.00  0.00     0.066 A 
HETATM   17  C   UNL     1      -2.934   6.623 -33.000  1.00  0.00     0.073 A 
HETATM   18  C   UNL     1      -3.401   7.526 -32.045  1.00  0.00     0.073 A 
HETATM   19  C   UNL     1      -4.570   7.269 -31.331  1.00  0.00     0.073 A 
HETATM   20  C   UNL     1      -5.260   6.074 -31.546  1.00  0.00     0.066 A 
BRANCH  17  21
HETATM   21  O   UNL     1      -1.776   6.997 -33.627  1.00  0.00    -0.356 OA
HETATM   22  C   UNL     1      -1.135   6.016 -34.434  1.00  0.00     0.210 C 
ENDBRANCH  17  21
BRANCH  19  23
HETATM   23  O   UNL     1      -4.930   8.245 -30.442  1.00  0.00    -0.356 OA
HETATM   24  C   UNL     1      -4.376   9.535 -30.668  1.00  0.00     0.210 C 
ENDBRANCH  19  23
ENDBRANCH  12  15
ENDBRANCH   5  11
BRANCH   1  25
HETATM   25  C   UNL     1      -6.208  -1.035 -33.853  1.00  0.00    -0.007 A 
HETATM   26  C   UNL     1      -6.676  -2.140 -34.589  1.00  0.00     0.014 A 
HETATM   27  C   UNL     1      -5.912  -3.306 -34.730  1.00  0.00     0.007 A 
HETATM   28  C   UNL     1      -4.657  -3.408 -34.128  1.00  0.00    -0.062 A 
HETATM   29  C   UNL     1      -3.839  -4.658 -34.258  1.00  0.00     0.048 C 
HETATM   30  C   UNL     1      -4.167  -2.317 -33.406  1.00  0.00     0.007 A 
HETATM   31  C   UNL     1      -4.934  -1.152 -33.270  1.00  0.00     0.014 A 
ENDBRANCH   1  25
TORSDOF 5
ENDMDL
