MODEL 1
REMARK VINA RESULT:      -9.3      0.000      0.000
REMARK  6 active torsions:
REMARK  status: ('A' for Active; 'I' for Inactive)
REMARK    1  A    between atoms: C_2  and  C_3 
REMARK    2  A    between atoms: C_7  and  C_8 
REMARK       I    between atoms: C_8  and  N_9 
REMARK    3  A    between atoms: N_9  and  C_10 
REMARK    4  A    between atoms: C_13  and  C_14 
REMARK       I    between atoms: C_14  and  N_15 
REMARK    5  A    between atoms: N_15  and  C_16 
REMARK    6  A    between atoms: C_16  and  C_17 
ROOT
HETATM    1  C   UNL     1      -3.406   3.633 -31.521  1.00  0.00     0.035 A 
HETATM    2  C   UNL     1      -3.326   2.236 -31.425  1.00  0.00     0.030 A 
HETATM    3  C   UNL     1      -4.192   1.416 -32.158  1.00  0.00     0.019 A 
HETATM    4  C   UNL     1      -5.163   1.992 -32.981  1.00  0.00     0.032 A 
HETATM    5  C   UNL     1      -5.282   3.382 -33.041  1.00  0.00     0.019 A 
HETATM    6  C   UNL     1      -4.402   4.197 -32.322  1.00  0.00     0.030 A 
ENDROOT
BRANCH   1   7
HETATM    7  N   UNL     1      -2.473   4.394 -30.786  1.00  0.00    -0.322 N 
HETATM    8  C   UNL     1      -1.351   5.033 -31.278  1.00  0.00     0.274 C 
HETATM    9  O   UNL     1      -0.955   4.978 -32.438  1.00  0.00    -0.266 OA
HETATM   10  H   UNL     1      -2.582   4.387 -29.782  1.00  0.00     0.169 HD
BRANCH   8  11
HETATM   11  C   UNL     1      -0.595   5.764 -30.289  1.00  0.00     0.120 A 
HETATM   12  N   UNL     1       0.082   5.109 -29.296  1.00  0.00    -0.273 N 
HETATM   13  N   UNL     1       0.727   5.919 -28.444  1.00  0.00    -0.179 NA
HETATM   14  H   UNL     1       0.126   4.103 -29.150  1.00  0.00     0.189 HD
HETATM   15  C   UNL     1       0.505   7.144 -28.931  1.00  0.00     0.056 A 
HETATM   16  C   UNL     1      -0.328   7.103 -30.077  1.00  0.00     0.065 A 
BRANCH  15  17
HETATM   17  C   UNL     1       1.109   8.337 -28.273  1.00  0.00     0.056 C 
HETATM   18  C   UNL     1       1.608   8.035 -26.867  1.00  0.00     0.011 C 
ENDBRANCH  15  17
ENDBRANCH   8  11
ENDBRANCH   1   7
BRANCH   4  19
HETATM   19  C   UNL     1      -6.080   1.178 -33.818  1.00  0.00     0.251 C 
HETATM   20  N   UNL     1      -6.074  -0.175 -33.570  1.00  0.00    -0.353 N 
HETATM   21  H   UNL     1      -5.474  -0.566 -32.858  1.00  0.00     0.163 HD
HETATM   22  O   UNL     1      -6.737   1.709 -34.704  1.00  0.00    -0.268 OA
BRANCH  20  23
HETATM   23  C   UNL     1      -6.801  -1.094 -34.418  1.00  0.00     0.161 C 
BRANCH  23  24
HETATM   24  C   UNL     1      -6.125  -2.442 -34.490  1.00  0.00    -0.041 A 
HETATM   25  C   UNL     1      -4.790  -2.586 -34.087  1.00  0.00     0.009 A 
HETATM   26  C   UNL     1      -4.171  -3.838 -34.115  1.00  0.00     0.001 A 
HETATM   27  C   UNL     1      -4.879  -4.959 -34.543  1.00  0.00     0.000 A 
HETATM   28  C   UNL     1      -6.211  -4.833 -34.932  1.00  0.00     0.001 A 
HETATM   29  C   UNL     1      -6.833  -3.585 -34.896  1.00  0.00     0.009 A 
ENDBRANCH  23  24
ENDBRANCH  20  23
ENDBRANCH   4  19
TORSDOF 6
ENDMDL
MODEL 2
REMARK VINA RESULT:      -8.0      5.530     12.857
REMARK  6 active torsions:
REMARK  status: ('A' for Active; 'I' for Inactive)
REMARK    1  A    between atoms: C_2  and  C_3 
REMARK    2  A    between atoms: C_7  and  C_8 
REMARK       I    between atoms: C_8  and  N_9 
REMARK    3  A    between atoms: N_9  and  C_10 
REMARK    4  A    between atoms: C_13  and  C_14 
REMARK       I    between atoms: C_14  and  N_15 
REMARK    5  A    between atoms: N_15  and  C_16 
REMARK    6  A    between atoms: C_16  and  C_17 
ROOT
HETATM    1  C   UNL     1       0.344   7.271 -28.271  1.00  0.00     0.035 A 
HETATM    2  C   UNL     1       1.214   8.354 -28.463  1.00  0.00     0.030 A 
HETATM    3  C   UNL     1       1.884   8.937 -27.381  1.00  0.00     0.019 A 
HETATM    4  C   UNL     1       1.670   8.449 -26.089  1.00  0.00     0.032 A 
HETATM    5  C   UNL     1       0.766   7.405 -25.884  1.00  0.00     0.019 A 
HETATM    6  C   UNL     1       0.114   6.813 -26.970  1.00  0.00     0.030 A 
ENDROOT
BRANCH   1   7
HETATM    7  N   UNL     1      -0.263   6.708 -29.413  1.00  0.00    -0.322 N 
HETATM    8  C   UNL     1       0.011   5.477 -29.978  1.00  0.00     0.274 C 
HETATM    9  O   UNL     1       0.884   4.703 -29.601  1.00  0.00    -0.266 OA
HETATM   10  H   UNL     1      -0.889   7.310 -29.929  1.00  0.00     0.169 HD
BRANCH   8  11
HETATM   11  C   UNL     1      -0.792   5.155 -31.133  1.00  0.00     0.120 A 
HETATM   12  N   UNL     1      -1.952   4.437 -31.006  1.00  0.00    -0.273 N 
HETATM   13  N   UNL     1      -2.583   4.203 -32.166  1.00  0.00    -0.179 NA
HETATM   14  H   UNL     1      -2.351   4.075 -30.144  1.00  0.00     0.189 HD
HETATM   15  C   UNL     1      -1.834   4.836 -33.075  1.00  0.00     0.056 A 
HETATM   16  C   UNL     1      -0.695   5.435 -32.483  1.00  0.00     0.065 A 
BRANCH  15  17
HETATM   17  C   UNL     1      -2.241   4.847 -34.509  1.00  0.00     0.056 C 
HETATM   18  C   UNL     1      -3.695   5.253 -34.698  1.00  0.00     0.011 C 
ENDBRANCH  15  17
ENDBRANCH   8  11
ENDBRANCH   1   7
BRANCH   4  19
HETATM   19  C   UNL     1       2.384   8.994 -24.906  1.00  0.00     0.251 C 
HETATM   20  N   UNL     1       2.770   8.071 -23.962  1.00  0.00    -0.353 N 
HETATM   21  H   UNL     1       2.568   7.089 -24.089  1.00  0.00     0.163 HD
HETATM   22  O   UNL     1       2.544  10.202 -24.788  1.00  0.00    -0.268 OA
BRANCH  20  23
HETATM   23  C   UNL     1       3.330   8.487 -22.695  1.00  0.00     0.161 C 
BRANCH  23  24
HETATM   24  C   UNL     1       4.786   8.108 -22.576  1.00  0.00    -0.041 A 
HETATM   25  C   UNL     1       5.169   6.998 -21.811  1.00  0.00     0.009 A 
HETATM   26  C   UNL     1       6.511   6.620 -21.728  1.00  0.00     0.001 A 
HETATM   27  C   UNL     1       7.485   7.345 -22.411  1.00  0.00     0.000 A 
HETATM   28  C   UNL     1       7.117   8.442 -23.188  1.00  0.00     0.001 A 
HETATM   29  C   UNL     1       5.776   8.815 -23.278  1.00  0.00     0.009 A 
ENDBRANCH  23  24
ENDBRANCH  20  23
ENDBRANCH   4  19
TORSDOF 6
ENDMDL
MODEL 3
REMARK VINA RESULT:      -7.8      2.133     10.473
REMARK  6 active torsions:
REMARK  status: ('A' for Active; 'I' for Inactive)
REMARK    1  A    between atoms: C_2  and  C_3 
REMARK    2  A    between atoms: C_7  and  C_8 
REMARK       I    between atoms: C_8  and  N_9 
REMARK    3  A    between atoms: N_9  and  C_10 
REMARK    4  A    between atoms: C_13  and  C_14 
REMARK       I    between atoms: C_14  and  N_15 
REMARK    5  A    between atoms: N_15  and  C_16 
REMARK    6  A    between atoms: C_16  and  C_17 
ROOT
HETATM    1  C   UNL     1      -4.082   2.886 -32.191  1.00  0.00     0.035 A 
HETATM    2  C   UNL     1      -2.944   3.517 -32.715  1.00  0.00     0.030 A 
HETATM    3  C   UNL     1      -2.509   4.748 -32.209  1.00  0.00     0.019 A 
HETATM    4  C   UNL     1      -3.227   5.368 -31.183  1.00  0.00     0.032 A 
HETATM    5  C   UNL     1      -4.390   4.770 -30.692  1.00  0.00     0.019 A 
HETATM    6  C   UNL     1      -4.809   3.532 -31.188  1.00  0.00     0.030 A 
ENDROOT
BRANCH   1   7
HETATM    7  N   UNL     1      -4.434   1.627 -32.723  1.00  0.00    -0.322 N 
HETATM    8  C   UNL     1      -3.973   0.392 -32.308  1.00  0.00     0.274 C 
HETATM    9  O   UNL     1      -3.122   0.207 -31.445  1.00  0.00    -0.266 OA
HETATM   10  H   UNL     1      -5.005   1.638 -33.556  1.00  0.00     0.169 HD
BRANCH   8  11
HETATM   11  C   UNL     1      -4.534  -0.728 -33.024  1.00  0.00     0.120 A 
HETATM   12  N   UNL     1      -3.840  -1.901 -33.151  1.00  0.00    -0.273 N 
HETATM   13  N   UNL     1      -4.481  -2.847 -33.853  1.00  0.00    -0.179 NA
HETATM   14  H   UNL     1      -2.913  -2.102 -32.784  1.00  0.00     0.189 HD
HETATM   15  C   UNL     1      -5.659  -2.287 -34.148  1.00  0.00     0.056 A 
HETATM   16  C   UNL     1      -5.738  -0.957 -33.664  1.00  0.00     0.065 A 
BRANCH  15  17
HETATM   17  C   UNL     1      -6.692  -3.057 -34.898  1.00  0.00     0.056 C 
HETATM   18  C   UNL     1      -6.388  -4.548 -34.942  1.00  0.00     0.011 C 
ENDBRANCH  15  17
ENDBRANCH   8  11
ENDBRANCH   1   7
BRANCH   4  19
HETATM   19  C   UNL     1      -2.793   6.651 -30.572  1.00  0.00     0.251 C 
HETATM   20  N   UNL     1      -2.803   6.693 -29.198  1.00  0.00    -0.353 N 
HETATM   21  H   UNL     1      -3.092   5.889 -28.659  1.00  0.00     0.163 HD
HETATM   22  O   UNL     1      -2.512   7.605 -31.286  1.00  0.00    -0.268 OA
BRANCH  20  23
HETATM   23  C   UNL     1      -2.556   7.928 -28.486  1.00  0.00     0.161 C 
BRANCH  23  24
HETATM   24  C   UNL     1      -1.130   8.016 -27.998  1.00  0.00    -0.041 A 
HETATM   25  C   UNL     1      -0.350   6.857 -27.881  1.00  0.00     0.009 A 
HETATM   26  C   UNL     1       0.982   6.936 -27.466  1.00  0.00     0.001 A 
HETATM   27  C   UNL     1       1.549   8.174 -27.166  1.00  0.00     0.000 A 
HETATM   28  C   UNL     1       0.789   9.334 -27.293  1.00  0.00     0.001 A 
HETATM   29  C   UNL     1      -0.538   9.258 -27.715  1.00  0.00     0.009 A 
ENDBRANCH  23  24
ENDBRANCH  20  23
ENDBRANCH   4  19
TORSDOF 6
ENDMDL
MODEL 4
REMARK VINA RESULT:      -7.6      3.841     10.720
REMARK  6 active torsions:
REMARK  status: ('A' for Active; 'I' for Inactive)
REMARK    1  A    between atoms: C_2  and  C_3 
REMARK    2  A    between atoms: C_7  and  C_8 
REMARK       I    between atoms: C_8  and  N_9 
REMARK    3  A    between atoms: N_9  and  C_10 
REMARK    4  A    between atoms: C_13  and  C_14 
REMARK       I    between atoms: C_14  and  N_15 
REMARK    5  A    between atoms: N_15  and  C_16 
REMARK    6  A    between atoms: C_16  and  C_17 
ROOT
HETATM    1  C   UNL     1      -7.427   2.625 -33.203  1.00  0.00     0.035 A 
HETATM    2  C   UNL     1      -6.829   1.851 -32.197  1.00  0.00     0.030 A 
HETATM    3  C   UNL     1      -5.499   2.071 -31.818  1.00  0.00     0.019 A 
HETATM    4  C   UNL     1      -4.748   3.058 -32.462  1.00  0.00     0.032 A 
HETATM    5  C   UNL     1      -5.321   3.797 -33.500  1.00  0.00     0.019 A 
HETATM    6  C   UNL     1      -6.656   3.587 -33.861  1.00  0.00     0.030 A 
ENDROOT
BRANCH   1   7
HETATM    7  N   UNL     1      -8.783   2.375 -33.501  1.00  0.00    -0.322 N 
HETATM    8  C   UNL     1      -9.289   1.332 -34.253  1.00  0.00     0.274 C 
HETATM    9  O   UNL     1      -8.617   0.489 -34.839  1.00  0.00    -0.266 OA
HETATM   10  H   UNL     1      -9.441   3.088 -33.221  1.00  0.00     0.169 HD
BRANCH   8  11
HETATM   11  C   UNL     1     -10.728   1.317 -34.366  1.00  0.00     0.120 A 
HETATM   12  N   UNL     1     -11.356   1.909 -35.428  1.00  0.00    -0.273 N 
HETATM   13  N   UNL     1     -12.694   1.828 -35.391  1.00  0.00    -0.179 NA
HETATM   14  H   UNL     1     -10.913   2.394 -36.204  1.00  0.00     0.189 HD
HETATM   15  C   UNL     1     -12.943   1.110 -34.290  1.00  0.00     0.056 A 
HETATM   16  C   UNL     1     -11.748   0.777 -33.606  1.00  0.00     0.065 A 
BRANCH  15  17
HETATM   17  C   UNL     1     -14.345   0.758 -33.922  1.00  0.00     0.056 C 
HETATM   18  C   UNL     1     -14.926   1.702 -32.879  1.00  0.00     0.011 C 
ENDBRANCH  15  17
ENDBRANCH   8  11
ENDBRANCH   1   7
BRANCH   4  19
HETATM   19  C   UNL     1      -3.349   3.370 -32.076  1.00  0.00     0.251 C 
HETATM   20  N   UNL     1      -2.800   4.486 -32.662  1.00  0.00    -0.353 N 
HETATM   21  H   UNL     1      -3.337   5.043 -33.312  1.00  0.00     0.163 HD
HETATM   22  O   UNL     1      -2.737   2.618 -31.328  1.00  0.00    -0.268 OA
BRANCH  20  23
HETATM   23  C   UNL     1      -1.400   4.808 -32.494  1.00  0.00     0.161 C 
BRANCH  23  24
HETATM   24  C   UNL     1      -1.188   5.820 -31.394  1.00  0.00    -0.041 A 
HETATM   25  C   UNL     1       0.110   6.183 -31.009  1.00  0.00     0.009 A 
HETATM   26  C   UNL     1       0.313   7.147 -30.018  1.00  0.00     0.001 A 
HETATM   27  C   UNL     1      -0.777   7.759 -29.403  1.00  0.00     0.000 A 
HETATM   28  C   UNL     1      -2.072   7.418 -29.787  1.00  0.00     0.001 A 
HETATM   29  C   UNL     1      -2.277   6.462 -30.783  1.00  0.00     0.009 A 
ENDBRANCH  23  24
ENDBRANCH  20  23
ENDBRANCH   4  19
TORSDOF 6
ENDMDL
MODEL 5
REMARK VINA RESULT:      -7.6      5.997      9.351
REMARK  6 active torsions:
REMARK  status: ('A' for Active; 'I' for Inactive)
REMARK    1  A    between atoms: C_2  and  C_3 
REMARK    2  A    between atoms: C_7  and  C_8 
REMARK       I    between atoms: C_8  and  N_9 
REMARK    3  A    between atoms: N_9  and  C_10 
REMARK    4  A    between atoms: C_13  and  C_14 
REMARK       I    between atoms: C_14  and  N_15 
REMARK    5  A    between atoms: N_15  and  C_16 
REMARK    6  A    between atoms: C_16  and  C_17 
ROOT
HETATM    1  C   UNL     1      -9.773   2.016 -32.334  1.00  0.00     0.035 A 
HETATM    2  C   UNL     1      -9.782   0.658 -32.685  1.00  0.00     0.030 A 
HETATM    3  C   UNL     1      -8.593  -0.081 -32.727  1.00  0.00     0.019 A 
HETATM    4  C   UNL     1      -7.378   0.544 -32.434  1.00  0.00     0.032 A 
HETATM    5  C   UNL     1      -7.356   1.908 -32.135  1.00  0.00     0.019 A 
HETATM    6  C   UNL     1      -8.548   2.637 -32.076  1.00  0.00     0.030 A 
ENDROOT
BRANCH   1   7
HETATM    7  N   UNL     1     -11.014   2.684 -32.273  1.00  0.00    -0.322 N 
HETATM    8  C   UNL     1     -11.810   3.056 -33.340  1.00  0.00     0.274 C 
HETATM    9  O   UNL     1     -11.520   2.917 -34.523  1.00  0.00    -0.266 OA
HETATM   10  H   UNL     1     -11.301   3.013 -31.362  1.00  0.00     0.169 HD
BRANCH   8  11
HETATM   11  C   UNL     1     -13.045   3.704 -32.969  1.00  0.00     0.120 A 
HETATM   12  N   UNL     1     -13.229   5.044 -33.183  1.00  0.00    -0.273 N 
HETATM   13  N   UNL     1     -14.419   5.508 -32.775  1.00  0.00    -0.179 NA
HETATM   14  H   UNL     1     -12.563   5.690 -33.597  1.00  0.00     0.189 HD
HETATM   15  C   UNL     1     -15.054   4.419 -32.326  1.00  0.00     0.056 A 
HETATM   16  C   UNL     1     -14.233   3.268 -32.413  1.00  0.00     0.065 A 
BRANCH  15  17
HETATM   17  C   UNL     1     -16.453   4.519 -31.820  1.00  0.00     0.056 C 
HETATM   18  C   UNL     1     -16.683   5.774 -30.991  1.00  0.00     0.011 C 
ENDBRANCH  15  17
ENDBRANCH   8  11
ENDBRANCH   1   7
BRANCH   4  19
HETATM   19  C   UNL     1      -6.090  -0.194 -32.416  1.00  0.00     0.251 C 
HETATM   20  N   UNL     1      -5.412  -0.245 -33.612  1.00  0.00    -0.353 N 
HETATM   21  H   UNL     1      -5.789   0.201 -34.437  1.00  0.00     0.163 HD
HETATM   22  O   UNL     1      -5.721  -0.760 -31.395  1.00  0.00    -0.268 OA
BRANCH  20  23
HETATM   23  C   UNL     1      -4.229  -1.062 -33.767  1.00  0.00     0.161 C 
BRANCH  23  24
HETATM   24  C   UNL     1      -4.577  -2.491 -34.106  1.00  0.00    -0.041 A 
HETATM   25  C   UNL     1      -3.816  -3.547 -33.585  1.00  0.00     0.009 A 
HETATM   26  C   UNL     1      -4.156  -4.873 -33.864  1.00  0.00     0.001 A 
HETATM   27  C   UNL     1      -5.262  -5.158 -34.663  1.00  0.00     0.000 A 
HETATM   28  C   UNL     1      -6.037  -4.119 -35.173  1.00  0.00     0.001 A 
HETATM   29  C   UNL     1      -5.703  -2.794 -34.889  1.00  0.00     0.009 A 
ENDBRANCH  23  24
ENDBRANCH  20  23
ENDBRANCH   4  19
TORSDOF 6
ENDMDL
MODEL 6
REMARK VINA RESULT:      -7.6      1.846     10.279
REMARK  6 active torsions:
REMARK  status: ('A' for Active; 'I' for Inactive)
REMARK    1  A    between atoms: C_2  and  C_3 
REMARK    2  A    between atoms: C_7  and  C_8 
REMARK       I    between atoms: C_8  and  N_9 
REMARK    3  A    between atoms: N_9  and  C_10 
REMARK    4  A    between atoms: C_13  and  C_14 
REMARK       I    between atoms: C_14  and  N_15 
REMARK    5  A    between atoms: N_15  and  C_16 
REMARK    6  A    between atoms: C_16  and  C_17 
ROOT
HETATM    1  C   UNL     1      -4.816   1.968 -32.163  1.00  0.00     0.035 A 
HETATM    2  C   UNL     1      -3.523   2.511 -32.175  1.00  0.00     0.030 A 
HETATM    3  C   UNL     1      -3.279   3.795 -31.673  1.00  0.00     0.019 A 
HETATM    4  C   UNL     1      -4.337   4.556 -31.171  1.00  0.00     0.032 A 
HETATM    5  C   UNL     1      -5.636   4.042 -31.203  1.00  0.00     0.019 A 
HETATM    6  C   UNL     1      -5.872   2.752 -31.688  1.00  0.00     0.030 A 
ENDROOT
BRANCH   1   7
HETATM    7  N   UNL     1      -4.979   0.653 -32.646  1.00  0.00    -0.322 N 
HETATM    8  C   UNL     1      -5.716   0.259 -33.747  1.00  0.00     0.274 C 
HETATM    9  O   UNL     1      -6.405   0.998 -34.441  1.00  0.00    -0.266 OA
HETATM   10  H   UNL     1      -4.600  -0.085 -32.071  1.00  0.00     0.169 HD
BRANCH   8  11
HETATM   11  C   UNL     1      -5.675  -1.158 -34.019  1.00  0.00     0.120 A 
HETATM   12  N   UNL     1      -6.731  -1.790 -34.621  1.00  0.00    -0.273 N 
HETATM   13  N   UNL     1      -6.555  -3.108 -34.796  1.00  0.00    -0.179 NA
HETATM   14  H   UNL     1      -7.602  -1.363 -34.923  1.00  0.00     0.189 HD
HETATM   15  C   UNL     1      -5.319  -3.333 -34.339  1.00  0.00     0.056 A 
HETATM   16  C   UNL     1      -4.730  -2.149 -33.829  1.00  0.00     0.065 A 
BRANCH  15  17
HETATM   17  C   UNL     1      -4.729  -4.700 -34.406  1.00  0.00     0.056 C 
HETATM   18  C   UNL     1      -3.508  -4.852 -33.510  1.00  0.00     0.011 C 
ENDBRANCH  15  17
ENDBRANCH   8  11
ENDBRANCH   1   7
BRANCH   4  19
HETATM   19  C   UNL     1      -4.137   5.905 -30.583  1.00  0.00     0.251 C 
HETATM   20  N   UNL     1      -2.928   6.114 -29.962  1.00  0.00    -0.353 N 
HETATM   21  H   UNL     1      -2.235   5.379 -29.922  1.00  0.00     0.163 HD
HETATM   22  O   UNL     1      -5.041   6.730 -30.616  1.00  0.00    -0.268 OA
BRANCH  20  23
HETATM   23  C   UNL     1      -2.669   7.326 -29.215  1.00  0.00     0.161 C 
BRANCH  23  24
HETATM   24  C   UNL     1      -1.345   7.266 -28.494  1.00  0.00    -0.041 A 
HETATM   25  C   UNL     1      -0.201   7.841 -29.066  1.00  0.00     0.009 A 
HETATM   26  C   UNL     1       1.019   7.823 -28.386  1.00  0.00     0.001 A 
HETATM   27  C   UNL     1       1.109   7.232 -27.127  1.00  0.00     0.000 A 
HETATM   28  C   UNL     1      -0.023   6.671 -26.541  1.00  0.00     0.001 A 
HETATM   29  C   UNL     1      -1.244   6.696 -27.215  1.00  0.00     0.009 A 
ENDBRANCH  23  24
ENDBRANCH  20  23
ENDBRANCH   4  19
TORSDOF 6
ENDMDL
MODEL 7
REMARK VINA RESULT:      -7.4      1.826     10.639
REMARK  6 active torsions:
REMARK  status: ('A' for Active; 'I' for Inactive)
REMARK    1  A    between atoms: C_2  and  C_3 
REMARK    2  A    between atoms: C_7  and  C_8 
REMARK       I    between atoms: C_8  and  N_9 
REMARK    3  A    between atoms: N_9  and  C_10 
REMARK    4  A    between atoms: C_13  and  C_14 
REMARK       I    between atoms: C_14  and  N_15 
REMARK    5  A    between atoms: N_15  and  C_16 
REMARK    6  A    between atoms: C_16  and  C_17 
ROOT
HETATM    1  C   UNL     1      -4.177   2.860 -32.279  1.00  0.00     0.035 A 
HETATM    2  C   UNL     1      -4.935   3.400 -31.229  1.00  0.00     0.030 A 
HETATM    3  C   UNL     1      -4.616   4.648 -30.682  1.00  0.00     0.019 A 
HETATM    4  C   UNL     1      -3.517   5.360 -31.172  1.00  0.00     0.032 A 
HETATM    5  C   UNL     1      -2.728   4.805 -32.181  1.00  0.00     0.019 A 
HETATM    6  C   UNL     1      -3.062   3.566 -32.737  1.00  0.00     0.030 A 
ENDROOT
BRANCH   1   7
HETATM    7  N   UNL     1      -4.584   1.617 -32.807  1.00  0.00    -0.322 N 
HETATM    8  C   UNL     1      -5.791   1.328 -33.415  1.00  0.00     0.274 C 
HETATM    9  O   UNL     1      -6.731   2.106 -33.529  1.00  0.00    -0.266 OA
HETATM   10  H   UNL     1      -3.970   0.834 -32.633  1.00  0.00     0.169 HD
BRANCH   8  11
HETATM   11  C   UNL     1      -5.915  -0.031 -33.886  1.00  0.00     0.120 A 
HETATM   12  N   UNL     1      -6.898  -0.382 -34.771  1.00  0.00    -0.273 N 
HETATM   13  N   UNL     1      -6.898  -1.680 -35.107  1.00  0.00    -0.179 NA
HETATM   14  H   UNL     1      -7.604   0.232 -35.170  1.00  0.00     0.189 HD
HETATM   15  C   UNL     1      -5.844  -2.182 -34.456  1.00  0.00     0.056 A 
HETATM   16  C   UNL     1      -5.203  -1.195 -33.667  1.00  0.00     0.065 A 
BRANCH  15  17
HETATM   17  C   UNL     1      -5.476  -3.618 -34.614  1.00  0.00     0.056 C 
HETATM   18  C   UNL     1      -6.632  -4.461 -35.135  1.00  0.00     0.011 C 
ENDBRANCH  15  17
ENDBRANCH   8  11
ENDBRANCH   1   7
BRANCH   4  19
HETATM   19  C   UNL     1      -3.154   6.708 -30.666  1.00  0.00     0.251 C 
HETATM   20  N   UNL     1      -2.913   6.795 -29.315  1.00  0.00    -0.353 N 
HETATM   21  H   UNL     1      -2.985   5.978 -28.724  1.00  0.00     0.163 HD
HETATM   22  O   UNL     1      -3.143   7.667 -31.427  1.00  0.00    -0.268 OA
BRANCH  20  23
HETATM   23  C   UNL     1      -2.706   8.075 -28.672  1.00  0.00     0.161 C 
BRANCH  23  24
HETATM   24  C   UNL     1      -1.251   8.309 -28.349  1.00  0.00    -0.041 A 
HETATM   25  C   UNL     1      -0.881   9.302 -27.431  1.00  0.00     0.009 A 
HETATM   26  C   UNL     1       0.462   9.498 -27.100  1.00  0.00     0.001 A 
HETATM   27  C   UNL     1       1.449   8.704 -27.679  1.00  0.00     0.000 A 
HETATM   28  C   UNL     1       1.094   7.703 -28.581  1.00  0.00     0.001 A 
HETATM   29  C   UNL     1      -0.247   7.500 -28.907  1.00  0.00     0.009 A 
ENDBRANCH  23  24
ENDBRANCH  20  23
ENDBRANCH   4  19
TORSDOF 6
ENDMDL
MODEL 8
REMARK VINA RESULT:      -7.2      3.980     10.542
REMARK  6 active torsions:
REMARK  status: ('A' for Active; 'I' for Inactive)
REMARK    1  A    between atoms: C_2  and  C_3 
REMARK    2  A    between atoms: C_7  and  C_8 
REMARK       I    between atoms: C_8  and  N_9 
REMARK    3  A    between atoms: N_9  and  C_10 
REMARK    4  A    between atoms: C_13  and  C_14 
REMARK       I    between atoms: C_14  and  N_15 
REMARK    5  A    between atoms: N_15  and  C_16 
REMARK    6  A    between atoms: C_16  and  C_17 
ROOT
HETATM    1  C   UNL     1      -6.832   3.610 -33.361  1.00  0.00     0.035 A 
HETATM    2  C   UNL     1      -6.560   4.961 -33.622  1.00  0.00     0.030 A 
HETATM    3  C   UNL     1      -5.253   5.458 -33.541  1.00  0.00     0.019 A 
HETATM    4  C   UNL     1      -4.208   4.605 -33.177  1.00  0.00     0.032 A 
HETATM    5  C   UNL     1      -4.480   3.271 -32.865  1.00  0.00     0.019 A 
HETATM    6  C   UNL     1      -5.783   2.775 -32.966  1.00  0.00     0.030 A 
ENDROOT
BRANCH   1   7
HETATM    7  N   UNL     1      -8.165   3.173 -33.503  1.00  0.00    -0.322 N 
HETATM    8  C   UNL     1      -9.088   2.979 -32.493  1.00  0.00     0.274 C 
HETATM    9  O   UNL     1      -8.861   3.097 -31.294  1.00  0.00    -0.266 OA
HETATM   10  H   UNL     1      -8.442   2.875 -34.428  1.00  0.00     0.169 HD
BRANCH   8  11
HETATM   11  C   UNL     1     -10.391   2.551 -32.944  1.00  0.00     0.120 A 
HETATM   12  N   UNL     1     -11.532   3.051 -32.375  1.00  0.00    -0.273 N 
HETATM   13  N   UNL     1     -12.666   2.551 -32.887  1.00  0.00    -0.179 NA
HETATM   14  H   UNL     1     -11.588   3.732 -31.622  1.00  0.00     0.189 HD
HETATM   15  C   UNL     1     -12.248   1.735 -33.861  1.00  0.00     0.056 A 
HETATM   16  C   UNL     1     -10.834   1.689 -33.929  1.00  0.00     0.065 A 
BRANCH  15  17
HETATM   17  C   UNL     1     -13.236   1.012 -34.712  1.00  0.00     0.056 C 
HETATM   18  C   UNL     1     -14.560   0.782 -33.998  1.00  0.00     0.011 C 
ENDBRANCH  15  17
ENDBRANCH   8  11
ENDBRANCH   1   7
BRANCH   4  19
HETATM   19  C   UNL     1      -2.795   5.060 -33.117  1.00  0.00     0.251 C 
HETATM   20  N   UNL     1      -2.554   6.164 -32.334  1.00  0.00    -0.353 N 
HETATM   21  H   UNL     1      -3.309   6.620 -31.840  1.00  0.00     0.163 HD
HETATM   22  O   UNL     1      -1.940   4.496 -33.788  1.00  0.00    -0.268 OA
BRANCH  20  23
HETATM   23  C   UNL     1      -1.255   6.800 -32.317  1.00  0.00     0.161 C 
BRANCH  23  24
HETATM   24  C   UNL     1      -0.498   6.490 -31.049  1.00  0.00    -0.041 A 
HETATM   25  C   UNL     1      -0.438   7.432 -30.012  1.00  0.00     0.009 A 
HETATM   26  C   UNL     1       0.229   7.135 -28.821  1.00  0.00     0.001 A 
HETATM   27  C   UNL     1       0.842   5.895 -28.653  1.00  0.00     0.000 A 
HETATM   28  C   UNL     1       0.777   4.944 -29.669  1.00  0.00     0.001 A 
HETATM   29  C   UNL     1       0.104   5.236 -30.855  1.00  0.00     0.009 A 
ENDBRANCH  23  24
ENDBRANCH  20  23
ENDBRANCH   4  19
TORSDOF 6
ENDMDL
MODEL 9
REMARK VINA RESULT:      -7.2     17.002     19.246
REMARK  6 active torsions:
REMARK  status: ('A' for Active; 'I' for Inactive)
REMARK    1  A    between atoms: C_2  and  C_3 
REMARK    2  A    between atoms: C_7  and  C_8 
REMARK       I    between atoms: C_8  and  N_9 
REMARK    3  A    between atoms: N_9  and  C_10 
REMARK    4  A    between atoms: C_13  and  C_14 
REMARK       I    between atoms: C_14  and  N_15 
REMARK    5  A    between atoms: N_15  and  C_16 
REMARK    6  A    between atoms: C_16  and  C_17 
ROOT
HETATM    1  C   UNL     1      -6.709 -14.282 -33.992  1.00  0.00     0.035 A 
HETATM    2  C   UNL     1      -5.858 -13.457 -33.242  1.00  0.00     0.030 A 
HETATM    3  C   UNL     1      -5.288 -13.912 -32.047  1.00  0.00     0.019 A 
HETATM    4  C   UNL     1      -5.584 -15.197 -31.583  1.00  0.00     0.032 A 
HETATM    5  C   UNL     1      -6.470 -16.004 -32.298  1.00  0.00     0.019 A 
HETATM    6  C   UNL     1      -7.022 -15.552 -33.501  1.00  0.00     0.030 A 
ENDROOT
BRANCH   1   7
HETATM    7  N   UNL     1      -7.212 -13.770 -35.207  1.00  0.00    -0.322 N 
HETATM    8  C   UNL     1      -6.780 -14.082 -36.482  1.00  0.00     0.274 C 
HETATM    9  O   UNL     1      -5.833 -14.813 -36.750  1.00  0.00    -0.266 OA
HETATM   10  H   UNL     1      -7.889 -13.025 -35.132  1.00  0.00     0.169 HD
BRANCH   8  11
HETATM   11  C   UNL     1      -7.506 -13.421 -37.540  1.00  0.00     0.120 A 
HETATM   12  N   UNL     1      -6.932 -12.408 -38.260  1.00  0.00    -0.273 N 
HETATM   13  N   UNL     1      -7.731 -11.881 -39.200  1.00  0.00    -0.179 NA
HETATM   14  H   UNL     1      -5.995 -12.031 -38.141  1.00  0.00     0.189 HD
HETATM   15  C   UNL     1      -8.847 -12.613 -39.122  1.00  0.00     0.056 A 
HETATM   16  C   UNL     1      -8.763 -13.580 -38.091  1.00  0.00     0.065 A 
BRANCH  15  17
HETATM   17  C   UNL     1      -9.981 -12.358 -40.057  1.00  0.00     0.056 C 
HETATM   18  C   UNL     1     -10.837 -13.596 -40.284  1.00  0.00     0.011 C 
ENDBRANCH  15  17
ENDBRANCH   8  11
ENDBRANCH   1   7
BRANCH   4  19
HETATM   19  C   UNL     1      -4.976 -15.754 -30.348  1.00  0.00     0.251 C 
HETATM   20  N   UNL     1      -3.722 -16.299 -30.491  1.00  0.00    -0.353 N 
HETATM   21  H   UNL     1      -3.263 -16.308 -31.391  1.00  0.00     0.163 HD
HETATM   22  O   UNL     1      -5.612 -15.764 -29.301  1.00  0.00    -0.268 OA
BRANCH  20  23
HETATM   23  C   UNL     1      -3.088 -17.014 -29.405  1.00  0.00     0.161 C 
BRANCH  23  24
HETATM   24  C   UNL     1      -1.808 -16.345 -28.967  1.00  0.00    -0.041 A 
HETATM   25  C   UNL     1      -1.077 -16.855 -27.885  1.00  0.00     0.009 A 
HETATM   26  C   UNL     1       0.128 -16.263 -27.499  1.00  0.00     0.001 A 
HETATM   27  C   UNL     1       0.616 -15.156 -28.191  1.00  0.00     0.000 A 
HETATM   28  C   UNL     1      -0.092 -14.648 -29.277  1.00  0.00     0.001 A 
HETATM   29  C   UNL     1      -1.291 -15.244 -29.669  1.00  0.00     0.009 A 
ENDBRANCH  23  24
ENDBRANCH  20  23
ENDBRANCH   4  19
TORSDOF 6
ENDMDL
MODEL 10
REMARK VINA RESULT:      -7.2      3.765     10.490
REMARK  6 active torsions:
REMARK  status: ('A' for Active; 'I' for Inactive)
REMARK    1  A    between atoms: C_2  and  C_3 
REMARK    2  A    between atoms: C_7  and  C_8 
REMARK       I    between atoms: C_8  and  N_9 
REMARK    3  A    between atoms: N_9  and  C_10 
REMARK    4  A    between atoms: C_13  and  C_14 
REMARK       I    between atoms: C_14  and  N_15 
REMARK    5  A    between atoms: N_15  and  C_16 
REMARK    6  A    between atoms: C_16  and  C_17 
ROOT
HETATM    1  C   UNL     1      -5.366   3.376 -33.252  1.00  0.00     0.035 A 
HETATM    2  C   UNL     1      -4.416   2.857 -32.360  1.00  0.00     0.030 A 
HETATM    3  C   UNL     1      -3.169   3.473 -32.201  1.00  0.00     0.019 A 
HETATM    4  C   UNL     1      -2.855   4.608 -32.953  1.00  0.00     0.032 A 
HETATM    5  C   UNL     1      -3.776   5.100 -33.880  1.00  0.00     0.019 A 
HETATM    6  C   UNL     1      -5.028   4.493 -34.022  1.00  0.00     0.030 A 
ENDROOT
BRANCH   1   7
HETATM    7  N   UNL     1      -6.616   2.727 -33.328  1.00  0.00    -0.322 N 
HETATM    8  C   UNL     1      -7.783   3.094 -32.685  1.00  0.00     0.274 C 
HETATM    9  O   UNL     1      -7.891   4.018 -31.885  1.00  0.00    -0.266 OA
HETATM   10  H   UNL     1      -6.634   1.847 -33.823  1.00  0.00     0.169 HD
BRANCH   8  11
HETATM   11  C   UNL     1      -8.918   2.252 -32.976  1.00  0.00     0.120 A 
HETATM   12  N   UNL     1      -8.796   0.889 -33.001  1.00  0.00    -0.273 N 
HETATM   13  N   UNL     1      -9.931   0.240 -33.300  1.00  0.00    -0.179 NA
HETATM   14  H   UNL     1      -7.950   0.351 -32.831  1.00  0.00     0.189 HD
HETATM   15  C   UNL     1     -10.838   1.215 -33.421  1.00  0.00     0.056 A 
HETATM   16  C   UNL     1     -10.253   2.493 -33.242  1.00  0.00     0.065 A 
BRANCH  15  17
HETATM   17  C   UNL     1     -12.263   0.886 -33.710  1.00  0.00     0.056 C 
HETATM   18  C   UNL     1     -12.710   1.385 -35.077  1.00  0.00     0.011 C 
ENDBRANCH  15  17
ENDBRANCH   8  11
ENDBRANCH   1   7
BRANCH   4  19
HETATM   19  C   UNL     1      -1.568   5.333 -32.797  1.00  0.00     0.251 C 
HETATM   20  N   UNL     1      -0.984   5.256 -31.555  1.00  0.00    -0.353 N 
HETATM   21  H   UNL     1      -1.423   4.731 -30.811  1.00  0.00     0.163 HD
HETATM   22  O   UNL     1      -1.123   5.998 -33.724  1.00  0.00    -0.268 OA
BRANCH  20  23
HETATM   23  C   UNL     1       0.184   6.043 -31.227  1.00  0.00     0.161 C 
BRANCH  23  24
HETATM   24  C   UNL     1      -0.109   7.056 -30.148  1.00  0.00    -0.041 A 
HETATM   25  C   UNL     1       0.821   7.291 -29.125  1.00  0.00     0.009 A 
HETATM   26  C   UNL     1       0.572   8.254 -28.146  1.00  0.00     0.001 A 
HETATM   27  C   UNL     1      -0.608   8.995 -28.177  1.00  0.00     0.000 A 
HETATM   28  C   UNL     1      -1.534   8.783 -29.196  1.00  0.00     0.001 A 
HETATM   29  C   UNL     1      -1.283   7.827 -30.180  1.00  0.00     0.009 A 
ENDBRANCH  23  24
ENDBRANCH  20  23
ENDBRANCH   4  19
TORSDOF 6
ENDMDL
