MODEL 1
REMARK VINA RESULT:      -8.6      0.000      0.000
REMARK  9 active torsions:
REMARK  status: ('A' for Active; 'I' for Inactive)
REMARK    1  A    between atoms: C_3  and  C_4 
REMARK    2  A    between atoms: C_4  and  C_5 
REMARK       I    between atoms: C_5  and  N_6 
REMARK    3  A    between atoms: N_6  and  C_7 
REMARK    4  A    between atoms: C_16  and  N_17 
REMARK       I    between atoms: N_17  and  C_18 
REMARK    5  A    between atoms: C_18  and  C_19 
REMARK    6  A    between atoms: C_19  and  S_20 
REMARK    7  A    between atoms: C_26  and  C_27 
REMARK    8  A    between atoms: C_27  and  O_28 
REMARK    9  A    between atoms: C_30  and  O_31 
ROOT
HETATM    1  C   UNL     1      -5.044   0.694 -30.385  1.00  0.00     0.016 C 
HETATM    2  C   UNL     1      -5.194   1.880 -31.401  1.00  0.00    -0.030 C 
HETATM    3  C   UNL     1      -6.402   1.433 -32.378  1.00  0.00     0.056 C 
HETATM    4  C   UNL     1      -7.724   2.012 -31.909  1.00  0.00     0.056 A 
HETATM    5  C   UNL     1      -7.888   2.760 -30.764  1.00  0.00     0.012 A 
HETATM    6  S   UNL     1      -9.523   3.183 -30.551  1.00  0.00    -0.055 SA
HETATM    7  C   UNL     1      -9.906   2.376 -31.999  1.00  0.00     0.173 A 
HETATM    8  N   UNL     1      -8.894   1.822 -32.629  1.00  0.00    -0.227 NA
HETATM    9  C   UNL     1      -6.823   3.163 -29.818  1.00  0.00     0.055 C 
HETATM   10  C   UNL     1      -5.449   3.199 -30.533  1.00  0.00     0.012 C 
HETATM   11  C   UNL     1      -5.110   4.585 -31.230  1.00  0.00     0.008 C 
HETATM   12  C   UNL     1      -5.067   5.708 -30.154  1.00  0.00     0.020 C 
HETATM   13  C   UNL     1      -3.699   4.504 -31.882  1.00  0.00     0.128 C 
HETATM   14  C   UNL     1      -3.551   3.307 -32.815  1.00  0.00     0.033 C 
HETATM   15  C   UNL     1      -3.809   1.985 -32.093  1.00  0.00     0.013 C 
ENDROOT
BRANCH   3  16
HETATM   16  C   UNL     1      -6.189   1.620 -33.893  1.00  0.00     0.114 C 
BRANCH  16  17
HETATM   17  C   UNL     1      -6.417   0.348 -34.694  1.00  0.00     0.218 C 
HETATM   18  N   UNL     1      -5.730  -0.741 -34.216  1.00  0.00    -0.356 N 
HETATM   19  H   UNL     1      -4.846  -0.506 -33.766  1.00  0.00     0.162 HD
HETATM   20  O   UNL     1      -7.186   0.310 -35.650  1.00  0.00    -0.274 OA
BRANCH  18  21
HETATM   21  C   UNL     1      -5.854  -2.046 -34.818  1.00  0.00     0.084 C 
HETATM   22  C   UNL     1      -4.742  -3.011 -34.422  1.00  0.00     0.025 C 
HETATM   23  C   UNL     1      -5.315  -4.372 -34.800  1.00  0.00     0.002 C 
HETATM   24  C   UNL     1      -6.828  -4.249 -34.622  1.00  0.00     0.002 C 
HETATM   25  C   UNL     1      -7.110  -2.774 -34.351  1.00  0.00     0.025 C 
ENDBRANCH  18  21
ENDBRANCH  16  17
ENDBRANCH   3  16
BRANCH  11  26
HETATM   26  C   UNL     1      -6.156   5.018 -32.285  1.00  0.00     0.176 C 
BRANCH  26  27
HETATM   27  O   UNL     1      -5.705   6.135 -33.046  1.00  0.00    -0.400 OA
HETATM   28  H   UNL     1      -5.790   6.927 -32.487  1.00  0.00     0.209 HD
ENDBRANCH  26  27
ENDBRANCH  11  26
BRANCH   7  29
HETATM   29  N   UNL     1     -11.173   2.325 -32.514  1.00  0.00    -0.305 N 
HETATM   30  C   UNL     1     -11.690   3.066 -33.552  1.00  0.00     0.232 C 
HETATM   31  O   UNL     1     -11.110   3.930 -34.203  1.00  0.00    -0.272 OA
HETATM   32  H   UNL     1     -11.807   1.720 -32.005  1.00  0.00     0.171 HD
BRANCH  30  33
HETATM   33  C   UNL     1     -13.109   2.656 -33.928  1.00  0.00     0.176 C 
BRANCH  33  34
HETATM   34  S   UNL     1     -13.326   0.846 -33.981  1.00  0.00    -0.164 SA
HETATM   35  C   UNL     1     -15.111   0.788 -34.290  1.00  0.00     0.090 C 
ENDBRANCH  33  34
ENDBRANCH  30  33
ENDBRANCH   7  29
BRANCH  13  36
HETATM   36  O   UNL     1      -2.690   4.382 -30.873  1.00  0.00    -0.395 OA
HETATM   37  H   UNL     1      -2.937   4.975 -30.143  1.00  0.00     0.210 HD
ENDBRANCH  13  36
TORSDOF 9
ENDMDL
MODEL 2
REMARK VINA RESULT:      -8.2      3.594      6.881
REMARK  9 active torsions:
REMARK  status: ('A' for Active; 'I' for Inactive)
REMARK    1  A    between atoms: C_3  and  C_4 
REMARK    2  A    between atoms: C_4  and  C_5 
REMARK       I    between atoms: C_5  and  N_6 
REMARK    3  A    between atoms: N_6  and  C_7 
REMARK    4  A    between atoms: C_16  and  N_17 
REMARK       I    between atoms: N_17  and  C_18 
REMARK    5  A    between atoms: C_18  and  C_19 
REMARK    6  A    between atoms: C_19  and  S_20 
REMARK    7  A    between atoms: C_26  and  C_27 
REMARK    8  A    between atoms: C_27  and  O_28 
REMARK    9  A    between atoms: C_30  and  O_31 
ROOT
HETATM    1  C   UNL     1      -6.737   2.314 -34.729  1.00  0.00     0.016 C 
HETATM    2  C   UNL     1      -6.762   2.002 -33.192  1.00  0.00    -0.030 C 
HETATM    3  C   UNL     1      -5.210   1.797 -32.789  1.00  0.00     0.056 C 
HETATM    4  C   UNL     1      -4.611   3.084 -32.252  1.00  0.00     0.056 A 
HETATM    5  C   UNL     1      -5.278   4.287 -32.183  1.00  0.00     0.012 A 
HETATM    6  S   UNL     1      -4.258   5.505 -31.574  1.00  0.00    -0.055 SA
HETATM    7  C   UNL     1      -3.009   4.361 -31.413  1.00  0.00     0.173 A 
HETATM    8  N   UNL     1      -3.309   3.134 -31.777  1.00  0.00    -0.227 NA
HETATM    9  C   UNL     1      -6.685   4.536 -32.574  1.00  0.00     0.055 C 
HETATM   10  C   UNL     1      -7.510   3.228 -32.487  1.00  0.00     0.012 C 
HETATM   11  C   UNL     1      -8.142   2.948 -31.058  1.00  0.00     0.008 C 
HETATM   12  C   UNL     1      -9.119   4.101 -30.688  1.00  0.00     0.020 C 
HETATM   13  C   UNL     1      -8.969   1.629 -31.108  1.00  0.00     0.128 C 
HETATM   14  C   UNL     1      -8.166   0.453 -31.655  1.00  0.00     0.033 C 
HETATM   15  C   UNL     1      -7.637   0.728 -33.062  1.00  0.00     0.013 C 
ENDROOT
BRANCH   3  16
HETATM   16  C   UNL     1      -4.866   0.582 -31.905  1.00  0.00     0.114 C 
BRANCH  16  17
HETATM   17  C   UNL     1      -4.100  -0.503 -32.645  1.00  0.00     0.218 C 
HETATM   18  N   UNL     1      -4.874  -1.576 -33.014  1.00  0.00    -0.356 N 
HETATM   19  H   UNL     1      -5.650  -1.764 -32.380  1.00  0.00     0.162 HD
HETATM   20  O   UNL     1      -2.909  -0.388 -32.918  1.00  0.00    -0.274 OA
BRANCH  18  21
HETATM   21  C   UNL     1      -4.333  -2.685 -33.764  1.00  0.00     0.084 C 
HETATM   22  C   UNL     1      -3.578  -3.693 -32.905  1.00  0.00     0.025 C 
HETATM   23  C   UNL     1      -3.504  -4.923 -33.801  1.00  0.00     0.002 C 
HETATM   24  C   UNL     1      -4.766  -4.886 -34.663  1.00  0.00     0.002 C 
HETATM   25  C   UNL     1      -5.428  -3.538 -34.394  1.00  0.00     0.025 C 
ENDBRANCH  18  21
ENDBRANCH  16  17
ENDBRANCH   3  16
BRANCH  11  26
HETATM   26  C   UNL     1      -7.093   2.871 -29.922  1.00  0.00     0.176 C 
BRANCH  26  27
HETATM   27  O   UNL     1      -7.181   3.992 -29.047  1.00  0.00    -0.400 OA
HETATM   28  H   UNL     1      -8.122   4.140 -28.850  1.00  0.00     0.209 HD
ENDBRANCH  26  27
ENDBRANCH  11  26
BRANCH   7  29
HETATM   29  N   UNL     1      -1.776   4.667 -30.906  1.00  0.00    -0.305 N 
HETATM   30  C   UNL     1      -0.702   5.212 -31.574  1.00  0.00     0.232 C 
HETATM   31  O   UNL     1      -0.648   5.510 -32.764  1.00  0.00    -0.272 OA
HETATM   32  H   UNL     1      -1.635   4.378 -29.945  1.00  0.00     0.171 HD
BRANCH  30  33
HETATM   33  C   UNL     1       0.474   5.523 -30.657  1.00  0.00     0.176 C 
BRANCH  33  34
HETATM   34  S   UNL     1       0.178   6.985 -29.607  1.00  0.00    -0.164 SA
HETATM   35  C   UNL     1       0.401   6.212 -27.984  1.00  0.00     0.090 C 
ENDBRANCH  33  34
ENDBRANCH  30  33
ENDBRANCH   7  29
BRANCH  13  36
HETATM   36  O   UNL     1     -10.113   1.790 -31.954  1.00  0.00    -0.395 OA
HETATM   37  H   UNL     1     -10.217   2.743 -32.121  1.00  0.00     0.210 HD
ENDBRANCH  13  36
TORSDOF 9
ENDMDL
MODEL 3
REMARK VINA RESULT:      -8.0      2.020      2.470
REMARK  9 active torsions:
REMARK  status: ('A' for Active; 'I' for Inactive)
REMARK    1  A    between atoms: C_3  and  C_4 
REMARK    2  A    between atoms: C_4  and  C_5 
REMARK       I    between atoms: C_5  and  N_6 
REMARK    3  A    between atoms: N_6  and  C_7 
REMARK    4  A    between atoms: C_16  and  N_17 
REMARK       I    between atoms: N_17  and  C_18 
REMARK    5  A    between atoms: C_18  and  C_19 
REMARK    6  A    between atoms: C_19  and  S_20 
REMARK    7  A    between atoms: C_26  and  C_27 
REMARK    8  A    between atoms: C_27  and  O_28 
REMARK    9  A    between atoms: C_30  and  O_31 
ROOT
HETATM    1  C   UNL     1      -5.206   3.092 -29.861  1.00  0.00     0.016 C 
HETATM    2  C   UNL     1      -4.912   3.310 -31.386  1.00  0.00    -0.030 C 
HETATM    3  C   UNL     1      -6.251   2.809 -32.139  1.00  0.00     0.056 C 
HETATM    4  C   UNL     1      -7.185   3.972 -32.420  1.00  0.00     0.056 A 
HETATM    5  C   UNL     1      -6.957   5.272 -32.025  1.00  0.00     0.012 A 
HETATM    6  S   UNL     1      -8.254   6.275 -32.479  1.00  0.00    -0.055 SA
HETATM    7  C   UNL     1      -9.022   4.936 -33.195  1.00  0.00     0.173 A 
HETATM    8  N   UNL     1      -8.369   3.797 -33.121  1.00  0.00    -0.227 NA
HETATM    9  C   UNL     1      -5.766   5.774 -31.301  1.00  0.00     0.055 C 
HETATM   10  C   UNL     1      -4.546   4.857 -31.566  1.00  0.00     0.012 C 
HETATM   11  C   UNL     1      -3.706   5.244 -32.856  1.00  0.00     0.008 C 
HETATM   12  C   UNL     1      -3.138   6.683 -32.693  1.00  0.00     0.020 C 
HETATM   13  C   UNL     1      -2.496   4.273 -32.994  1.00  0.00     0.128 C 
HETATM   14  C   UNL     1      -2.912   2.807 -32.961  1.00  0.00     0.033 C 
HETATM   15  C   UNL     1      -3.651   2.453 -31.671  1.00  0.00     0.013 C 
ENDROOT
BRANCH   3  16
HETATM   16  C   UNL     1      -6.070   1.898 -33.368  1.00  0.00     0.114 C 
BRANCH  16  17
HETATM   17  C   UNL     1      -6.345   0.431 -33.075  1.00  0.00     0.218 C 
HETATM   18  N   UNL     1      -5.772  -0.432 -33.977  1.00  0.00    -0.356 N 
HETATM   19  H   UNL     1      -5.686  -0.050 -34.918  1.00  0.00     0.162 HD
HETATM   20  O   UNL     1      -6.983   0.072 -32.090  1.00  0.00    -0.274 OA
BRANCH  18  21
HETATM   21  C   UNL     1      -5.885  -1.864 -33.840  1.00  0.00     0.084 C 
HETATM   22  C   UNL     1      -6.983  -2.477 -34.702  1.00  0.00     0.025 C 
HETATM   23  C   UNL     1      -6.620  -3.957 -34.724  1.00  0.00     0.002 C 
HETATM   24  C   UNL     1      -5.095  -4.012 -34.618  1.00  0.00     0.002 C 
HETATM   25  C   UNL     1      -4.634  -2.586 -34.329  1.00  0.00     0.025 C 
ENDBRANCH  18  21
ENDBRANCH  16  17
ENDBRANCH   3  16
BRANCH  11  26
HETATM   26  C   UNL     1      -4.539   5.238 -34.161  1.00  0.00     0.176 C 
BRANCH  26  27
HETATM   27  O   UNL     1      -3.758   5.632 -35.286  1.00  0.00    -0.400 OA
HETATM   28  H   UNL     1      -4.337   6.134 -35.885  1.00  0.00     0.209 HD
ENDBRANCH  26  27
ENDBRANCH  11  26
BRANCH   7  29
HETATM   29  N   UNL     1     -10.224   5.021 -33.843  1.00  0.00    -0.305 N 
HETATM   30  C   UNL     1     -10.479   5.581 -35.074  1.00  0.00     0.232 C 
HETATM   31  O   UNL     1      -9.669   6.128 -35.818  1.00  0.00    -0.272 OA
HETATM   32  H   UNL     1     -11.016   4.697 -33.299  1.00  0.00     0.171 HD
BRANCH  30  33
HETATM   33  C   UNL     1     -11.921   5.390 -35.529  1.00  0.00     0.176 C 
BRANCH  33  34
HETATM   34  S   UNL     1     -12.846   4.234 -34.462  1.00  0.00    -0.164 SA
HETATM   35  C   UNL     1     -12.611   2.718 -35.426  1.00  0.00     0.090 C 
ENDBRANCH  33  34
ENDBRANCH  30  33
ENDBRANCH   7  29
BRANCH  13  36
HETATM   36  O   UNL     1      -1.570   4.476 -31.920  1.00  0.00    -0.395 OA
HETATM   37  H   UNL     1      -2.092   4.601 -31.109  1.00  0.00     0.210 HD
ENDBRANCH  13  36
TORSDOF 9
ENDMDL
MODEL 4
REMARK VINA RESULT:      -7.5      3.693      7.000
REMARK  9 active torsions:
REMARK  status: ('A' for Active; 'I' for Inactive)
REMARK    1  A    between atoms: C_3  and  C_4 
REMARK    2  A    between atoms: C_4  and  C_5 
REMARK       I    between atoms: C_5  and  N_6 
REMARK    3  A    between atoms: N_6  and  C_7 
REMARK    4  A    between atoms: C_16  and  N_17 
REMARK       I    between atoms: N_17  and  C_18 
REMARK    5  A    between atoms: C_18  and  C_19 
REMARK    6  A    between atoms: C_19  and  S_20 
REMARK    7  A    between atoms: C_26  and  C_27 
REMARK    8  A    between atoms: C_27  and  O_28 
REMARK    9  A    between atoms: C_30  and  O_31 
ROOT
HETATM    1  C   UNL     1      -7.716   3.326 -33.959  1.00  0.00     0.016 C 
HETATM    2  C   UNL     1      -7.752   3.514 -32.403  1.00  0.00    -0.030 C 
HETATM    3  C   UNL     1      -6.307   2.998 -31.893  1.00  0.00     0.056 C 
HETATM    4  C   UNL     1      -5.336   4.155 -31.748  1.00  0.00     0.056 A 
HETATM    5  C   UNL     1      -5.621   5.462 -32.074  1.00  0.00     0.012 A 
HETATM    6  S   UNL     1      -4.264   6.456 -31.823  1.00  0.00    -0.055 SA
HETATM    7  C   UNL     1      -3.392   5.102 -31.272  1.00  0.00     0.173 A 
HETATM    8  N   UNL     1      -4.052   3.965 -31.258  1.00  0.00    -0.227 NA
HETATM    9  C   UNL     1      -6.915   5.978 -32.580  1.00  0.00     0.055 C 
HETATM   10  C   UNL     1      -8.077   5.057 -32.134  1.00  0.00     0.012 C 
HETATM   11  C   UNL     1      -8.689   5.417 -30.714  1.00  0.00     0.008 C 
HETATM   12  C   UNL     1      -9.271   6.860 -30.752  1.00  0.00     0.020 C 
HETATM   13  C   UNL     1      -9.863   4.445 -30.396  1.00  0.00     0.128 C 
HETATM   14  C   UNL     1      -9.463   2.979 -30.527  1.00  0.00     0.033 C 
HETATM   15  C   UNL     1      -8.950   2.651 -31.928  1.00  0.00     0.013 C 
ENDROOT
BRANCH   3  16
HETATM   16  C   UNL     1      -6.284   2.062 -30.669  1.00  0.00     0.114 C 
BRANCH  16  17
HETATM   17  C   UNL     1      -6.378   0.589 -31.036  1.00  0.00     0.218 C 
HETATM   18  N   UNL     1      -6.137   0.331 -32.364  1.00  0.00    -0.356 N 
HETATM   19  H   UNL     1      -6.412   1.088 -32.989  1.00  0.00     0.162 HD
HETATM   20  O   UNL     1      -6.603  -0.278 -30.197  1.00  0.00    -0.274 OA
BRANCH  18  21
HETATM   21  C   UNL     1      -6.137  -1.012 -32.892  1.00  0.00     0.084 C 
HETATM   22  C   UNL     1      -7.142  -1.227 -34.018  1.00  0.00     0.025 C 
HETATM   23  C   UNL     1      -6.657  -2.514 -34.673  1.00  0.00     0.002 C 
HETATM   24  C   UNL     1      -5.140  -2.529 -34.488  1.00  0.00     0.002 C 
HETATM   25  C   UNL     1      -4.811  -1.366 -33.556  1.00  0.00     0.025 C 
ENDBRANCH  18  21
ENDBRANCH  16  17
ENDBRANCH   3  16
BRANCH  11  26
HETATM   26  C   UNL     1      -7.651   5.385 -29.567  1.00  0.00     0.176 C 
BRANCH  26  27
HETATM   27  O   UNL     1      -8.171   5.956 -28.369  1.00  0.00    -0.400 OA
HETATM   28  H   UNL     1      -9.092   6.219 -28.544  1.00  0.00     0.209 HD
ENDBRANCH  26  27
ENDBRANCH  11  26
BRANCH   7  29
HETATM   29  N   UNL     1      -2.099   5.175 -30.831  1.00  0.00    -0.305 N 
HETATM   30  C   UNL     1      -0.950   5.191 -31.591  1.00  0.00     0.232 C 
HETATM   31  O   UNL     1      -0.874   5.126 -32.814  1.00  0.00    -0.272 OA
HETATM   32  H   UNL     1      -1.997   5.131 -29.824  1.00  0.00     0.171 HD
BRANCH  30  33
HETATM   33  C   UNL     1       0.310   5.397 -30.759  1.00  0.00     0.176 C 
BRANCH  33  34
HETATM   34  S   UNL     1       0.231   6.895 -29.722  1.00  0.00    -0.164 SA
HETATM   35  C   UNL     1       0.284   6.108 -28.091  1.00  0.00     0.090 C 
ENDBRANCH  33  34
ENDBRANCH  30  33
ENDBRANCH   7  29
BRANCH  13  36
HETATM   36  O   UNL     1     -10.954   4.669 -31.297  1.00  0.00    -0.395 OA
HETATM   37  H   UNL     1     -11.041   3.872 -31.849  1.00  0.00     0.210 HD
ENDBRANCH  13  36
TORSDOF 9
ENDMDL
MODEL 5
REMARK VINA RESULT:      -7.2      3.234      6.475
REMARK  9 active torsions:
REMARK  status: ('A' for Active; 'I' for Inactive)
REMARK    1  A    between atoms: C_3  and  C_4 
REMARK    2  A    between atoms: C_4  and  C_5 
REMARK       I    between atoms: C_5  and  N_6 
REMARK    3  A    between atoms: N_6  and  C_7 
REMARK    4  A    between atoms: C_16  and  N_17 
REMARK       I    between atoms: N_17  and  C_18 
REMARK    5  A    between atoms: C_18  and  C_19 
REMARK    6  A    between atoms: C_19  and  S_20 
REMARK    7  A    between atoms: C_26  and  C_27 
REMARK    8  A    between atoms: C_27  and  O_28 
REMARK    9  A    between atoms: C_30  and  O_31 
ROOT
HETATM    1  C   UNL     1      -7.106   1.090 -35.293  1.00  0.00     0.016 C 
HETATM    2  C   UNL     1      -7.164   1.209 -33.730  1.00  0.00    -0.030 C 
HETATM    3  C   UNL     1      -5.639   1.499 -33.283  1.00  0.00     0.056 C 
HETATM    4  C   UNL     1      -5.390   2.987 -33.126  1.00  0.00     0.056 A 
HETATM    5  C   UNL     1      -6.318   3.968 -33.397  1.00  0.00     0.012 A 
HETATM    6  S   UNL     1      -5.651   5.513 -33.151  1.00  0.00    -0.055 SA
HETATM    7  C   UNL     1      -4.186   4.790 -32.674  1.00  0.00     0.173 A 
HETATM    8  N   UNL     1      -4.171   3.475 -32.681  1.00  0.00    -0.227 NA
HETATM    9  C   UNL     1      -7.714   3.756 -33.845  1.00  0.00     0.055 C 
HETATM   10  C   UNL     1      -8.221   2.363 -33.397  1.00  0.00     0.012 C 
HETATM   11  C   UNL     1      -8.869   2.337 -31.948  1.00  0.00     0.008 C 
HETATM   12  C   UNL     1     -10.108   3.278 -31.918  1.00  0.00     0.020 C 
HETATM   13  C   UNL     1      -9.365   0.895 -31.630  1.00  0.00     0.128 C 
HETATM   14  C   UNL     1      -8.277  -0.156 -31.824  1.00  0.00     0.033 C 
HETATM   15  C   UNL     1      -7.731  -0.154 -33.251  1.00  0.00     0.013 C 
ENDROOT
BRANCH   3  16
HETATM   16  C   UNL     1      -5.087   0.688 -32.094  1.00  0.00     0.114 C 
BRANCH  16  17
HETATM   17  C   UNL     1      -4.180  -0.458 -32.516  1.00  0.00     0.218 C 
HETATM   18  N   UNL     1      -4.840  -1.487 -33.142  1.00  0.00    -0.356 N 
HETATM   19  H   UNL     1      -5.802  -1.612 -32.829  1.00  0.00     0.162 HD
HETATM   20  O   UNL     1      -2.965  -0.424 -32.344  1.00  0.00    -0.274 OA
BRANCH  18  21
HETATM   21  C   UNL     1      -4.142  -2.642 -33.654  1.00  0.00     0.084 C 
HETATM   22  C   UNL     1      -3.554  -3.532 -32.566  1.00  0.00     0.025 C 
HETATM   23  C   UNL     1      -3.282  -4.840 -33.299  1.00  0.00     0.002 C 
HETATM   24  C   UNL     1      -4.349  -4.935 -34.389  1.00  0.00     0.002 C 
HETATM   25  C   UNL     1      -5.075  -3.593 -34.395  1.00  0.00     0.025 C 
ENDBRANCH  18  21
ENDBRANCH  16  17
ENDBRANCH   3  16
BRANCH  11  26
HETATM   26  C   UNL     1      -7.911   2.824 -30.834  1.00  0.00     0.176 C 
BRANCH  26  27
HETATM   27  O   UNL     1      -8.289   4.105 -30.338  1.00  0.00    -0.400 OA
HETATM   28  H   UNL     1      -8.165   4.096 -29.373  1.00  0.00     0.209 HD
ENDBRANCH  26  27
ENDBRANCH  11  26
BRANCH   7  29
HETATM   29  N   UNL     1      -3.094   5.508 -32.270  1.00  0.00    -0.305 N 
HETATM   30  C   UNL     1      -2.886   6.108 -31.049  1.00  0.00     0.232 C 
HETATM   31  O   UNL     1      -3.656   6.124 -30.093  1.00  0.00    -0.272 OA
HETATM   32  H   UNL     1      -2.407   5.669 -32.998  1.00  0.00     0.171 HD
BRANCH  30  33
HETATM   33  C   UNL     1      -1.498   6.726 -30.917  1.00  0.00     0.176 C 
BRANCH  33  34
HETATM   34  S   UNL     1      -1.474   8.166 -29.798  1.00  0.00    -0.164 SA
HETATM   35  C   UNL     1      -2.447   9.317 -30.804  1.00  0.00     0.090 C 
ENDBRANCH  33  34
ENDBRANCH  30  33
ENDBRANCH   7  29
BRANCH  13  36
HETATM   36  O   UNL     1     -10.454   0.542 -32.489  1.00  0.00    -0.395 OA
HETATM   37  H   UNL     1     -11.257   0.514 -31.941  1.00  0.00     0.210 HD
ENDBRANCH  13  36
TORSDOF 9
ENDMDL
MODEL 6
REMARK VINA RESULT:      -7.2      3.787      8.041
REMARK  9 active torsions:
REMARK  status: ('A' for Active; 'I' for Inactive)
REMARK    1  A    between atoms: C_3  and  C_4 
REMARK    2  A    between atoms: C_4  and  C_5 
REMARK       I    between atoms: C_5  and  N_6 
REMARK    3  A    between atoms: N_6  and  C_7 
REMARK    4  A    between atoms: C_16  and  N_17 
REMARK       I    between atoms: N_17  and  C_18 
REMARK    5  A    between atoms: C_18  and  C_19 
REMARK    6  A    between atoms: C_19  and  S_20 
REMARK    7  A    between atoms: C_26  and  C_27 
REMARK    8  A    between atoms: C_27  and  O_28 
REMARK    9  A    between atoms: C_30  and  O_31 
ROOT
HETATM    1  C   UNL     1      -7.131   4.402 -34.050  1.00  0.00     0.016 C 
HETATM    2  C   UNL     1      -6.569   3.225 -33.179  1.00  0.00    -0.030 C 
HETATM    3  C   UNL     1      -5.359   3.882 -32.332  1.00  0.00     0.056 C 
HETATM    4  C   UNL     1      -5.832   4.325 -30.960  1.00  0.00     0.056 A 
HETATM    5  C   UNL     1      -7.134   4.244 -30.518  1.00  0.00     0.012 A 
HETATM    6  S   UNL     1      -7.277   4.887 -28.949  1.00  0.00    -0.055 SA
HETATM    7  C   UNL     1      -5.606   5.205 -28.941  1.00  0.00     0.173 A 
HETATM    8  N   UNL     1      -4.953   4.856 -30.028  1.00  0.00    -0.227 NA
HETATM    9  C   UNL     1      -8.283   3.687 -31.267  1.00  0.00     0.055 C 
HETATM   10  C   UNL     1      -7.796   2.661 -32.321  1.00  0.00     0.012 C 
HETATM   11  C   UNL     1      -7.659   1.177 -31.775  1.00  0.00     0.008 C 
HETATM   12  C   UNL     1      -9.050   0.673 -31.292  1.00  0.00     0.020 C 
HETATM   13  C   UNL     1      -7.195   0.242 -32.930  1.00  0.00     0.128 C 
HETATM   14  C   UNL     1      -5.936   0.748 -33.626  1.00  0.00     0.033 C 
HETATM   15  C   UNL     1      -6.129   2.149 -34.206  1.00  0.00     0.013 C 
ENDROOT
BRANCH   3  16
HETATM   16  C   UNL     1      -4.036   3.095 -32.266  1.00  0.00     0.114 C 
BRANCH  16  17
HETATM   17  C   UNL     1      -2.810   3.956 -32.522  1.00  0.00     0.218 C 
HETATM   18  N   UNL     1      -2.169   4.366 -31.378  1.00  0.00    -0.356 N 
HETATM   19  H   UNL     1      -2.789   4.489 -30.579  1.00  0.00     0.162 HD
HETATM   20  O   UNL     1      -2.419   4.211 -33.658  1.00  0.00    -0.274 OA
BRANCH  18  21
HETATM   21  C   UNL     1      -0.961   5.154 -31.421  1.00  0.00     0.084 C 
HETATM   22  C   UNL     1      -1.212   6.655 -31.516  1.00  0.00     0.025 C 
HETATM   23  C   UNL     1       0.127   7.256 -31.109  1.00  0.00     0.002 C 
HETATM   24  C   UNL     1       0.742   6.269 -30.117  1.00  0.00     0.002 C 
HETATM   25  C   UNL     1      -0.152   5.032 -30.134  1.00  0.00     0.025 C 
ENDBRANCH  18  21
ENDBRANCH  16  17
ENDBRANCH   3  16
BRANCH  11  26
HETATM   26  C   UNL     1      -6.695   1.048 -30.572  1.00  0.00     0.176 C 
BRANCH  26  27
HETATM   27  O   UNL     1      -6.908  -0.164 -29.853  1.00  0.00    -0.400 OA
HETATM   28  H   UNL     1      -6.144  -0.743 -30.017  1.00  0.00     0.209 HD
ENDBRANCH  26  27
ENDBRANCH  11  26
BRANCH   7  29
HETATM   29  N   UNL     1      -4.954   5.754 -27.870  1.00  0.00    -0.305 N 
HETATM   30  C   UNL     1      -4.896   7.082 -27.511  1.00  0.00     0.232 C 
HETATM   31  O   UNL     1      -5.408   8.029 -28.100  1.00  0.00    -0.272 OA
HETATM   32  H   UNL     1      -4.393   5.097 -27.340  1.00  0.00     0.171 HD
BRANCH  30  33
HETATM   33  C   UNL     1      -4.172   7.309 -26.189  1.00  0.00     0.176 C 
BRANCH  33  34
HETATM   34  S   UNL     1      -2.699   8.370 -26.368  1.00  0.00    -0.164 SA
HETATM   35  C   UNL     1      -1.680   7.263 -27.378  1.00  0.00     0.090 C 
ENDBRANCH  33  34
ENDBRANCH  30  33
ENDBRANCH   7  29
BRANCH  13  36
HETATM   36  O   UNL     1      -8.218   0.138 -33.928  1.00  0.00    -0.395 OA
HETATM   37  H   UNL     1      -8.247  -0.790 -34.216  1.00  0.00     0.210 HD
ENDBRANCH  13  36
TORSDOF 9
ENDMDL
MODEL 7
REMARK VINA RESULT:      -7.2      5.387      9.769
REMARK  9 active torsions:
REMARK  status: ('A' for Active; 'I' for Inactive)
REMARK    1  A    between atoms: C_3  and  C_4 
REMARK    2  A    between atoms: C_4  and  C_5 
REMARK       I    between atoms: C_5  and  N_6 
REMARK    3  A    between atoms: N_6  and  C_7 
REMARK    4  A    between atoms: C_16  and  N_17 
REMARK       I    between atoms: N_17  and  C_18 
REMARK    5  A    between atoms: C_18  and  C_19 
REMARK    6  A    between atoms: C_19  and  S_20 
REMARK    7  A    between atoms: C_26  and  C_27 
REMARK    8  A    between atoms: C_27  and  O_28 
REMARK    9  A    between atoms: C_30  and  O_31 
ROOT
HETATM    1  C   UNL     1      -3.159   5.420 -34.353  1.00  0.00     0.016 C 
HETATM    2  C   UNL     1      -3.451   4.764 -32.958  1.00  0.00    -0.030 C 
HETATM    3  C   UNL     1      -2.565   5.617 -31.910  1.00  0.00     0.056 C 
HETATM    4  C   UNL     1      -3.389   6.719 -31.271  1.00  0.00     0.056 A 
HETATM    5  C   UNL     1      -4.698   7.004 -31.592  1.00  0.00     0.012 A 
HETATM    6  S   UNL     1      -5.259   8.340 -30.700  1.00  0.00    -0.055 SA
HETATM    7  C   UNL     1      -3.748   8.442 -29.926  1.00  0.00     0.173 A 
HETATM    8  N   UNL     1      -2.860   7.540 -30.286  1.00  0.00    -0.227 NA
HETATM    9  C   UNL     1      -5.540   6.278 -32.570  1.00  0.00     0.055 C 
HETATM   10  C   UNL     1      -5.035   4.824 -32.745  1.00  0.00     0.012 C 
HETATM   11  C   UNL     1      -5.653   3.789 -31.712  1.00  0.00     0.008 C 
HETATM   12  C   UNL     1      -7.198   3.735 -31.894  1.00  0.00     0.020 C 
HETATM   13  C   UNL     1      -5.095   2.366 -32.010  1.00  0.00     0.128 C 
HETATM   14  C   UNL     1      -3.571   2.331 -32.061  1.00  0.00     0.033 C 
HETATM   15  C   UNL     1      -3.014   3.284 -33.119  1.00  0.00     0.013 C 
ENDROOT
BRANCH   3  16
HETATM   16  C   UNL     1      -1.746   4.826 -30.871  1.00  0.00     0.114 C 
BRANCH  16  17
HETATM   17  C   UNL     1      -0.485   5.547 -30.423  1.00  0.00     0.218 C 
HETATM   18  N   UNL     1      -0.508   5.942 -29.108  1.00  0.00    -0.356 N 
HETATM   19  H   UNL     1      -1.439   6.163 -28.759  1.00  0.00     0.162 HD
HETATM   20  O   UNL     1       0.473   5.710 -31.173  1.00  0.00    -0.274 OA
BRANCH  18  21
HETATM   21  C   UNL     1       0.617   6.602 -28.490  1.00  0.00     0.084 C 
HETATM   22  C   UNL     1       0.644   8.108 -28.719  1.00  0.00     0.025 C 
HETATM   23  C   UNL     1       1.611   8.603 -27.650  1.00  0.00     0.002 C 
HETATM   24  C   UNL     1       1.464   7.636 -26.476  1.00  0.00     0.002 C 
HETATM   25  C   UNL     1       0.578   6.496 -26.969  1.00  0.00     0.025 C 
ENDBRANCH  18  21
ENDBRANCH  16  17
ENDBRANCH   3  16
BRANCH  11  26
HETATM   26  C   UNL     1      -5.390   4.160 -30.233  1.00  0.00     0.176 C 
BRANCH  26  27
HETATM   27  O   UNL     1      -5.721   3.088 -29.354  1.00  0.00    -0.400 OA
HETATM   28  H   UNL     1      -6.686   2.969 -29.384  1.00  0.00     0.209 HD
ENDBRANCH  26  27
ENDBRANCH  11  26
BRANCH   7  29
HETATM   29  N   UNL     1      -3.462   9.370 -28.962  1.00  0.00    -0.305 N 
HETATM   30  C   UNL     1      -2.737  10.532 -29.100  1.00  0.00     0.232 C 
HETATM   31  O   UNL     1      -2.192  10.945 -30.120  1.00  0.00    -0.272 OA
HETATM   32  H   UNL     1      -3.765   9.111 -28.030  1.00  0.00     0.171 HD
BRANCH  30  33
HETATM   33  C   UNL     1      -2.723  11.379 -27.834  1.00  0.00     0.176 C 
BRANCH  33  34
HETATM   34  S   UNL     1      -1.169  11.210 -26.893  1.00  0.00    -0.164 SA
HETATM   35  C   UNL     1      -1.595   9.746 -25.913  1.00  0.00     0.090 C 
ENDBRANCH  33  34
ENDBRANCH  30  33
ENDBRANCH   7  29
BRANCH  13  36
HETATM   36  O   UNL     1      -5.572   1.899 -33.277  1.00  0.00    -0.395 OA
HETATM   37  H   UNL     1      -5.332   2.568 -33.941  1.00  0.00     0.210 HD
ENDBRANCH  13  36
TORSDOF 9
ENDMDL
MODEL 8
REMARK VINA RESULT:      -7.1      2.841      7.177
REMARK  9 active torsions:
REMARK  status: ('A' for Active; 'I' for Inactive)
REMARK    1  A    between atoms: C_3  and  C_4 
REMARK    2  A    between atoms: C_4  and  C_5 
REMARK       I    between atoms: C_5  and  N_6 
REMARK    3  A    between atoms: N_6  and  C_7 
REMARK    4  A    between atoms: C_16  and  N_17 
REMARK       I    between atoms: N_17  and  C_18 
REMARK    5  A    between atoms: C_18  and  C_19 
REMARK    6  A    between atoms: C_19  and  S_20 
REMARK    7  A    between atoms: C_26  and  C_27 
REMARK    8  A    between atoms: C_27  and  O_28 
REMARK    9  A    between atoms: C_30  and  O_31 
ROOT
HETATM    1  C   UNL     1     -12.368   3.065 -36.433  1.00  0.00     0.016 C 
HETATM    2  C   UNL     1     -12.198   2.825 -34.893  1.00  0.00    -0.030 C 
HETATM    3  C   UNL     1     -10.606   2.656 -34.677  1.00  0.00     0.056 C 
HETATM    4  C   UNL     1      -9.967   3.973 -34.276  1.00  0.00     0.056 A 
HETATM    5  C   UNL     1     -10.641   5.171 -34.179  1.00  0.00     0.012 A 
HETATM    6  S   UNL     1      -9.575   6.428 -33.756  1.00  0.00    -0.055 SA
HETATM    7  C   UNL     1      -8.296   5.307 -33.701  1.00  0.00     0.173 A 
HETATM    8  N   UNL     1      -8.618   4.061 -33.970  1.00  0.00    -0.227 NA
HETATM    9  C   UNL     1     -12.089   5.385 -34.403  1.00  0.00     0.055 C 
HETATM   10  C   UNL     1     -12.875   4.073 -34.156  1.00  0.00     0.012 C 
HETATM   11  C   UNL     1     -13.321   3.853 -32.648  1.00  0.00     0.008 C 
HETATM   12  C   UNL     1     -14.265   5.011 -32.213  1.00  0.00     0.020 C 
HETATM   13  C   UNL     1     -14.124   2.523 -32.537  1.00  0.00     0.128 C 
HETATM   14  C   UNL     1     -13.375   1.333 -33.125  1.00  0.00     0.033 C 
HETATM   15  C   UNL     1     -13.029   1.548 -34.598  1.00  0.00     0.013 C 
ENDROOT
BRANCH   3  16
HETATM   16  C   UNL     1     -10.134   1.488 -33.789  1.00  0.00     0.114 C 
BRANCH  16  17
HETATM   17  C   UNL     1      -8.744   0.985 -34.144  1.00  0.00     0.218 C 
HETATM   18  N   UNL     1      -7.808   1.196 -33.161  1.00  0.00    -0.356 N 
HETATM   19  H   UNL     1      -7.982   2.027 -32.597  1.00  0.00     0.162 HD
HETATM   20  O   UNL     1      -8.512   0.404 -35.200  1.00  0.00    -0.274 OA
BRANCH  18  21
HETATM   21  C   UNL     1      -6.443   0.748 -33.298  1.00  0.00     0.084 C 
HETATM   22  C   UNL     1      -5.426   1.679 -32.651  1.00  0.00     0.025 C 
HETATM   23  C   UNL     1      -4.181   0.808 -32.540  1.00  0.00     0.002 C 
HETATM   24  C   UNL     1      -4.689  -0.622 -32.355  1.00  0.00     0.002 C 
HETATM   25  C   UNL     1      -6.199  -0.570 -32.572  1.00  0.00     0.025 C 
ENDBRANCH  18  21
ENDBRANCH  16  17
ENDBRANCH   3  16
BRANCH  11  26
HETATM   26  C   UNL     1     -12.139   3.840 -31.650  1.00  0.00     0.176 C 
BRANCH  26  27
HETATM   27  O   UNL     1     -12.591   3.801 -30.299  1.00  0.00    -0.400 OA
HETATM   28  H   UNL     1     -13.560   3.890 -30.309  1.00  0.00     0.209 HD
ENDBRANCH  26  27
ENDBRANCH  11  26
BRANCH   7  29
HETATM   29  N   UNL     1      -7.015   5.650 -33.365  1.00  0.00    -0.305 N 
HETATM   30  C   UNL     1      -6.336   5.341 -32.208  1.00  0.00     0.232 C 
HETATM   31  O   UNL     1      -6.765   4.708 -31.247  1.00  0.00    -0.272 OA
HETATM   32  H   UNL     1      -6.561   6.269 -34.027  1.00  0.00     0.171 HD
BRANCH  30  33
HETATM   33  C   UNL     1      -4.881   5.794 -32.232  1.00  0.00     0.176 C 
BRANCH  33  34
HETATM   34  S   UNL     1      -4.029   5.338 -33.779  1.00  0.00    -0.164 SA
HETATM   35  C   UNL     1      -2.704   4.320 -33.079  1.00  0.00     0.090 C 
ENDBRANCH  33  34
ENDBRANCH  30  33
ENDBRANCH   7  29
BRANCH  13  36
HETATM   36  O   UNL     1     -15.367   2.632 -33.240  1.00  0.00    -0.395 OA
HETATM   37  H   UNL     1     -15.279   2.120 -34.063  1.00  0.00     0.210 HD
ENDBRANCH  13  36
TORSDOF 9
ENDMDL
MODEL 9
REMARK VINA RESULT:      -7.1      3.049      7.333
REMARK  9 active torsions:
REMARK  status: ('A' for Active; 'I' for Inactive)
REMARK    1  A    between atoms: C_3  and  C_4 
REMARK    2  A    between atoms: C_4  and  C_5 
REMARK       I    between atoms: C_5  and  N_6 
REMARK    3  A    between atoms: N_6  and  C_7 
REMARK    4  A    between atoms: C_16  and  N_17 
REMARK       I    between atoms: N_17  and  C_18 
REMARK    5  A    between atoms: C_18  and  C_19 
REMARK    6  A    between atoms: C_19  and  S_20 
REMARK    7  A    between atoms: C_26  and  C_27 
REMARK    8  A    between atoms: C_27  and  O_28 
REMARK    9  A    between atoms: C_30  and  O_31 
ROOT
HETATM    1  C   UNL     1      -9.546   0.240 -32.354  1.00  0.00     0.016 C 
HETATM    2  C   UNL     1      -8.200   0.642 -33.053  1.00  0.00    -0.030 C 
HETATM    3  C   UNL     1      -7.965   2.185 -32.633  1.00  0.00     0.056 C 
HETATM    4  C   UNL     1      -7.061   2.287 -31.418  1.00  0.00     0.056 A 
HETATM    5  C   UNL     1      -6.564   1.209 -30.720  1.00  0.00     0.012 A 
HETATM    6  S   UNL     1      -5.635   1.728 -29.392  1.00  0.00    -0.055 SA
HETATM    7  C   UNL     1      -5.925   3.344 -29.839  1.00  0.00     0.173 A 
HETATM    8  N   UNL     1      -6.661   3.516 -30.915  1.00  0.00    -0.227 NA
HETATM    9  C   UNL     1      -6.781  -0.220 -31.041  1.00  0.00     0.055 C 
HETATM   10  C   UNL     1      -7.093  -0.396 -32.548  1.00  0.00     0.012 C 
HETATM   11  C   UNL     1      -5.809  -0.567 -33.466  1.00  0.00     0.008 C 
HETATM   12  C   UNL     1      -5.030  -1.844 -33.034  1.00  0.00     0.020 C 
HETATM   13  C   UNL     1      -6.254  -0.766 -34.945  1.00  0.00     0.128 C 
HETATM   14  C   UNL     1      -7.198   0.331 -35.426  1.00  0.00     0.033 C 
HETATM   15  C   UNL     1      -8.458   0.416 -34.566  1.00  0.00     0.013 C 
ENDROOT
BRANCH   3  16
HETATM   16  C   UNL     1      -7.552   3.164 -33.749  1.00  0.00     0.114 C 
BRANCH  16  17
HETATM   17  C   UNL     1      -8.590   4.242 -34.018  1.00  0.00     0.218 C 
HETATM   18  N   UNL     1      -9.884   3.835 -33.800  1.00  0.00    -0.356 N 
HETATM   19  H   UNL     1     -10.040   2.843 -33.974  1.00  0.00     0.162 HD
HETATM   20  O   UNL     1      -8.276   5.380 -34.355  1.00  0.00    -0.274 OA
BRANCH  18  21
HETATM   21  C   UNL     1     -11.003   4.732 -33.959  1.00  0.00     0.084 C 
HETATM   22  C   UNL     1     -11.655   4.657 -35.335  1.00  0.00     0.025 C 
HETATM   23  C   UNL     1     -13.008   5.322 -35.113  1.00  0.00     0.002 C 
HETATM   24  C   UNL     1     -13.384   5.024 -33.661  1.00  0.00     0.002 C 
HETATM   25  C   UNL     1     -12.155   4.381 -33.024  1.00  0.00     0.025 C 
ENDBRANCH  18  21
ENDBRANCH  16  17
ENDBRANCH   3  16
BRANCH  11  26
HETATM   26  C   UNL     1      -4.816   0.616 -33.367  1.00  0.00     0.176 C 
BRANCH  26  27
HETATM   27  O   UNL     1      -3.637   0.256 -32.651  1.00  0.00    -0.400 OA
HETATM   28  H   UNL     1      -3.152  -0.393 -33.189  1.00  0.00     0.209 HD
ENDBRANCH  26  27
ENDBRANCH  11  26
BRANCH   7  29
HETATM   29  N   UNL     1      -5.406   4.412 -29.159  1.00  0.00    -0.305 N 
HETATM   30  C   UNL     1      -6.078   5.307 -28.357  1.00  0.00     0.232 C 
HETATM   31  O   UNL     1      -7.281   5.322 -28.115  1.00  0.00    -0.272 OA
HETATM   32  H   UNL     1      -4.425   4.591 -29.345  1.00  0.00     0.171 HD
BRANCH  30  33
HETATM   33  C   UNL     1      -5.151   6.302 -27.667  1.00  0.00     0.176 C 
BRANCH  33  34
HETATM   34  S   UNL     1      -4.184   7.296 -28.852  1.00  0.00    -0.164 SA
HETATM   35  C   UNL     1      -2.627   7.391 -27.929  1.00  0.00     0.090 C 
ENDBRANCH  33  34
ENDBRANCH  30  33
ENDBRANCH   7  29
BRANCH  13  36
HETATM   36  O   UNL     1      -6.941  -2.013 -35.095  1.00  0.00    -0.395 OA
HETATM   37  H   UNL     1      -7.279  -2.264 -34.218  1.00  0.00     0.210 HD
ENDBRANCH  13  36
TORSDOF 9
ENDMDL
MODEL 10
REMARK VINA RESULT:      -7.0      2.973      6.549
REMARK  9 active torsions:
REMARK  status: ('A' for Active; 'I' for Inactive)
REMARK    1  A    between atoms: C_3  and  C_4 
REMARK    2  A    between atoms: C_4  and  C_5 
REMARK       I    between atoms: C_5  and  N_6 
REMARK    3  A    between atoms: N_6  and  C_7 
REMARK    4  A    between atoms: C_16  and  N_17 
REMARK       I    between atoms: N_17  and  C_18 
REMARK    5  A    between atoms: C_18  and  C_19 
REMARK    6  A    between atoms: C_19  and  S_20 
REMARK    7  A    between atoms: C_26  and  C_27 
REMARK    8  A    between atoms: C_27  and  O_28 
REMARK    9  A    between atoms: C_30  and  O_31 
ROOT
HETATM    1  C   UNL     1      -9.408   0.068 -31.662  1.00  0.00     0.016 C 
HETATM    2  C   UNL     1      -8.508   0.886 -32.653  1.00  0.00    -0.030 C 
HETATM    3  C   UNL     1      -9.146   2.370 -32.658  1.00  0.00     0.056 C 
HETATM    4  C   UNL     1      -8.430   3.275 -31.673  1.00  0.00     0.056 A 
HETATM    5  C   UNL     1      -7.417   2.870 -30.832  1.00  0.00     0.012 A 
HETATM    6  S   UNL     1      -6.906   4.156 -29.842  1.00  0.00    -0.055 SA
HETATM    7  C   UNL     1      -8.034   5.174 -30.605  1.00  0.00     0.173 A 
HETATM    8  N   UNL     1      -8.758   4.617 -31.552  1.00  0.00    -0.227 NA
HETATM    9  C   UNL     1      -6.824   1.514 -30.762  1.00  0.00     0.055 C 
HETATM   10  C   UNL     1      -7.007   0.772 -32.109  1.00  0.00     0.012 C 
HETATM   11  C   UNL     1      -5.848   1.033 -33.163  1.00  0.00     0.008 C 
HETATM   12  C   UNL     1      -4.495   0.536 -32.577  1.00  0.00     0.020 C 
HETATM   13  C   UNL     1      -6.131   0.211 -34.455  1.00  0.00     0.128 C 
HETATM   14  C   UNL     1      -7.526   0.463 -35.018  1.00  0.00     0.033 C 
HETATM   15  C   UNL     1      -8.619   0.129 -34.003  1.00  0.00     0.013 C 
ENDROOT
BRANCH   3  16
HETATM   16  C   UNL     1      -9.347   3.046 -34.029  1.00  0.00     0.114 C 
BRANCH  16  17
HETATM   17  C   UNL     1     -10.792   3.028 -34.502  1.00  0.00     0.218 C 
HETATM   18  N   UNL     1     -11.616   2.233 -33.743  1.00  0.00    -0.356 N 
HETATM   19  H   UNL     1     -11.147   1.429 -33.328  1.00  0.00     0.162 HD
HETATM   20  O   UNL     1     -11.175   3.706 -35.451  1.00  0.00    -0.274 OA
BRANCH  18  21
HETATM   21  C   UNL     1     -13.030   2.123 -34.011  1.00  0.00     0.084 C 
HETATM   22  C   UNL     1     -13.465   0.726 -34.438  1.00  0.00     0.025 C 
HETATM   23  C   UNL     1     -14.974   0.756 -34.231  1.00  0.00     0.002 C 
HETATM   24  C   UNL     1     -15.215   1.713 -33.063  1.00  0.00     0.002 C 
HETATM   25  C   UNL     1     -13.870   2.368 -32.763  1.00  0.00     0.025 C 
ENDBRANCH  18  21
ENDBRANCH  16  17
ENDBRANCH   3  16
BRANCH  11  26
HETATM   26  C   UNL     1      -5.660   2.527 -33.517  1.00  0.00     0.176 C 
BRANCH  26  27
HETATM   27  O   UNL     1      -4.513   3.080 -32.877  1.00  0.00    -0.400 OA
HETATM   28  H   UNL     1      -4.176   2.416 -32.251  1.00  0.00     0.209 HD
ENDBRANCH  26  27
ENDBRANCH  11  26
BRANCH   7  29
HETATM   29  N   UNL     1      -8.173   6.500 -30.297  1.00  0.00    -0.305 N 
HETATM   30  C   UNL     1      -8.486   7.052 -29.075  1.00  0.00     0.232 C 
HETATM   31  O   UNL     1      -8.717   6.449 -28.031  1.00  0.00    -0.272 OA
HETATM   32  H   UNL     1      -8.110   7.124 -31.094  1.00  0.00     0.171 HD
BRANCH  30  33
HETATM   33  C   UNL     1      -8.440   8.575 -29.080  1.00  0.00     0.176 C 
BRANCH  33  34
HETATM   34  S   UNL     1      -7.844   9.265 -27.500  1.00  0.00    -0.164 SA
HETATM   35  C   UNL     1      -6.090   8.834 -27.652  1.00  0.00     0.090 C 
ENDBRANCH  33  34
ENDBRANCH  30  33
ENDBRANCH   7  29
BRANCH  13  36
HETATM   36  O   UNL     1      -6.029  -1.192 -34.186  1.00  0.00    -0.395 OA
HETATM   37  H   UNL     1      -6.934  -1.533 -34.087  1.00  0.00     0.210 HD
ENDBRANCH  13  36
TORSDOF 9
ENDMDL
