MODEL 1
REMARK VINA RESULT:      -9.9      0.000      0.000
REMARK  6 active torsions:
REMARK  status: ('A' for Active; 'I' for Inactive)
REMARK    1  A    between atoms: O_2  and  C_3 
REMARK    2  A    between atoms: C_5  and  C_6 
REMARK    3  A    between atoms: C_12  and  C_13 
REMARK       I    between atoms: C_13  and  N_14 
REMARK    4  A    between atoms: N_14  and  C_15 
REMARK    5  A    between atoms: C_17  and  O_18 
REMARK    6  A    between atoms: C_23  and  C_24 
ROOT
HETATM    1  C   UNL     1      -4.421  -0.587 -33.490  1.00  0.00     0.118 C 
HETATM    2  N   UNL     1      -5.869  -0.331 -33.456  1.00  0.00    -0.365 N 
HETATM    3  C   UNL     1      -6.256   0.977 -33.431  1.00  0.00     0.138 C 
HETATM    4  N   UNL     1      -5.387   1.957 -33.002  1.00  0.00    -0.240 N 
HETATM    5  N   UNL     1      -5.827   3.201 -33.246  1.00  0.00    -0.181 NA
HETATM    6  C   UNL     1      -7.070   3.007 -33.693  1.00  0.00     0.160 C 
HETATM    7  C   UNL     1      -7.415   1.637 -33.796  1.00  0.00     0.096 C 
HETATM    8  C   UNL     1      -4.022   1.722 -32.561  1.00  0.00     0.221 C 
HETATM    9  C   UNL     1      -3.754   0.218 -32.369  1.00  0.00     0.066 C 
HETATM   10  H   UNL     1      -6.374  -0.966 -34.079  1.00  0.00     0.161 HD
ENDROOT
BRANCH   7  11
HETATM   11  C   UNL     1      -8.691   1.111 -34.242  1.00  0.00     0.261 C 
HETATM   12  N   UNL     1      -9.777   1.670 -33.594  1.00  0.00    -0.323 N 
HETATM   13  H   UNL     1      -9.561   2.427 -32.954  1.00  0.00     0.169 HD
HETATM   14  O   UNL     1      -8.740   0.293 -35.155  1.00  0.00    -0.267 OA
BRANCH  12  15
HETATM   15  C   UNL     1     -11.143   1.412 -33.836  1.00  0.00     0.037 A 
HETATM   16  C   UNL     1     -11.806   0.263 -33.400  1.00  0.00     0.066 A 
HETATM   17  C   UNL     1     -13.156   0.083 -33.699  1.00  0.00     0.067 A 
HETATM   18  C   UNL     1     -13.862   1.031 -34.428  1.00  0.00     0.036 A 
HETATM   19  C   UNL     1     -13.211   2.183 -34.860  1.00  0.00     0.005 A 
HETATM   20  C   UNL     1     -11.859   2.376 -34.561  1.00  0.00     0.029 A 
BRANCH  17  21
HETATM   21  O   UNL     1     -13.830  -1.031 -33.288  1.00  0.00    -0.361 OA
HETATM   22  H   UNL     1     -13.995  -1.594 -34.064  1.00  0.00     0.217 HD
ENDBRANCH  17  21
ENDBRANCH  12  15
ENDBRANCH   7  11
BRANCH   1  23
HETATM   23  C   UNL     1      -4.138  -2.069 -33.366  1.00  0.00    -0.033 A 
HETATM   24  C   UNL     1      -4.750  -3.011 -34.210  1.00  0.00     0.046 A 
HETATM   25  C   UNL     1      -4.527  -4.383 -34.050  1.00  0.00     0.068 A 
HETATM   26  C   UNL     1      -3.669  -4.824 -33.044  1.00  0.00     0.037 A 
HETATM   27  C   UNL     1      -3.043  -3.900 -32.204  1.00  0.00     0.003 A 
HETATM   28  C   UNL     1      -3.276  -2.534 -32.362  1.00  0.00     0.009 A 
BRANCH  25  29
HETATM   29  O   UNL     1      -5.205  -5.179 -34.932  1.00  0.00    -0.356 OA
HETATM   30  C   UNL     1      -6.403  -4.646 -35.486  1.00  0.00     0.210 C 
ENDBRANCH  25  29
ENDBRANCH   1  23
BRANCH   8  31
HETATM   31  C   UNL     1      -3.721   2.460 -31.276  1.00  0.00     0.409 C 
HETATM   32  F   UNL     1      -4.746   2.401 -30.397  1.00  0.00    -0.169 F 
HETATM   33  F   UNL     1      -2.651   1.885 -30.662  1.00  0.00    -0.169 F 
HETATM   34  F   UNL     1      -3.395   3.756 -31.459  1.00  0.00    -0.169 F 
ENDBRANCH   8  31
TORSDOF 6
ENDMDL
MODEL 2
REMARK VINA RESULT:      -9.8      1.715      2.543
REMARK  6 active torsions:
REMARK  status: ('A' for Active; 'I' for Inactive)
REMARK    1  A    between atoms: O_2  and  C_3 
REMARK    2  A    between atoms: C_5  and  C_6 
REMARK    3  A    between atoms: C_12  and  C_13 
REMARK       I    between atoms: C_13  and  N_14 
REMARK    4  A    between atoms: N_14  and  C_15 
REMARK    5  A    between atoms: C_17  and  O_18 
REMARK    6  A    between atoms: C_23  and  C_24 
ROOT
HETATM    1  C   UNL     1      -6.353  -0.499 -34.229  1.00  0.00     0.118 C 
HETATM    2  N   UNL     1      -7.668  -0.276 -33.607  1.00  0.00    -0.365 N 
HETATM    3  C   UNL     1      -8.009   1.020 -33.353  1.00  0.00     0.138 C 
HETATM    4  N   UNL     1      -7.039   1.994 -33.250  1.00  0.00    -0.240 N 
HETATM    5  N   UNL     1      -7.537   3.239 -33.226  1.00  0.00    -0.181 NA
HETATM    6  C   UNL     1      -8.857   3.043 -33.152  1.00  0.00     0.160 C 
HETATM    7  C   UNL     1      -9.216   1.674 -33.188  1.00  0.00     0.096 C 
HETATM    8  C   UNL     1      -5.613   1.763 -33.403  1.00  0.00     0.221 C 
HETATM    9  C   UNL     1      -5.294   0.257 -33.421  1.00  0.00     0.066 C 
HETATM   10  H   UNL     1      -8.380  -0.887 -34.013  1.00  0.00     0.161 HD
ENDROOT
BRANCH   7  11
HETATM   11  C   UNL     1     -10.566   1.145 -33.120  1.00  0.00     0.261 C 
HETATM   12  N   UNL     1     -11.545   2.119 -33.199  1.00  0.00    -0.323 N 
HETATM   13  H   UNL     1     -11.212   3.061 -33.375  1.00  0.00     0.169 HD
HETATM   14  O   UNL     1     -10.756  -0.064 -33.059  1.00  0.00    -0.267 OA
BRANCH  12  15
HETATM   15  C   UNL     1     -12.942   1.926 -33.215  1.00  0.00     0.037 A 
HETATM   16  C   UNL     1     -13.608   1.139 -34.158  1.00  0.00     0.066 A 
HETATM   17  C   UNL     1     -14.996   1.018 -34.107  1.00  0.00     0.067 A 
HETATM   18  C   UNL     1     -15.738   1.667 -33.130  1.00  0.00     0.036 A 
HETATM   19  C   UNL     1     -15.083   2.446 -32.181  1.00  0.00     0.005 A 
HETATM   20  C   UNL     1     -13.691   2.571 -32.219  1.00  0.00     0.029 A 
BRANCH  17  21
HETATM   21  O   UNL     1     -15.673   0.257 -35.017  1.00  0.00    -0.361 OA
HETATM   22  H   UNL     1     -16.554   0.059 -34.657  1.00  0.00     0.217 HD
ENDBRANCH  17  21
ENDBRANCH  12  15
ENDBRANCH   7  11
BRANCH   1  23
HETATM   23  C   UNL     1      -6.048  -1.980 -34.314  1.00  0.00    -0.033 A 
HETATM   24  C   UNL     1      -4.850  -2.518 -33.815  1.00  0.00     0.046 A 
HETATM   25  C   UNL     1      -4.552  -3.878 -33.951  1.00  0.00     0.068 A 
HETATM   26  C   UNL     1      -5.469  -4.720 -34.579  1.00  0.00     0.037 A 
HETATM   27  C   UNL     1      -6.670  -4.204 -35.070  1.00  0.00     0.003 A 
HETATM   28  C   UNL     1      -6.957  -2.845 -34.941  1.00  0.00     0.009 A 
BRANCH  25  29
HETATM   29  O   UNL     1      -3.342  -4.253 -33.433  1.00  0.00    -0.356 OA
HETATM   30  C   UNL     1      -3.028  -3.776 -32.129  1.00  0.00     0.210 C 
ENDBRANCH  25  29
ENDBRANCH   1  23
BRANCH   8  31
HETATM   31  C   UNL     1      -4.823   2.437 -32.304  1.00  0.00     0.409 C 
HETATM   32  F   UNL     1      -3.563   1.955 -32.207  1.00  0.00    -0.169 F 
HETATM   33  F   UNL     1      -4.709   3.766 -32.575  1.00  0.00    -0.169 F 
HETATM   34  F   UNL     1      -5.403   2.352 -31.089  1.00  0.00    -0.169 F 
ENDBRANCH   8  31
TORSDOF 6
ENDMDL
MODEL 3
REMARK VINA RESULT:      -9.5      3.905      7.024
REMARK  6 active torsions:
REMARK  status: ('A' for Active; 'I' for Inactive)
REMARK    1  A    between atoms: O_2  and  C_3 
REMARK    2  A    between atoms: C_5  and  C_6 
REMARK    3  A    between atoms: C_12  and  C_13 
REMARK       I    between atoms: C_13  and  N_14 
REMARK    4  A    between atoms: N_14  and  C_15 
REMARK    5  A    between atoms: C_17  and  O_18 
REMARK    6  A    between atoms: C_23  and  C_24 
ROOT
HETATM    1  C   UNL     1      -6.564   0.197 -32.625  1.00  0.00     0.118 C 
HETATM    2  N   UNL     1      -6.122   1.447 -33.263  1.00  0.00    -0.365 N 
HETATM    3  C   UNL     1      -6.925   2.536 -33.088  1.00  0.00     0.138 C 
HETATM    4  N   UNL     1      -8.252   2.382 -32.749  1.00  0.00    -0.240 N 
HETATM    5  N   UNL     1      -8.846   3.531 -32.393  1.00  0.00    -0.181 NA
HETATM    6  C   UNL     1      -7.920   4.455 -32.666  1.00  0.00     0.160 C 
HETATM    7  C   UNL     1      -6.707   3.900 -33.140  1.00  0.00     0.096 C 
HETATM    8  C   UNL     1      -8.913   1.105 -32.540  1.00  0.00     0.221 C 
HETATM    9  C   UNL     1      -8.024  -0.061 -33.010  1.00  0.00     0.066 C 
HETATM   10  H   UNL     1      -5.113   1.577 -33.168  1.00  0.00     0.161 HD
ENDROOT
BRANCH   7  11
HETATM   11  C   UNL     1      -5.522   4.645 -33.525  1.00  0.00     0.261 C 
HETATM   12  N   UNL     1      -4.680   4.928 -32.465  1.00  0.00    -0.323 N 
HETATM   13  H   UNL     1      -4.942   4.516 -31.576  1.00  0.00     0.169 HD
HETATM   14  O   UNL     1      -5.315   4.917 -34.702  1.00  0.00    -0.267 OA
BRANCH  12  15
HETATM   15  C   UNL     1      -3.432   5.585 -32.517  1.00  0.00     0.037 A 
HETATM   16  C   UNL     1      -3.278   6.970 -32.416  1.00  0.00     0.066 A 
HETATM   17  C   UNL     1      -2.006   7.536 -32.494  1.00  0.00     0.067 A 
HETATM   18  C   UNL     1      -0.879   6.745 -32.673  1.00  0.00     0.036 A 
HETATM   19  C   UNL     1      -1.022   5.364 -32.767  1.00  0.00     0.005 A 
HETATM   20  C   UNL     1      -2.292   4.785 -32.684  1.00  0.00     0.029 A 
BRANCH  17  21
HETATM   21  O   UNL     1      -1.826   8.886 -32.400  1.00  0.00    -0.361 OA
HETATM   22  H   UNL     1      -2.524   9.250 -31.829  1.00  0.00     0.217 HD
ENDBRANCH  17  21
ENDBRANCH  12  15
ENDBRANCH   7  11
BRANCH   1  23
HETATM   23  C   UNL     1      -5.662  -0.953 -33.025  1.00  0.00    -0.033 A 
HETATM   24  C   UNL     1      -5.958  -1.776 -34.125  1.00  0.00     0.046 A 
HETATM   25  C   UNL     1      -5.149  -2.870 -34.451  1.00  0.00     0.068 A 
HETATM   26  C   UNL     1      -4.021  -3.141 -33.680  1.00  0.00     0.037 A 
HETATM   27  C   UNL     1      -3.705  -2.325 -32.590  1.00  0.00     0.003 A 
HETATM   28  C   UNL     1      -4.520  -1.241 -32.264  1.00  0.00     0.009 A 
BRANCH  25  29
HETATM   29  O   UNL     1      -5.572  -3.590 -35.535  1.00  0.00    -0.356 OA
HETATM   30  C   UNL     1      -6.569  -4.578 -35.299  1.00  0.00     0.210 C 
ENDBRANCH  25  29
ENDBRANCH   1  23
BRANCH   8  31
HETATM   31  C   UNL     1     -10.245   1.048 -33.253  1.00  0.00     0.409 C 
HETATM   32  F   UNL     1     -11.099   2.004 -32.824  1.00  0.00    -0.169 F 
HETATM   33  F   UNL     1     -10.058   1.264 -34.584  1.00  0.00    -0.169 F 
HETATM   34  F   UNL     1     -10.864  -0.146 -33.152  1.00  0.00    -0.169 F 
ENDBRANCH   8  31
TORSDOF 6
ENDMDL
MODEL 4
REMARK VINA RESULT:      -9.3      4.107      7.310
REMARK  6 active torsions:
REMARK  status: ('A' for Active; 'I' for Inactive)
REMARK    1  A    between atoms: O_2  and  C_3 
REMARK    2  A    between atoms: C_5  and  C_6 
REMARK    3  A    between atoms: C_12  and  C_13 
REMARK       I    between atoms: C_13  and  N_14 
REMARK    4  A    between atoms: N_14  and  C_15 
REMARK    5  A    between atoms: C_17  and  O_18 
REMARK    6  A    between atoms: C_23  and  C_24 
ROOT
HETATM    1  C   UNL     1      -6.973   0.487 -32.894  1.00  0.00     0.118 C 
HETATM    2  N   UNL     1      -6.417   1.706 -33.500  1.00  0.00    -0.365 N 
HETATM    3  C   UNL     1      -7.113   2.861 -33.292  1.00  0.00     0.138 C 
HETATM    4  N   UNL     1      -8.448   2.824 -32.950  1.00  0.00    -0.240 N 
HETATM    5  N   UNL     1      -8.930   4.014 -32.560  1.00  0.00    -0.181 NA
HETATM    6  C   UNL     1      -7.921   4.853 -32.812  1.00  0.00     0.160 C 
HETATM    7  C   UNL     1      -6.767   4.200 -33.309  1.00  0.00     0.096 C 
HETATM    8  C   UNL     1      -9.225   1.610 -32.771  1.00  0.00     0.221 C 
HETATM    9  C   UNL     1      -8.452   0.378 -33.277  1.00  0.00     0.066 C 
HETATM   10  H   UNL     1      -5.399   1.738 -33.407  1.00  0.00     0.161 HD
ENDROOT
BRANCH   7  11
HETATM   11  C   UNL     1      -5.518   4.840 -33.679  1.00  0.00     0.261 C 
HETATM   12  N   UNL     1      -4.774   5.267 -32.595  1.00  0.00    -0.323 N 
HETATM   13  H   UNL     1      -5.141   5.012 -31.685  1.00  0.00     0.169 HD
HETATM   14  O   UNL     1      -5.184   4.911 -34.857  1.00  0.00    -0.267 OA
BRANCH  12  15
HETATM   15  C   UNL     1      -3.500   5.872 -32.619  1.00  0.00     0.037 A 
HETATM   16  C   UNL     1      -3.281   7.233 -32.394  1.00  0.00     0.066 A 
HETATM   17  C   UNL     1      -1.987   7.750 -32.453  1.00  0.00     0.067 A 
HETATM   18  C   UNL     1      -0.901   6.932 -32.734  1.00  0.00     0.036 A 
HETATM   19  C   UNL     1      -1.108   5.573 -32.952  1.00  0.00     0.005 A 
HETATM   20  C   UNL     1      -2.401   5.044 -32.890  1.00  0.00     0.029 A 
BRANCH  17  21
HETATM   21  O   UNL     1      -1.744   9.076 -32.240  1.00  0.00    -0.361 OA
HETATM   22  H   UNL     1      -0.786   9.199 -32.129  1.00  0.00     0.217 HD
ENDBRANCH  17  21
ENDBRANCH  12  15
ENDBRANCH   7  11
BRANCH   1  23
HETATM   23  C   UNL     1      -6.185  -0.731 -33.329  1.00  0.00    -0.033 A 
HETATM   24  C   UNL     1      -4.988  -1.102 -32.695  1.00  0.00     0.046 A 
HETATM   25  C   UNL     1      -4.238  -2.196 -33.142  1.00  0.00     0.068 A 
HETATM   26  C   UNL     1      -4.695  -2.941 -34.227  1.00  0.00     0.037 A 
HETATM   27  C   UNL     1      -5.890  -2.594 -34.861  1.00  0.00     0.003 A 
HETATM   28  C   UNL     1      -6.629  -1.497 -34.417  1.00  0.00     0.009 A 
BRANCH  25  29
HETATM   29  O   UNL     1      -3.086  -2.425 -32.439  1.00  0.00    -0.356 OA
HETATM   30  C   UNL     1      -3.005  -3.653 -31.725  1.00  0.00     0.210 C 
ENDBRANCH  25  29
ENDBRANCH   1  23
BRANCH   8  31
HETATM   31  C   UNL     1     -10.559   1.698 -33.478  1.00  0.00     0.409 C 
HETATM   32  F   UNL     1     -10.450   2.226 -34.718  1.00  0.00    -0.169 F 
HETATM   33  F   UNL     1     -11.075   0.448 -33.634  1.00  0.00    -0.169 F 
HETATM   34  F   UNL     1     -11.487   2.402 -32.799  1.00  0.00    -0.169 F 
ENDBRANCH   8  31
TORSDOF 6
ENDMDL
MODEL 5
REMARK VINA RESULT:      -9.2      3.468      7.187
REMARK  6 active torsions:
REMARK  status: ('A' for Active; 'I' for Inactive)
REMARK    1  A    between atoms: O_2  and  C_3 
REMARK    2  A    between atoms: C_5  and  C_6 
REMARK    3  A    between atoms: C_12  and  C_13 
REMARK       I    between atoms: C_13  and  N_14 
REMARK    4  A    between atoms: N_14  and  C_15 
REMARK    5  A    between atoms: C_17  and  O_18 
REMARK    6  A    between atoms: C_23  and  C_24 
ROOT
HETATM    1  C   UNL     1      -5.243   4.377 -34.049  1.00  0.00     0.118 C 
HETATM    2  N   UNL     1      -5.570   3.092 -33.413  1.00  0.00    -0.365 N 
HETATM    3  C   UNL     1      -6.888   2.737 -33.400  1.00  0.00     0.138 C 
HETATM    4  N   UNL     1      -7.873   3.691 -33.541  1.00  0.00    -0.240 N 
HETATM    5  N   UNL     1      -9.094   3.169 -33.734  1.00  0.00    -0.181 NA
HETATM    6  C   UNL     1      -8.902   1.860 -33.552  1.00  0.00     0.160 C 
HETATM    7  C   UNL     1      -7.549   1.527 -33.300  1.00  0.00     0.096 C 
HETATM    8  C   UNL     1      -7.631   5.112 -33.723  1.00  0.00     0.221 C 
HETATM    9  C   UNL     1      -6.154   5.461 -33.463  1.00  0.00     0.066 C 
HETATM   10  H   UNL     1      -4.884   2.372 -33.653  1.00  0.00     0.161 HD
ENDROOT
BRANCH   7  11
HETATM   11  C   UNL     1      -7.031   0.193 -33.057  1.00  0.00     0.261 C 
HETATM   12  N   UNL     1      -6.641  -0.466 -34.209  1.00  0.00    -0.323 N 
HETATM   13  H   UNL     1      -6.685   0.081 -35.062  1.00  0.00     0.169 HD
HETATM   14  O   UNL     1      -6.918  -0.229 -31.912  1.00  0.00    -0.267 OA
BRANCH  12  15
HETATM   15  C   UNL     1      -6.052  -1.745 -34.303  1.00  0.00     0.037 A 
HETATM   16  C   UNL     1      -6.708  -2.867 -34.816  1.00  0.00     0.066 A 
HETATM   17  C   UNL     1      -6.053  -4.097 -34.856  1.00  0.00     0.067 A 
HETATM   18  C   UNL     1      -4.751  -4.232 -34.393  1.00  0.00     0.036 A 
HETATM   19  C   UNL     1      -4.087  -3.118 -33.887  1.00  0.00     0.005 A 
HETATM   20  C   UNL     1      -4.733  -1.879 -33.847  1.00  0.00     0.029 A 
BRANCH  17  21
HETATM   21  O   UNL     1      -6.669  -5.211 -35.350  1.00  0.00    -0.361 OA
HETATM   22  H   UNL     1      -7.521  -5.318 -34.895  1.00  0.00     0.217 HD
ENDBRANCH  17  21
ENDBRANCH  12  15
ENDBRANCH   7  11
BRANCH   1  23
HETATM   23  C   UNL     1      -3.778   4.708 -33.860  1.00  0.00    -0.033 A 
HETATM   24  C   UNL     1      -3.089   4.369 -32.683  1.00  0.00     0.046 A 
HETATM   25  C   UNL     1      -1.751   4.730 -32.494  1.00  0.00     0.068 A 
HETATM   26  C   UNL     1      -1.082   5.425 -33.499  1.00  0.00     0.037 A 
HETATM   27  C   UNL     1      -1.747   5.760 -34.681  1.00  0.00     0.003 A 
HETATM   28  C   UNL     1      -3.085   5.406 -34.860  1.00  0.00     0.009 A 
BRANCH  25  29
HETATM   29  O   UNL     1      -1.220   4.348 -31.292  1.00  0.00    -0.356 OA
HETATM   30  C   UNL     1      -0.642   5.373 -30.492  1.00  0.00     0.210 C 
ENDBRANCH  25  29
ENDBRANCH   1  23
BRANCH   8  31
HETATM   31  C   UNL     1      -8.516   5.943 -32.820  1.00  0.00     0.409 C 
HETATM   32  F   UNL     1      -8.687   5.376 -31.605  1.00  0.00    -0.169 F 
HETATM   33  F   UNL     1      -7.933   7.154 -32.604  1.00  0.00    -0.169 F 
HETATM   34  F   UNL     1      -9.732   6.202 -33.342  1.00  0.00    -0.169 F 
ENDBRANCH   8  31
TORSDOF 6
ENDMDL
MODEL 6
REMARK VINA RESULT:      -8.9      3.636      7.455
REMARK  6 active torsions:
REMARK  status: ('A' for Active; 'I' for Inactive)
REMARK    1  A    between atoms: O_2  and  C_3 
REMARK    2  A    between atoms: C_5  and  C_6 
REMARK    3  A    between atoms: C_12  and  C_13 
REMARK       I    between atoms: C_13  and  N_14 
REMARK    4  A    between atoms: N_14  and  C_15 
REMARK    5  A    between atoms: C_17  and  O_18 
REMARK    6  A    between atoms: C_23  and  C_24 
ROOT
HETATM    1  C   UNL     1      -5.300   4.937 -33.192  1.00  0.00     0.118 C 
HETATM    2  N   UNL     1      -5.382   3.474 -33.324  1.00  0.00    -0.365 N 
HETATM    3  C   UNL     1      -6.554   2.892 -32.939  1.00  0.00     0.138 C 
HETATM    4  N   UNL     1      -7.409   3.541 -32.074  1.00  0.00    -0.240 N 
HETATM    5  N   UNL     1      -8.609   2.951 -31.971  1.00  0.00    -0.181 NA
HETATM    6  C   UNL     1      -8.456   1.818 -32.661  1.00  0.00     0.160 C 
HETATM    7  C   UNL     1      -7.179   1.702 -33.261  1.00  0.00     0.096 C 
HETATM    8  C   UNL     1      -7.174   4.860 -31.509  1.00  0.00     0.221 C 
HETATM    9  C   UNL     1      -5.732   5.327 -31.775  1.00  0.00     0.066 C 
HETATM   10  H   UNL     1      -4.953   3.154 -34.195  1.00  0.00     0.161 HD
ENDROOT
BRANCH   7  11
HETATM   11  C   UNL     1      -6.713   0.587 -34.065  1.00  0.00     0.261 C 
HETATM   12  N   UNL     1      -6.395  -0.535 -33.321  1.00  0.00    -0.323 N 
HETATM   13  H   UNL     1      -6.600  -0.475 -32.329  1.00  0.00     0.169 HD
HETATM   14  O   UNL     1      -6.685   0.673 -35.287  1.00  0.00    -0.267 OA
BRANCH  12  15
HETATM   15  C   UNL     1      -5.968  -1.789 -33.807  1.00  0.00     0.037 A 
HETATM   16  C   UNL     1      -6.817  -2.716 -34.416  1.00  0.00     0.066 A 
HETATM   17  C   UNL     1      -6.311  -3.940 -34.853  1.00  0.00     0.067 A 
HETATM   18  C   UNL     1      -4.969  -4.259 -34.694  1.00  0.00     0.036 A 
HETATM   19  C   UNL     1      -4.114  -3.339 -34.095  1.00  0.00     0.005 A 
HETATM   20  C   UNL     1      -4.610  -2.106 -33.658  1.00  0.00     0.029 A 
BRANCH  17  21
HETATM   21  O   UNL     1      -7.117  -4.866 -35.450  1.00  0.00    -0.361 OA
HETATM   22  H   UNL     1      -6.588  -5.662 -35.631  1.00  0.00     0.217 HD
ENDBRANCH  17  21
ENDBRANCH  12  15
ENDBRANCH   7  11
BRANCH   1  23
HETATM   23  C   UNL     1      -3.903   5.424 -33.512  1.00  0.00    -0.033 A 
HETATM   24  C   UNL     1      -3.415   6.646 -33.018  1.00  0.00     0.046 A 
HETATM   25  C   UNL     1      -2.144   7.114 -33.366  1.00  0.00     0.068 A 
HETATM   26  C   UNL     1      -1.339   6.348 -34.207  1.00  0.00     0.037 A 
HETATM   27  C   UNL     1      -1.803   5.125 -34.697  1.00  0.00     0.003 A 
HETATM   28  C   UNL     1      -3.075   4.668 -34.355  1.00  0.00     0.009 A 
BRANCH  25  29
HETATM   29  O   UNL     1      -1.813   8.327 -32.824  1.00  0.00    -0.356 OA
HETATM   30  C   UNL     1      -2.301   8.598 -31.515  1.00  0.00     0.210 C 
ENDBRANCH  25  29
ENDBRANCH   1  23
BRANCH   8  31
HETATM   31  C   UNL     1      -7.450   4.881 -30.022  1.00  0.00     0.409 C 
HETATM   32  F   UNL     1      -6.728   5.826 -29.379  1.00  0.00    -0.169 F 
HETATM   33  F   UNL     1      -8.760   5.182 -29.808  1.00  0.00    -0.169 F 
HETATM   34  F   UNL     1      -7.235   3.697 -29.414  1.00  0.00    -0.169 F 
ENDBRANCH   8  31
TORSDOF 6
ENDMDL
MODEL 7
REMARK VINA RESULT:      -8.8      1.931      2.498
REMARK  6 active torsions:
REMARK  status: ('A' for Active; 'I' for Inactive)
REMARK    1  A    between atoms: O_2  and  C_3 
REMARK    2  A    between atoms: C_5  and  C_6 
REMARK    3  A    between atoms: C_12  and  C_13 
REMARK       I    between atoms: C_13  and  N_14 
REMARK    4  A    between atoms: N_14  and  C_15 
REMARK    5  A    between atoms: C_17  and  O_18 
REMARK    6  A    between atoms: C_23  and  C_24 
ROOT
HETATM    1  C   UNL     1      -6.154   1.043 -33.655  1.00  0.00     0.118 C 
HETATM    2  N   UNL     1      -7.554   1.019 -33.203  1.00  0.00    -0.365 N 
HETATM    3  C   UNL     1      -8.111   2.222 -32.880  1.00  0.00     0.138 C 
HETATM    4  N   UNL     1      -7.315   3.299 -32.555  1.00  0.00    -0.240 N 
HETATM    5  N   UNL     1      -7.989   4.456 -32.485  1.00  0.00    -0.181 NA
HETATM    6  C   UNL     1      -9.265   4.078 -32.612  1.00  0.00     0.160 C 
HETATM    7  C   UNL     1      -9.412   2.686 -32.824  1.00  0.00     0.096 C 
HETATM    8  C   UNL     1      -5.862   3.279 -32.530  1.00  0.00     0.221 C 
HETATM    9  C   UNL     1      -5.326   1.840 -32.642  1.00  0.00     0.066 C 
HETATM   10  H   UNL     1      -8.113   0.367 -33.758  1.00  0.00     0.161 HD
ENDROOT
BRANCH   7  11
HETATM   11  C   UNL     1     -10.668   1.978 -32.991  1.00  0.00     0.261 C 
HETATM   12  N   UNL     1     -11.781   2.764 -32.754  1.00  0.00    -0.323 N 
HETATM   13  H   UNL     1     -11.593   3.745 -32.576  1.00  0.00     0.169 HD
HETATM   14  O   UNL     1     -10.676   0.811 -33.368  1.00  0.00    -0.267 OA
BRANCH  12  15
HETATM   15  C   UNL     1     -13.134   2.389 -32.884  1.00  0.00     0.037 A 
HETATM   16  C   UNL     1     -13.600   1.476 -33.833  1.00  0.00     0.066 A 
HETATM   17  C   UNL     1     -14.961   1.175 -33.900  1.00  0.00     0.067 A 
HETATM   18  C   UNL     1     -15.870   1.770 -33.036  1.00  0.00     0.036 A 
HETATM   19  C   UNL     1     -15.414   2.674 -32.082  1.00  0.00     0.005 A 
HETATM   20  C   UNL     1     -14.051   2.979 -32.002  1.00  0.00     0.029 A 
BRANCH  17  21
HETATM   21  O   UNL     1     -15.445   0.289 -34.819  1.00  0.00    -0.361 OA
HETATM   22  H   UNL     1     -14.860  -0.488 -34.834  1.00  0.00     0.217 HD
ENDBRANCH  17  21
ENDBRANCH  12  15
ENDBRANCH   7  11
BRANCH   1  23
HETATM   23  C   UNL     1      -5.627  -0.365 -33.833  1.00  0.00    -0.033 A 
HETATM   24  C   UNL     1      -6.394  -1.369 -34.448  1.00  0.00     0.046 A 
HETATM   25  C   UNL     1      -5.920  -2.681 -34.556  1.00  0.00     0.068 A 
HETATM   26  C   UNL     1      -4.656  -2.995 -34.059  1.00  0.00     0.037 A 
HETATM   27  C   UNL     1      -3.876  -2.006 -33.456  1.00  0.00     0.003 A 
HETATM   28  C   UNL     1      -4.357  -0.702 -33.342  1.00  0.00     0.009 A 
BRANCH  25  29
HETATM   29  O   UNL     1      -6.784  -3.553 -35.161  1.00  0.00    -0.356 OA
HETATM   30  C   UNL     1      -6.303  -4.872 -35.396  1.00  0.00     0.210 C 
ENDBRANCH  25  29
ENDBRANCH   1  23
BRANCH   8  31
HETATM   31  C   UNL     1      -5.322   3.926 -31.274  1.00  0.00     0.409 C 
HETATM   32  F   UNL     1      -5.221   5.269 -31.391  1.00  0.00    -0.169 F 
HETATM   33  F   UNL     1      -6.173   3.691 -30.239  1.00  0.00    -0.169 F 
HETATM   34  F   UNL     1      -4.123   3.445 -30.889  1.00  0.00    -0.169 F 
ENDBRANCH   8  31
TORSDOF 6
ENDMDL
MODEL 8
REMARK VINA RESULT:      -8.6      1.795      2.695
REMARK  6 active torsions:
REMARK  status: ('A' for Active; 'I' for Inactive)
REMARK    1  A    between atoms: O_2  and  C_3 
REMARK    2  A    between atoms: C_5  and  C_6 
REMARK    3  A    between atoms: C_12  and  C_13 
REMARK       I    between atoms: C_13  and  N_14 
REMARK    4  A    between atoms: N_14  and  C_15 
REMARK    5  A    between atoms: C_17  and  O_18 
REMARK    6  A    between atoms: C_23  and  C_24 
ROOT
HETATM    1  C   UNL     1      -6.015   1.294 -33.584  1.00  0.00     0.118 C 
HETATM    2  N   UNL     1      -7.315   1.571 -32.954  1.00  0.00    -0.365 N 
HETATM    3  C   UNL     1      -7.523   2.849 -32.524  1.00  0.00     0.138 C 
HETATM    4  N   UNL     1      -6.458   3.686 -32.271  1.00  0.00    -0.240 N 
HETATM    5  N   UNL     1      -6.820   4.963 -32.077  1.00  0.00    -0.181 NA
HETATM    6  C   UNL     1      -8.155   4.905 -32.049  1.00  0.00     0.160 C 
HETATM    7  C   UNL     1      -8.658   3.602 -32.284  1.00  0.00     0.096 C 
HETATM    8  C   UNL     1      -5.060   3.324 -32.436  1.00  0.00     0.221 C 
HETATM    9  C   UNL     1      -4.904   1.809 -32.663  1.00  0.00     0.066 C 
HETATM   10  H   UNL     1      -8.077   1.105 -33.452  1.00  0.00     0.161 HD
ENDROOT
BRANCH   7  11
HETATM   11  C   UNL     1     -10.058   3.221 -32.309  1.00  0.00     0.261 C 
HETATM   12  N   UNL     1     -10.389   2.405 -33.375  1.00  0.00    -0.323 N 
HETATM   13  H   UNL     1      -9.612   2.107 -33.956  1.00  0.00     0.169 HD
HETATM   14  O   UNL     1     -10.812   3.572 -31.408  1.00  0.00    -0.267 OA
BRANCH  12  15
HETATM   15  C   UNL     1     -11.646   1.826 -33.649  1.00  0.00     0.037 A 
HETATM   16  C   UNL     1     -11.957   0.488 -33.394  1.00  0.00     0.066 A 
HETATM   17  C   UNL     1     -13.223  -0.004 -33.712  1.00  0.00     0.067 A 
HETATM   18  C   UNL     1     -14.189   0.815 -34.281  1.00  0.00     0.036 A 
HETATM   19  C   UNL     1     -13.890   2.150 -34.531  1.00  0.00     0.005 A 
HETATM   20  C   UNL     1     -12.626   2.656 -34.211  1.00  0.00     0.029 A 
BRANCH  17  21
HETATM   21  O   UNL     1     -13.554  -1.308 -33.476  1.00  0.00    -0.361 OA
HETATM   22  H   UNL     1     -12.744  -1.795 -33.249  1.00  0.00     0.217 HD
ENDBRANCH  17  21
ENDBRANCH  12  15
ENDBRANCH   7  11
BRANCH   1  23
HETATM   23  C   UNL     1      -5.867  -0.185 -33.874  1.00  0.00    -0.033 A 
HETATM   24  C   UNL     1      -4.830  -0.948 -33.314  1.00  0.00     0.046 A 
HETATM   25  C   UNL     1      -4.668  -2.301 -33.634  1.00  0.00     0.068 A 
HETATM   26  C   UNL     1      -5.563  -2.907 -34.513  1.00  0.00     0.037 A 
HETATM   27  C   UNL     1      -6.608  -2.166 -35.070  1.00  0.00     0.003 A 
HETATM   28  C   UNL     1      -6.759  -0.816 -34.755  1.00  0.00     0.009 A 
BRANCH  25  29
HETATM   29  O   UNL     1      -3.603  -2.909 -33.027  1.00  0.00    -0.356 OA
HETATM   30  C   UNL     1      -3.051  -2.250 -31.893  1.00  0.00     0.210 C 
ENDBRANCH  25  29
ENDBRANCH   1  23
BRANCH   8  31
HETATM   31  C   UNL     1      -4.234   3.747 -31.242  1.00  0.00     0.409 C 
HETATM   32  F   UNL     1      -3.857   5.043 -31.311  1.00  0.00    -0.169 F 
HETATM   33  F   UNL     1      -4.978   3.621 -30.108  1.00  0.00    -0.169 F 
HETATM   34  F   UNL     1      -3.132   2.995 -31.051  1.00  0.00    -0.169 F 
ENDBRANCH   8  31
TORSDOF 6
ENDMDL
MODEL 9
REMARK VINA RESULT:      -8.4      5.431      7.720
REMARK  6 active torsions:
REMARK  status: ('A' for Active; 'I' for Inactive)
REMARK    1  A    between atoms: O_2  and  C_3 
REMARK    2  A    between atoms: C_5  and  C_6 
REMARK    3  A    between atoms: C_12  and  C_13 
REMARK       I    between atoms: C_13  and  N_14 
REMARK    4  A    between atoms: N_14  and  C_15 
REMARK    5  A    between atoms: C_17  and  O_18 
REMARK    6  A    between atoms: C_23  and  C_24 
ROOT
HETATM    1  C   UNL     1      -9.801   1.570 -33.380  1.00  0.00     0.118 C 
HETATM    2  N   UNL     1      -9.866   2.748 -34.259  1.00  0.00    -0.365 N 
HETATM    3  C   UNL     1     -11.022   3.472 -34.222  1.00  0.00     0.138 C 
HETATM    4  N   UNL     1     -12.192   2.902 -33.767  1.00  0.00    -0.240 N 
HETATM    5  N   UNL     1     -13.178   3.792 -33.579  1.00  0.00    -0.181 NA
HETATM    6  C   UNL     1     -12.672   4.924 -34.075  1.00  0.00     0.160 C 
HETATM    7  C   UNL     1     -11.338   4.782 -34.530  1.00  0.00     0.096 C 
HETATM    8  C   UNL     1     -12.319   1.536 -33.289  1.00  0.00     0.221 C 
HETATM    9  C   UNL     1     -11.054   0.718 -33.607  1.00  0.00     0.066 C 
HETATM   10  H   UNL     1      -8.982   3.261 -34.260  1.00  0.00     0.161 HD
ENDROOT
BRANCH   7  11
HETATM   11  C   UNL     1     -10.524   5.827 -35.123  1.00  0.00     0.261 C 
HETATM   12  N   UNL     1     -11.231   6.980 -35.414  1.00  0.00    -0.323 N 
HETATM   13  H   UNL     1     -12.198   6.988 -35.108  1.00  0.00     0.169 HD
HETATM   14  O   UNL     1      -9.318   5.665 -35.271  1.00  0.00    -0.267 OA
BRANCH  12  15
HETATM   15  C   UNL     1     -10.721   8.184 -35.943  1.00  0.00     0.037 A 
HETATM   16  C   UNL     1     -10.378   8.360 -37.285  1.00  0.00     0.066 A 
HETATM   17  C   UNL     1      -9.865   9.582 -37.718  1.00  0.00     0.067 A 
HETATM   18  C   UNL     1      -9.686  10.638 -36.834  1.00  0.00     0.036 A 
HETATM   19  C   UNL     1     -10.033  10.475 -35.496  1.00  0.00     0.005 A 
HETATM   20  C   UNL     1     -10.554   9.255 -35.053  1.00  0.00     0.029 A 
BRANCH  17  21
HETATM   21  O   UNL     1      -9.518   9.782 -39.023  1.00  0.00    -0.361 OA
HETATM   22  H   UNL     1     -10.329   9.944 -39.535  1.00  0.00     0.217 HD
ENDBRANCH  17  21
ENDBRANCH  12  15
ENDBRANCH   7  11
BRANCH   1  23
HETATM   23  C   UNL     1      -8.531   0.786 -33.633  1.00  0.00    -0.033 A 
HETATM   24  C   UNL     1      -7.728   0.319 -32.580  1.00  0.00     0.046 A 
HETATM   25  C   UNL     1      -6.526  -0.355 -32.825  1.00  0.00     0.068 A 
HETATM   26  C   UNL     1      -6.125  -0.581 -34.140  1.00  0.00     0.037 A 
HETATM   27  C   UNL     1      -6.918  -0.134 -35.200  1.00  0.00     0.003 A 
HETATM   28  C   UNL     1      -8.109   0.546 -34.950  1.00  0.00     0.009 A 
BRANCH  25  29
HETATM   29  O   UNL     1      -5.843  -0.733 -31.701  1.00  0.00    -0.356 OA
HETATM   30  C   UNL     1      -4.422  -0.693 -31.772  1.00  0.00     0.210 C 
ENDBRANCH  25  29
ENDBRANCH   1  23
BRANCH   8  31
HETATM   31  C   UNL     1     -13.530   0.852 -33.884  1.00  0.00     0.409 C 
HETATM   32  F   UNL     1     -13.392  -0.492 -33.925  1.00  0.00    -0.169 F 
HETATM   33  F   UNL     1     -14.620   1.105 -33.109  1.00  0.00    -0.169 F 
HETATM   34  F   UNL     1     -13.842   1.283 -35.122  1.00  0.00    -0.169 F 
ENDBRANCH   8  31
TORSDOF 6
ENDMDL
MODEL 10
REMARK VINA RESULT:      -8.3      3.666      7.793
REMARK  6 active torsions:
REMARK  status: ('A' for Active; 'I' for Inactive)
REMARK    1  A    between atoms: O_2  and  C_3 
REMARK    2  A    between atoms: C_5  and  C_6 
REMARK    3  A    between atoms: C_12  and  C_13 
REMARK       I    between atoms: C_13  and  N_14 
REMARK    4  A    between atoms: N_14  and  C_15 
REMARK    5  A    between atoms: C_17  and  O_18 
REMARK    6  A    between atoms: C_23  and  C_24 
ROOT
HETATM    1  C   UNL     1      -4.703   4.311 -33.746  1.00  0.00     0.118 C 
HETATM    2  N   UNL     1      -5.018   3.072 -33.018  1.00  0.00    -0.365 N 
HETATM    3  C   UNL     1      -6.291   2.599 -33.144  1.00  0.00     0.138 C 
HETATM    4  N   UNL     1      -7.316   3.438 -33.526  1.00  0.00    -0.240 N 
HETATM    5  N   UNL     1      -8.452   2.788 -33.822  1.00  0.00    -0.181 NA
HETATM    6  C   UNL     1      -8.188   1.527 -33.468  1.00  0.00     0.160 C 
HETATM    7  C   UNL     1      -6.863   1.349 -32.998  1.00  0.00     0.096 C 
HETATM    8  C   UNL     1      -7.163   4.850 -33.833  1.00  0.00     0.221 C 
HETATM    9  C   UNL     1      -5.771   5.359 -33.417  1.00  0.00     0.066 C 
HETATM   10  H   UNL     1      -4.250   2.399 -33.079  1.00  0.00     0.161 HD
ENDROOT
BRANCH   7  11
HETATM   11  C   UNL     1      -6.283   0.101 -32.537  1.00  0.00     0.261 C 
HETATM   12  N   UNL     1      -5.541  -0.553 -33.503  1.00  0.00    -0.323 N 
HETATM   13  H   UNL     1      -5.422  -0.052 -34.377  1.00  0.00     0.169 HD
HETATM   14  O   UNL     1      -6.425  -0.254 -31.372  1.00  0.00    -0.267 OA
BRANCH  12  15
HETATM   15  C   UNL     1      -4.812  -1.752 -33.353  1.00  0.00     0.037 A 
HETATM   16  C   UNL     1      -3.913  -1.990 -32.311  1.00  0.00     0.066 A 
HETATM   17  C   UNL     1      -3.223  -3.201 -32.251  1.00  0.00     0.067 A 
HETATM   18  C   UNL     1      -3.413  -4.183 -33.213  1.00  0.00     0.036 A 
HETATM   19  C   UNL     1      -4.313  -3.958 -34.251  1.00  0.00     0.005 A 
HETATM   20  C   UNL     1      -5.014  -2.750 -34.318  1.00  0.00     0.029 A 
BRANCH  17  21
HETATM   21  O   UNL     1      -2.337  -3.460 -31.245  1.00  0.00    -0.361 OA
HETATM   22  H   UNL     1      -2.823  -3.474 -30.403  1.00  0.00     0.217 HD
ENDBRANCH  17  21
ENDBRANCH  12  15
ENDBRANCH   7  11
BRANCH   1  23
HETATM   23  C   UNL     1      -3.311   4.795 -33.398  1.00  0.00    -0.033 A 
HETATM   24  C   UNL     1      -2.913   5.007 -32.068  1.00  0.00     0.046 A 
HETATM   25  C   UNL     1      -1.644   5.509 -31.760  1.00  0.00     0.068 A 
HETATM   26  C   UNL     1      -0.750   5.789 -32.792  1.00  0.00     0.037 A 
HETATM   27  C   UNL     1      -1.125   5.572 -34.120  1.00  0.00     0.003 A 
HETATM   28  C   UNL     1      -2.395   5.081 -34.422  1.00  0.00     0.009 A 
BRANCH  25  29
HETATM   29  O   UNL     1      -1.405   5.681 -30.423  1.00  0.00    -0.356 OA
HETATM   30  C   UNL     1      -0.942   6.963 -30.015  1.00  0.00     0.210 C 
ENDBRANCH  25  29
ENDBRANCH   1  23
BRANCH   8  31
HETATM   31  C   UNL     1      -8.231   5.682 -33.160  1.00  0.00     0.409 C 
HETATM   32  F   UNL     1      -9.310   5.872 -33.952  1.00  0.00    -0.169 F 
HETATM   33  F   UNL     1      -8.677   5.036 -32.048  1.00  0.00    -0.169 F 
HETATM   34  F   UNL     1      -7.796   6.888 -32.742  1.00  0.00    -0.169 F 
ENDBRANCH   8  31
TORSDOF 6
ENDMDL
