MODEL 1
REMARK VINA RESULT:      -8.9      0.000      0.000
REMARK  6 active torsions:
REMARK  status: ('A' for Active; 'I' for Inactive)
REMARK    1  A    between atoms: C_4  and  C_5 
REMARK    2  A    between atoms: C_9  and  N_10 
REMARK       I    between atoms: N_10  and  C_11 
REMARK    3  A    between atoms: C_11  and  C_12 
REMARK    4  A    between atoms: C_12  and  C_13 
REMARK    5  A    between atoms: C_13  and  C_14 
REMARK    6  A    between atoms: C_13  and  C_20 
ROOT
HETATM    1  N   UNL     1      -7.966   1.633 -33.843  1.00  0.00    -0.312 N 
HETATM    2  C   UNL     1      -7.316   0.703 -34.626  1.00  0.00     0.224 C 
HETATM    3  O   UNL     1      -7.870   0.080 -35.537  1.00  0.00    -0.273 OA
HETATM    4  H   UNL     1      -7.462   2.154 -33.137  1.00  0.00     0.170 HD
ENDROOT
BRANCH   1   5
HETATM    5  C   UNL     1      -9.306   1.931 -34.000  1.00  0.00     0.132 A 
HETATM    6  N   UNL     1      -9.775   3.031 -34.667  1.00  0.00    -0.261 N 
HETATM    7  N   UNL     1     -11.115   3.121 -34.687  1.00  0.00    -0.170 NA
HETATM    8  H   UNL     1      -9.212   3.746 -35.119  1.00  0.00     0.191 HD
HETATM    9  C   UNL     1     -11.517   2.025 -34.028  1.00  0.00     0.120 A 
HETATM   10  C   UNL     1     -10.419   1.240 -33.566  1.00  0.00     0.017 A 
HETATM   11  C   UNL     1     -10.478  -0.036 -32.812  1.00  0.00     0.055 C 
BRANCH   9  12
HETATM   12  C   UNL     1     -12.966   1.703 -33.838  1.00  0.00     0.106 A 
HETATM   13  O   UNL     1     -13.791   2.312 -32.930  1.00  0.00    -0.313 OA
HETATM   14  C   UNL     1     -15.020   1.736 -33.043  1.00  0.00     0.050 A 
HETATM   15  C   UNL     1     -16.065   2.242 -32.132  1.00  0.00     0.076 C 
HETATM   16  C   UNL     1     -15.004   0.771 -34.025  1.00  0.00     0.035 A 
HETATM   17  C   UNL     1     -13.684   0.749 -34.534  1.00  0.00     0.042 A 
ENDBRANCH   9  12
ENDBRANCH   1   5
BRANCH   2  18
HETATM   18  C   UNL     1      -5.865   0.390 -34.265  1.00  0.00     0.116 C 
BRANCH  18  19
HETATM   19  C   UNL     1      -5.571  -0.736 -33.249  1.00  0.00     0.049 C 
BRANCH  19  20
HETATM   20  C   UNL     1      -5.548  -2.168 -33.821  1.00  0.00    -0.050 A 
HETATM   21  C   UNL     1      -6.661  -2.786 -34.420  1.00  0.00     0.008 A 
HETATM   22  C   UNL     1      -6.589  -4.095 -34.912  1.00  0.00     0.001 A 
HETATM   23  C   UNL     1      -5.397  -4.806 -34.842  1.00  0.00     0.000 A 
HETATM   24  C   UNL     1      -4.268  -4.202 -34.299  1.00  0.00     0.001 A 
HETATM   25  C   UNL     1      -4.342  -2.896 -33.808  1.00  0.00     0.008 A 
ENDBRANCH  19  20
BRANCH  19  26
HETATM   26  C   UNL     1      -6.378  -0.630 -31.954  1.00  0.00    -0.027 C 
HETATM   27  C   UNL     1      -6.084   0.087 -30.859  1.00  0.00     0.007 C 
ENDBRANCH  19  26
ENDBRANCH  18  19
ENDBRANCH   2  18
TORSDOF 6
ENDMDL
MODEL 2
REMARK VINA RESULT:      -8.4      1.520      2.007
REMARK  6 active torsions:
REMARK  status: ('A' for Active; 'I' for Inactive)
REMARK    1  A    between atoms: C_4  and  C_5 
REMARK    2  A    between atoms: C_9  and  N_10 
REMARK       I    between atoms: N_10  and  C_11 
REMARK    3  A    between atoms: C_11  and  C_12 
REMARK    4  A    between atoms: C_12  and  C_13 
REMARK    5  A    between atoms: C_13  and  C_14 
REMARK    6  A    between atoms: C_13  and  C_20 
ROOT
HETATM    1  N   UNL     1      -9.164   1.490 -34.591  1.00  0.00    -0.312 N 
HETATM    2  C   UNL     1      -8.602   0.277 -34.251  1.00  0.00     0.224 C 
HETATM    3  O   UNL     1      -8.910  -0.350 -33.233  1.00  0.00    -0.273 OA
HETATM    4  H   UNL     1      -8.915   1.947 -35.458  1.00  0.00     0.170 HD
ENDROOT
BRANCH   1   5
HETATM    5  C   UNL     1     -10.108   2.119 -33.803  1.00  0.00     0.132 A 
HETATM    6  N   UNL     1      -9.812   2.838 -32.676  1.00  0.00    -0.261 N 
HETATM    7  N   UNL     1     -10.890   3.355 -32.065  1.00  0.00    -0.170 NA
HETATM    8  H   UNL     1      -8.886   2.995 -32.289  1.00  0.00     0.191 HD
HETATM    9  C   UNL     1     -11.912   2.972 -32.844  1.00  0.00     0.120 A 
HETATM   10  C   UNL     1     -11.479   2.184 -33.952  1.00  0.00     0.017 A 
HETATM   11  C   UNL     1     -12.321   1.595 -35.023  1.00  0.00     0.055 C 
BRANCH   9  12
HETATM   12  C   UNL     1     -13.325   3.363 -32.546  1.00  0.00     0.106 A 
HETATM   13  O   UNL     1     -14.378   2.492 -32.457  1.00  0.00    -0.313 OA
HETATM   14  C   UNL     1     -15.495   3.224 -32.196  1.00  0.00     0.050 A 
HETATM   15  C   UNL     1     -16.758   2.470 -32.076  1.00  0.00     0.076 C 
HETATM   16  C   UNL     1     -15.176   4.560 -32.100  1.00  0.00     0.035 A 
HETATM   17  C   UNL     1     -13.782   4.649 -32.327  1.00  0.00     0.042 A 
ENDBRANCH   9  12
ENDBRANCH   1   5
BRANCH   2  18
HETATM   18  C   UNL     1      -7.487  -0.244 -35.155  1.00  0.00     0.116 C 
BRANCH  18  19
HETATM   19  C   UNL     1      -6.138  -0.652 -34.522  1.00  0.00     0.049 C 
BRANCH  19  20
HETATM   20  C   UNL     1      -5.828  -2.163 -34.518  1.00  0.00    -0.050 A 
HETATM   21  C   UNL     1      -6.763  -3.152 -34.874  1.00  0.00     0.008 A 
HETATM   22  C   UNL     1      -6.433  -4.512 -34.839  1.00  0.00     0.001 A 
HETATM   23  C   UNL     1      -5.153  -4.914 -34.475  1.00  0.00     0.000 A 
HETATM   24  C   UNL     1      -4.195  -3.956 -34.165  1.00  0.00     0.001 A 
HETATM   25  C   UNL     1      -4.526  -2.599 -34.200  1.00  0.00     0.008 A 
ENDBRANCH  19  20
BRANCH  19  26
HETATM   26  C   UNL     1      -5.858   0.012 -33.173  1.00  0.00    -0.027 C 
HETATM   27  C   UNL     1      -5.267   1.195 -32.947  1.00  0.00     0.007 C 
ENDBRANCH  19  26
ENDBRANCH  18  19
ENDBRANCH   2  18
TORSDOF 6
ENDMDL
MODEL 3
REMARK VINA RESULT:      -8.3      5.100      7.954
REMARK  6 active torsions:
REMARK  status: ('A' for Active; 'I' for Inactive)
REMARK    1  A    between atoms: C_4  and  C_5 
REMARK    2  A    between atoms: C_9  and  N_10 
REMARK       I    between atoms: N_10  and  C_11 
REMARK    3  A    between atoms: C_11  and  C_12 
REMARK    4  A    between atoms: C_12  and  C_13 
REMARK    5  A    between atoms: C_13  and  C_14 
REMARK    6  A    between atoms: C_13  and  C_20 
ROOT
HETATM    1  N   UNL     1      -5.285   1.770 -31.744  1.00  0.00    -0.312 N 
HETATM    2  C   UNL     1      -4.991   0.459 -32.055  1.00  0.00     0.224 C 
HETATM    3  O   UNL     1      -3.846   0.059 -32.286  1.00  0.00    -0.273 OA
HETATM    4  H   UNL     1      -6.232   2.045 -31.517  1.00  0.00     0.170 HD
ENDROOT
BRANCH   1   5
HETATM    5  C   UNL     1      -4.320   2.756 -31.688  1.00  0.00     0.132 A 
HETATM    6  N   UNL     1      -3.046   2.557 -31.227  1.00  0.00    -0.261 N 
HETATM    7  N   UNL     1      -2.281   3.661 -31.258  1.00  0.00    -0.170 NA
HETATM    8  H   UNL     1      -2.661   1.684 -30.878  1.00  0.00     0.191 HD
HETATM    9  C   UNL     1      -3.089   4.594 -31.781  1.00  0.00     0.120 A 
HETATM   10  C   UNL     1      -4.390   4.081 -32.067  1.00  0.00     0.017 A 
HETATM   11  C   UNL     1      -5.538   4.814 -32.656  1.00  0.00     0.055 C 
BRANCH   9  12
HETATM   12  C   UNL     1      -2.625   5.994 -32.029  1.00  0.00     0.106 A 
HETATM   13  O   UNL     1      -2.857   7.056 -31.195  1.00  0.00    -0.313 OA
HETATM   14  C   UNL     1      -2.301   8.157 -31.769  1.00  0.00     0.050 A 
HETATM   15  C   UNL     1      -2.453   9.427 -31.031  1.00  0.00     0.076 C 
HETATM   16  C   UNL     1      -1.697   7.820 -32.959  1.00  0.00     0.035 A 
HETATM   17  C   UNL     1      -1.907   6.430 -33.126  1.00  0.00     0.042 A 
ENDBRANCH   9  12
ENDBRANCH   1   5
BRANCH   2  18
HETATM   18  C   UNL     1      -6.173  -0.498 -32.195  1.00  0.00     0.116 C 
BRANCH  18  19
HETATM   19  C   UNL     1      -6.601  -0.960 -33.606  1.00  0.00     0.049 C 
BRANCH  19  20
HETATM   20  C   UNL     1      -6.063  -2.335 -34.055  1.00  0.00    -0.050 A 
HETATM   21  C   UNL     1      -4.733  -2.750 -33.868  1.00  0.00     0.008 A 
HETATM   22  C   UNL     1      -4.293  -4.005 -34.307  1.00  0.00     0.001 A 
HETATM   23  C   UNL     1      -5.180  -4.883 -34.919  1.00  0.00     0.000 A 
HETATM   24  C   UNL     1      -6.512  -4.518 -35.072  1.00  0.00     0.001 A 
HETATM   25  C   UNL     1      -6.949  -3.265 -34.633  1.00  0.00     0.008 A 
ENDBRANCH  19  20
BRANCH  19  26
HETATM   26  C   UNL     1      -6.448   0.114 -34.683  1.00  0.00    -0.027 C 
HETATM   27  C   UNL     1      -7.366   1.003 -35.093  1.00  0.00     0.007 C 
ENDBRANCH  19  26
ENDBRANCH  18  19
ENDBRANCH   2  18
TORSDOF 6
ENDMDL
MODEL 4
REMARK VINA RESULT:      -8.3      4.435      7.487
REMARK  6 active torsions:
REMARK  status: ('A' for Active; 'I' for Inactive)
REMARK    1  A    between atoms: C_4  and  C_5 
REMARK    2  A    between atoms: C_9  and  N_10 
REMARK       I    between atoms: N_10  and  C_11 
REMARK    3  A    between atoms: C_11  and  C_12 
REMARK    4  A    between atoms: C_12  and  C_13 
REMARK    5  A    between atoms: C_13  and  C_14 
REMARK    6  A    between atoms: C_13  and  C_20 
ROOT
HETATM    1  N   UNL     1      -6.483   1.852 -33.330  1.00  0.00    -0.312 N 
HETATM    2  C   UNL     1      -6.917   1.080 -34.387  1.00  0.00     0.224 C 
HETATM    3  O   UNL     1      -6.857   1.449 -35.563  1.00  0.00    -0.273 OA
HETATM    4  H   UNL     1      -6.510   1.492 -32.385  1.00  0.00     0.170 HD
ENDROOT
BRANCH   1   5
HETATM    5  C   UNL     1      -5.963   3.120 -33.499  1.00  0.00     0.132 A 
HETATM    6  N   UNL     1      -6.649   4.162 -34.063  1.00  0.00    -0.261 N 
HETATM    7  N   UNL     1      -5.942   5.302 -34.132  1.00  0.00    -0.170 NA
HETATM    8  H   UNL     1      -7.601   4.135 -34.418  1.00  0.00     0.191 HD
HETATM    9  C   UNL     1      -4.768   4.982 -33.570  1.00  0.00     0.120 A 
HETATM   10  C   UNL     1      -4.722   3.617 -33.157  1.00  0.00     0.017 A 
HETATM   11  C   UNL     1      -3.596   2.913 -32.493  1.00  0.00     0.055 C 
BRANCH   9  12
HETATM   12  C   UNL     1      -3.669   5.984 -33.406  1.00  0.00     0.106 A 
HETATM   13  O   UNL     1      -3.548   6.850 -32.351  1.00  0.00    -0.313 OA
HETATM   14  C   UNL     1      -2.442   7.612 -32.571  1.00  0.00     0.050 A 
HETATM   15  C   UNL     1      -2.136   8.631 -31.548  1.00  0.00     0.076 C 
HETATM   16  C   UNL     1      -1.835   7.240 -33.749  1.00  0.00     0.035 A 
HETATM   17  C   UNL     1      -2.625   6.195 -34.286  1.00  0.00     0.042 A 
ENDBRANCH   9  12
ENDBRANCH   1   5
BRANCH   2  18
HETATM   18  C   UNL     1      -7.577  -0.253 -34.042  1.00  0.00     0.116 C 
BRANCH  18  19
HETATM   19  C   UNL     1      -6.688  -1.445 -33.622  1.00  0.00     0.049 C 
BRANCH  19  20
HETATM   20  C   UNL     1      -5.398  -1.084 -32.856  1.00  0.00    -0.050 A 
HETATM   21  C   UNL     1      -4.113  -1.141 -33.424  1.00  0.00     0.008 A 
HETATM   22  C   UNL     1      -2.973  -0.815 -32.679  1.00  0.00     0.001 A 
HETATM   23  C   UNL     1      -3.094  -0.397 -31.359  1.00  0.00     0.000 A 
HETATM   24  C   UNL     1      -4.357  -0.285 -30.787  1.00  0.00     0.001 A 
HETATM   25  C   UNL     1      -5.493  -0.611 -31.532  1.00  0.00     0.008 A 
ENDBRANCH  19  20
BRANCH  19  26
HETATM   26  C   UNL     1      -6.446  -2.462 -34.738  1.00  0.00    -0.027 C 
HETATM   27  C   UNL     1      -6.819  -3.750 -34.770  1.00  0.00     0.007 C 
ENDBRANCH  19  26
ENDBRANCH  18  19
ENDBRANCH   2  18
TORSDOF 6
ENDMDL
MODEL 5
REMARK VINA RESULT:      -8.1      5.003      8.489
REMARK  6 active torsions:
REMARK  status: ('A' for Active; 'I' for Inactive)
REMARK    1  A    between atoms: C_4  and  C_5 
REMARK    2  A    between atoms: C_9  and  N_10 
REMARK       I    between atoms: N_10  and  C_11 
REMARK    3  A    between atoms: C_11  and  C_12 
REMARK    4  A    between atoms: C_12  and  C_13 
REMARK    5  A    between atoms: C_13  and  C_14 
REMARK    6  A    between atoms: C_13  and  C_20 
ROOT
HETATM    1  N   UNL     1      -5.829   3.263 -34.008  1.00  0.00    -0.312 N 
HETATM    2  C   UNL     1      -6.938   3.215 -33.190  1.00  0.00     0.224 C 
HETATM    3  O   UNL     1      -7.083   3.941 -32.203  1.00  0.00    -0.273 OA
HETATM    4  H   UNL     1      -5.772   2.680 -34.833  1.00  0.00     0.170 HD
ENDROOT
BRANCH   1   5
HETATM    5  C   UNL     1      -4.771   4.120 -33.776  1.00  0.00     0.132 A 
HETATM    6  N   UNL     1      -4.590   5.310 -34.428  1.00  0.00    -0.261 N 
HETATM    7  N   UNL     1      -3.487   5.975 -34.046  1.00  0.00    -0.170 NA
HETATM    8  H   UNL     1      -5.194   5.702 -35.145  1.00  0.00     0.191 HD
HETATM    9  C   UNL     1      -2.956   5.191 -33.097  1.00  0.00     0.120 A 
HETATM   10  C   UNL     1      -3.721   4.004 -32.888  1.00  0.00     0.017 A 
HETATM   11  C   UNL     1      -3.446   2.914 -31.919  1.00  0.00     0.055 C 
BRANCH   9  12
HETATM   12  C   UNL     1      -1.710   5.571 -32.361  1.00  0.00     0.106 A 
HETATM   13  O   UNL     1      -0.961   4.718 -31.596  1.00  0.00    -0.313 OA
HETATM   14  C   UNL     1       0.074   5.434 -31.077  1.00  0.00     0.050 A 
HETATM   15  C   UNL     1       1.005   4.697 -30.200  1.00  0.00     0.076 C 
HETATM   16  C   UNL     1       0.013   6.739 -31.510  1.00  0.00     0.035 A 
HETATM   17  C   UNL     1      -1.135   6.828 -32.334  1.00  0.00     0.042 A 
ENDBRANCH   9  12
ENDBRANCH   1   5
BRANCH   2  18
HETATM   18  C   UNL     1      -7.976   2.138 -33.500  1.00  0.00     0.116 C 
BRANCH  18  19
HETATM   19  C   UNL     1      -7.930   0.805 -32.721  1.00  0.00     0.049 C 
BRANCH  19  20
HETATM   20  C   UNL     1      -6.875  -0.215 -33.196  1.00  0.00    -0.050 A 
HETATM   21  C   UNL     1      -5.571  -0.287 -32.675  1.00  0.00     0.008 A 
HETATM   22  C   UNL     1      -4.647  -1.225 -33.152  1.00  0.00     0.001 A 
HETATM   23  C   UNL     1      -5.015  -2.130 -34.141  1.00  0.00     0.000 A 
HETATM   24  C   UNL     1      -6.312  -2.114 -34.639  1.00  0.00     0.001 A 
HETATM   25  C   UNL     1      -7.233  -1.177 -34.162  1.00  0.00     0.008 A 
ENDBRANCH  19  20
BRANCH  19  26
HETATM   26  C   UNL     1      -9.304   0.171 -32.494  1.00  0.00    -0.027 C 
HETATM   27  C   UNL     1     -10.440   0.409 -33.167  1.00  0.00     0.007 C 
ENDBRANCH  19  26
ENDBRANCH  18  19
ENDBRANCH   2  18
TORSDOF 6
ENDMDL
MODEL 6
REMARK VINA RESULT:      -8.1      5.541      8.760
REMARK  6 active torsions:
REMARK  status: ('A' for Active; 'I' for Inactive)
REMARK    1  A    between atoms: C_4  and  C_5 
REMARK    2  A    between atoms: C_9  and  N_10 
REMARK       I    between atoms: N_10  and  C_11 
REMARK    3  A    between atoms: C_11  and  C_12 
REMARK    4  A    between atoms: C_12  and  C_13 
REMARK    5  A    between atoms: C_13  and  C_14 
REMARK    6  A    between atoms: C_13  and  C_20 
ROOT
HETATM    1  N   UNL     1      -5.208   3.316 -33.051  1.00  0.00    -0.312 N 
HETATM    2  C   UNL     1      -5.583   2.045 -32.670  1.00  0.00     0.224 C 
HETATM    3  O   UNL     1      -5.264   1.541 -31.590  1.00  0.00    -0.273 OA
HETATM    4  H   UNL     1      -5.531   3.707 -33.927  1.00  0.00     0.170 HD
ENDROOT
BRANCH   1   5
HETATM    5  C   UNL     1      -4.419   4.128 -32.260  1.00  0.00     0.132 A 
HETATM    6  N   UNL     1      -4.830   4.680 -31.077  1.00  0.00    -0.261 N 
HETATM    7  N   UNL     1      -3.897   5.440 -30.481  1.00  0.00    -0.170 NA
HETATM    8  H   UNL     1      -5.743   4.566 -30.644  1.00  0.00     0.191 HD
HETATM    9  C   UNL     1      -2.842   5.351 -31.302  1.00  0.00     0.120 A 
HETATM   10  C   UNL     1      -3.115   4.540 -32.445  1.00  0.00     0.017 A 
HETATM   11  C   UNL     1      -2.190   4.209 -33.557  1.00  0.00     0.055 C 
BRANCH   9  12
HETATM   12  C   UNL     1      -1.545   6.032 -31.002  1.00  0.00     0.106 A 
HETATM   13  O   UNL     1      -1.167   6.490 -29.767  1.00  0.00    -0.313 OA
HETATM   14  C   UNL     1       0.059   7.065 -29.900  1.00  0.00     0.050 A 
HETATM   15  C   UNL     1       0.648   7.642 -28.675  1.00  0.00     0.076 C 
HETATM   16  C   UNL     1       0.489   6.972 -31.205  1.00  0.00     0.035 A 
HETATM   17  C   UNL     1      -0.543   6.310 -31.913  1.00  0.00     0.042 A 
ENDBRANCH   9  12
ENDBRANCH   1   5
BRANCH   2  18
HETATM   18  C   UNL     1      -6.359   1.219 -33.695  1.00  0.00     0.116 C 
BRANCH  18  19
HETATM   19  C   UNL     1      -7.002  -0.114 -33.251  1.00  0.00     0.049 C 
BRANCH  19  20
HETATM   20  C   UNL     1      -6.347  -1.394 -33.808  1.00  0.00    -0.050 A 
HETATM   21  C   UNL     1      -4.960  -1.625 -33.806  1.00  0.00     0.008 A 
HETATM   22  C   UNL     1      -4.416  -2.800 -34.337  1.00  0.00     0.001 A 
HETATM   23  C   UNL     1      -5.248  -3.785 -34.857  1.00  0.00     0.000 A 
HETATM   24  C   UNL     1      -6.626  -3.605 -34.827  1.00  0.00     0.001 A 
HETATM   25  C   UNL     1      -7.167  -2.431 -34.298  1.00  0.00     0.008 A 
ENDBRANCH  19  20
BRANCH  19  26
HETATM   26  C   UNL     1      -8.527  -0.134 -33.363  1.00  0.00    -0.027 C 
HETATM   27  C   UNL     1      -9.410   0.628 -32.701  1.00  0.00     0.007 C 
ENDBRANCH  19  26
ENDBRANCH  18  19
ENDBRANCH   2  18
TORSDOF 6
ENDMDL
MODEL 7
REMARK VINA RESULT:      -8.1      4.833      7.631
REMARK  6 active torsions:
REMARK  status: ('A' for Active; 'I' for Inactive)
REMARK    1  A    between atoms: C_4  and  C_5 
REMARK    2  A    between atoms: C_9  and  N_10 
REMARK       I    between atoms: N_10  and  C_11 
REMARK    3  A    between atoms: C_11  and  C_12 
REMARK    4  A    between atoms: C_12  and  C_13 
REMARK    5  A    between atoms: C_13  and  C_14 
REMARK    6  A    between atoms: C_13  and  C_20 
ROOT
HETATM    1  N   UNL     1      -5.540   1.930 -33.095  1.00  0.00    -0.312 N 
HETATM    2  C   UNL     1      -6.574   1.555 -32.263  1.00  0.00     0.224 C 
HETATM    3  O   UNL     1      -7.232   2.359 -31.597  1.00  0.00    -0.273 OA
HETATM    4  H   UNL     1      -5.057   1.242 -33.658  1.00  0.00     0.170 HD
ENDROOT
BRANCH   1   5
HETATM    5  C   UNL     1      -5.138   3.244 -33.236  1.00  0.00     0.132 A 
HETATM    6  N   UNL     1      -5.812   4.178 -33.976  1.00  0.00    -0.261 N 
HETATM    7  N   UNL     1      -5.233   5.389 -33.976  1.00  0.00    -0.170 NA
HETATM    8  H   UNL     1      -6.669   4.026 -34.501  1.00  0.00     0.191 HD
HETATM    9  C   UNL     1      -4.161   5.230 -33.186  1.00  0.00     0.120 A 
HETATM   10  C   UNL     1      -4.048   3.895 -32.695  1.00  0.00     0.017 A 
HETATM   11  C   UNL     1      -3.002   3.352 -31.793  1.00  0.00     0.055 C 
BRANCH   9  12
HETATM   12  C   UNL     1      -3.231   6.359 -32.876  1.00  0.00     0.106 A 
HETATM   13  O   UNL     1      -3.423   7.284 -31.884  1.00  0.00    -0.313 OA
HETATM   14  C   UNL     1      -2.380   8.157 -31.930  1.00  0.00     0.050 A 
HETATM   15  C   UNL     1      -2.402   9.254 -30.942  1.00  0.00     0.076 C 
HETATM   16  C   UNL     1      -1.505   7.800 -32.931  1.00  0.00     0.035 A 
HETATM   17  C   UNL     1      -2.053   6.646 -33.540  1.00  0.00     0.042 A 
ENDBRANCH   9  12
ENDBRANCH   1   5
BRANCH   2  18
HETATM   18  C   UNL     1      -6.833   0.056 -32.118  1.00  0.00     0.116 C 
BRANCH  18  19
HETATM   19  C   UNL     1      -7.370  -0.734 -33.332  1.00  0.00     0.049 C 
BRANCH  19  20
HETATM   20  C   UNL     1      -6.479  -1.890 -33.829  1.00  0.00    -0.050 A 
HETATM   21  C   UNL     1      -5.077  -1.898 -33.714  1.00  0.00     0.008 A 
HETATM   22  C   UNL     1      -4.314  -2.969 -34.195  1.00  0.00     0.001 A 
HETATM   23  C   UNL     1      -4.935  -4.068 -34.776  1.00  0.00     0.000 A 
HETATM   24  C   UNL     1      -6.322  -4.108 -34.858  1.00  0.00     0.001 A 
HETATM   25  C   UNL     1      -7.083  -3.039 -34.378  1.00  0.00     0.008 A 
ENDBRANCH  19  20
BRANCH  19  26
HETATM   26  C   UNL     1      -7.880   0.150 -34.471  1.00  0.00    -0.027 C 
HETATM   27  C   UNL     1      -7.340   0.316 -35.687  1.00  0.00     0.007 C 
ENDBRANCH  19  26
ENDBRANCH  18  19
ENDBRANCH   2  18
TORSDOF 6
ENDMDL
MODEL 8
REMARK VINA RESULT:      -7.9      5.125      8.101
REMARK  6 active torsions:
REMARK  status: ('A' for Active; 'I' for Inactive)
REMARK    1  A    between atoms: C_4  and  C_5 
REMARK    2  A    between atoms: C_9  and  N_10 
REMARK       I    between atoms: N_10  and  C_11 
REMARK    3  A    between atoms: C_11  and  C_12 
REMARK    4  A    between atoms: C_12  and  C_13 
REMARK    5  A    between atoms: C_13  and  C_14 
REMARK    6  A    between atoms: C_13  and  C_20 
ROOT
HETATM    1  N   UNL     1      -5.417   2.226 -32.724  1.00  0.00    -0.312 N 
HETATM    2  C   UNL     1      -5.812   1.117 -32.005  1.00  0.00     0.224 C 
HETATM    3  O   UNL     1      -5.831   1.081 -30.772  1.00  0.00    -0.273 OA
HETATM    4  H   UNL     1      -5.460   2.227 -33.735  1.00  0.00     0.170 HD
ENDROOT
BRANCH   1   5
HETATM    5  C   UNL     1      -4.985   3.389 -32.117  1.00  0.00     0.132 A 
HETATM    6  N   UNL     1      -5.725   4.104 -31.213  1.00  0.00    -0.261 N 
HETATM    7  N   UNL     1      -5.106   5.206 -30.759  1.00  0.00    -0.170 NA
HETATM    8  H   UNL     1      -6.658   3.874 -30.884  1.00  0.00     0.191 HD
HETATM    9  C   UNL     1      -3.918   5.183 -31.379  1.00  0.00     0.120 A 
HETATM   10  C   UNL     1      -3.788   4.062 -32.252  1.00  0.00     0.017 A 
HETATM   11  C   UNL     1      -2.617   3.704 -33.091  1.00  0.00     0.055 C 
BRANCH   9  12
HETATM   12  C   UNL     1      -2.877   6.229 -31.135  1.00  0.00     0.106 A 
HETATM   13  O   UNL     1      -1.689   6.018 -30.487  1.00  0.00    -0.313 OA
HETATM   14  C   UNL     1      -1.028   7.207 -30.445  1.00  0.00     0.050 A 
HETATM   15  C   UNL     1       0.284   7.202 -29.768  1.00  0.00     0.076 C 
HETATM   16  C   UNL     1      -1.767   8.184 -31.072  1.00  0.00     0.035 A 
HETATM   17  C   UNL     1      -2.956   7.556 -31.514  1.00  0.00     0.042 A 
ENDBRANCH   9  12
ENDBRANCH   1   5
BRANCH   2  18
HETATM   18  C   UNL     1      -6.153  -0.138 -32.807  1.00  0.00     0.116 C 
BRANCH  18  19
HETATM   19  C   UNL     1      -5.053  -0.803 -33.664  1.00  0.00     0.049 C 
BRANCH  19  20
HETATM   20  C   UNL     1      -5.346  -2.242 -34.134  1.00  0.00    -0.050 A 
HETATM   21  C   UNL     1      -4.385  -3.269 -34.147  1.00  0.00     0.008 A 
HETATM   22  C   UNL     1      -4.701  -4.556 -34.597  1.00  0.00     0.001 A 
HETATM   23  C   UNL     1      -5.991  -4.855 -35.019  1.00  0.00     0.000 A 
HETATM   24  C   UNL     1      -6.974  -3.872 -34.971  1.00  0.00     0.001 A 
HETATM   25  C   UNL     1      -6.656  -2.588 -34.522  1.00  0.00     0.008 A 
ENDBRANCH  19  20
BRANCH  19  26
HETATM   26  C   UNL     1      -3.643  -0.643 -33.095  1.00  0.00    -0.027 C 
HETATM   27  C   UNL     1      -3.181  -1.071 -31.911  1.00  0.00     0.007 C 
ENDBRANCH  19  26
ENDBRANCH  18  19
ENDBRANCH   2  18
TORSDOF 6
ENDMDL
MODEL 9
REMARK VINA RESULT:      -7.9      2.536      3.274
REMARK  6 active torsions:
REMARK  status: ('A' for Active; 'I' for Inactive)
REMARK    1  A    between atoms: C_4  and  C_5 
REMARK    2  A    between atoms: C_9  and  N_10 
REMARK       I    between atoms: N_10  and  C_11 
REMARK    3  A    between atoms: C_11  and  C_12 
REMARK    4  A    between atoms: C_12  and  C_13 
REMARK    5  A    between atoms: C_13  and  C_14 
REMARK    6  A    between atoms: C_13  and  C_20 
ROOT
HETATM    1  N   UNL     1      -8.061   0.451 -31.714  1.00  0.00    -0.312 N 
HETATM    2  C   UNL     1      -6.720   0.634 -31.451  1.00  0.00     0.224 C 
HETATM    3  O   UNL     1      -6.225   1.734 -31.189  1.00  0.00    -0.273 OA
HETATM    4  H   UNL     1      -8.432  -0.475 -31.880  1.00  0.00     0.170 HD
ENDROOT
BRANCH   1   5
HETATM    5  C   UNL     1      -8.965   1.496 -31.728  1.00  0.00     0.132 A 
HETATM    6  N   UNL     1      -9.252   2.277 -30.641  1.00  0.00    -0.261 N 
HETATM    7  N   UNL     1     -10.167   3.229 -30.885  1.00  0.00    -0.170 NA
HETATM    8  H   UNL     1      -8.847   2.189 -29.712  1.00  0.00     0.191 HD
HETATM    9  C   UNL     1     -10.458   3.065 -32.183  1.00  0.00     0.120 A 
HETATM   10  C   UNL     1      -9.734   1.982 -32.765  1.00  0.00     0.017 A 
HETATM   11  C   UNL     1      -9.791   1.513 -34.172  1.00  0.00     0.055 C 
BRANCH   9  12
HETATM   12  C   UNL     1     -11.430   3.952 -32.894  1.00  0.00     0.106 A 
HETATM   13  O   UNL     1     -11.085   4.958 -33.758  1.00  0.00    -0.313 OA
HETATM   14  C   UNL     1     -12.237   5.547 -34.182  1.00  0.00     0.050 A 
HETATM   15  C   UNL     1     -12.087   6.678 -35.119  1.00  0.00     0.076 C 
HETATM   16  C   UNL     1     -13.326   4.925 -33.614  1.00  0.00     0.035 A 
HETATM   17  C   UNL     1     -12.807   3.902 -32.785  1.00  0.00     0.042 A 
ENDBRANCH   9  12
ENDBRANCH   1   5
BRANCH   2  18
HETATM   18  C   UNL     1      -5.818  -0.592 -31.584  1.00  0.00     0.116 C 
BRANCH  18  19
HETATM   19  C   UNL     1      -5.009  -0.791 -32.886  1.00  0.00     0.049 C 
BRANCH  19  20
HETATM   20  C   UNL     1      -5.270  -2.108 -33.645  1.00  0.00    -0.050 A 
HETATM   21  C   UNL     1      -4.319  -3.135 -33.773  1.00  0.00     0.008 A 
HETATM   22  C   UNL     1      -4.603  -4.306 -34.486  1.00  0.00     0.001 A 
HETATM   23  C   UNL     1      -5.855  -4.489 -35.063  1.00  0.00     0.000 A 
HETATM   24  C   UNL     1      -6.831  -3.511 -34.910  1.00  0.00     0.001 A 
HETATM   25  C   UNL     1      -6.545  -2.343 -34.199  1.00  0.00     0.008 A 
ENDBRANCH  19  20
BRANCH  19  26
HETATM   26  C   UNL     1      -3.520  -0.476 -32.744  1.00  0.00    -0.027 C 
HETATM   27  C   UNL     1      -2.825  -0.279 -31.613  1.00  0.00     0.007 C 
ENDBRANCH  19  26
ENDBRANCH  18  19
ENDBRANCH   2  18
TORSDOF 6
ENDMDL
MODEL 10
REMARK VINA RESULT:      -7.9      1.695      3.120
REMARK  6 active torsions:
REMARK  status: ('A' for Active; 'I' for Inactive)
REMARK    1  A    between atoms: C_4  and  C_5 
REMARK    2  A    between atoms: C_9  and  N_10 
REMARK       I    between atoms: N_10  and  C_11 
REMARK    3  A    between atoms: C_11  and  C_12 
REMARK    4  A    between atoms: C_12  and  C_13 
REMARK    5  A    between atoms: C_13  and  C_14 
REMARK    6  A    between atoms: C_13  and  C_20 
ROOT
HETATM    1  N   UNL     1      -9.178   1.521 -34.418  1.00  0.00    -0.312 N 
HETATM    2  C   UNL     1      -8.784   0.270 -33.990  1.00  0.00     0.224 C 
HETATM    3  O   UNL     1      -9.263  -0.288 -32.999  1.00  0.00    -0.273 OA
HETATM    4  H   UNL     1      -8.791   1.921 -35.263  1.00  0.00     0.170 HD
ENDROOT
BRANCH   1   5
HETATM    5  C   UNL     1     -10.132   2.267 -33.755  1.00  0.00     0.132 A 
HETATM    6  N   UNL     1      -9.845   3.313 -32.920  1.00  0.00    -0.261 N 
HETATM    7  N   UNL     1     -10.931   3.888 -32.379  1.00  0.00    -0.170 NA
HETATM    8  H   UNL     1      -8.918   3.663 -32.690  1.00  0.00     0.191 HD
HETATM    9  C   UNL     1     -11.953   3.199 -32.907  1.00  0.00     0.120 A 
HETATM   10  C   UNL     1     -11.508   2.159 -33.778  1.00  0.00     0.017 A 
HETATM   11  C   UNL     1     -12.348   1.204 -34.542  1.00  0.00     0.055 C 
BRANCH   9  12
HETATM   12  C   UNL     1     -13.377   3.531 -32.594  1.00  0.00     0.106 A 
HETATM   13  O   UNL     1     -14.383   2.612 -32.450  1.00  0.00    -0.313 OA
HETATM   14  C   UNL     1     -15.531   3.297 -32.194  1.00  0.00     0.050 A 
HETATM   15  C   UNL     1     -16.751   2.486 -32.017  1.00  0.00     0.076 C 
HETATM   16  C   UNL     1     -15.278   4.650 -32.155  1.00  0.00     0.035 A 
HETATM   17  C   UNL     1     -13.895   4.800 -32.414  1.00  0.00     0.042 A 
ENDBRANCH   9  12
ENDBRANCH   1   5
BRANCH   2  18
HETATM   18  C   UNL     1      -7.636  -0.389 -34.752  1.00  0.00     0.116 C 
BRANCH  18  19
HETATM   19  C   UNL     1      -6.798  -1.481 -34.050  1.00  0.00     0.049 C 
BRANCH  19  20
HETATM   20  C   UNL     1      -5.677  -0.974 -33.121  1.00  0.00    -0.050 A 
HETATM   21  C   UNL     1      -5.894  -0.541 -31.801  1.00  0.00     0.008 A 
HETATM   22  C   UNL     1      -4.840  -0.077 -31.004  1.00  0.00     0.001 A 
HETATM   23  C   UNL     1      -3.542  -0.061 -31.499  1.00  0.00     0.000 A 
HETATM   24  C   UNL     1      -3.291  -0.528 -32.784  1.00  0.00     0.001 A 
HETATM   25  C   UNL     1      -4.343  -0.991 -33.578  1.00  0.00     0.008 A 
ENDBRANCH  19  20
BRANCH  19  26
HETATM   26  C   UNL     1      -6.332  -2.600 -34.982  1.00  0.00    -0.027 C 
HETATM   27  C   UNL     1      -6.491  -3.923 -34.821  1.00  0.00     0.007 C 
ENDBRANCH  19  26
ENDBRANCH  18  19
ENDBRANCH   2  18
TORSDOF 6
ENDMDL
