MODEL 1
REMARK VINA RESULT:      -7.0      0.000      0.000
REMARK  6 active torsions:
REMARK  status: ('A' for Active; 'I' for Inactive)
REMARK    1  A    between atoms: C_2  and  O_3 
REMARK    2  A    between atoms: O_3  and  C_4 
REMARK    3  A    between atoms: C_4  and  C_5 
REMARK    4  A    between atoms: C_6  and  O_7 
REMARK    5  A    between atoms: C_12  and  O_13 
REMARK    6  A    between atoms: C_17  and  C_18 
ROOT
HETATM    1  C   UNL     1      -6.781   0.759 -31.215  1.00  0.00     0.133 C 
HETATM    2  C   UNL     1      -5.580   1.122 -30.287  1.00  0.00     0.073 C 
HETATM    3  C   UNL     1      -4.313   0.314 -30.607  1.00  0.00     0.047 C 
HETATM    4  C   UNL     1      -5.234   2.641 -30.279  1.00  0.00     0.097 C 
HETATM    5  C   UNL     1      -6.482   3.444 -30.250  1.00  0.00     0.042 A 
HETATM    6  C   UNL     1      -7.756   3.018 -30.560  1.00  0.00     0.030 A 
HETATM    7  C   UNL     1      -8.548   4.139 -30.256  1.00  0.00     0.190 A 
HETATM    8  N   UNL     1      -7.851   5.193 -29.851  1.00  0.00    -0.149 NA
HETATM    9  N   UNL     1      -6.585   4.742 -29.843  1.00  0.00    -0.279 N 
HETATM   10  H   UNL     1      -5.853   5.370 -29.525  1.00  0.00     0.189 HD
HETATM   11  C   UNL     1      -8.062   1.613 -30.969  1.00  0.00     0.075 C 
ENDROOT
BRANCH  11  12
HETATM   12  C   UNL     1      -9.051   1.628 -32.127  1.00  0.00    -0.045 A 
HETATM   13  C   UNL     1      -9.110   2.658 -33.082  1.00  0.00     0.050 A 
HETATM   14  C   UNL     1      -9.997   2.583 -34.153  1.00  0.00     0.117 A 
HETATM   15  F   UNL     1     -10.028   3.575 -35.052  1.00  0.00    -0.206 F 
HETATM   16  C   UNL     1     -10.838   1.492 -34.308  1.00  0.00     0.042 A 
HETATM   17  C   UNL     1     -10.791   0.456 -33.380  1.00  0.00     0.004 A 
HETATM   18  C   UNL     1      -9.903   0.522 -32.300  1.00  0.00     0.008 A 
ENDBRANCH  11  12
BRANCH   1  19
HETATM   19  C   UNL     1      -6.374   0.675 -32.672  1.00  0.00     0.267 C 
HETATM   20  O   UNL     1      -5.906   1.632 -33.278  1.00  0.00    -0.265 OA
BRANCH  19  21
HETATM   21  O   UNL     1      -6.617  -0.543 -33.217  1.00  0.00    -0.316 OA
BRANCH  21  22
HETATM   22  C   UNL     1      -6.430  -0.645 -34.643  1.00  0.00     0.123 C 
HETATM   23  C   UNL     1      -7.674  -0.136 -35.364  1.00  0.00     0.040 C 
HETATM   24  C   UNL     1      -6.188  -2.114 -34.968  1.00  0.00     0.040 C 
ENDBRANCH  21  22
ENDBRANCH  19  21
ENDBRANCH   1  19
BRANCH   2  25
HETATM   25  O   UNL     1      -5.952   0.764 -28.937  1.00  0.00    -0.389 OA
HETATM   26  H   UNL     1      -6.543   1.452 -28.581  1.00  0.00     0.210 HD
ENDBRANCH   2  25
BRANCH   7  27
HETATM   27  O   UNL     1      -9.873   4.293 -30.310  1.00  0.00    -0.343 OA
HETATM   28  H   UNL     1     -10.308   3.525 -29.912  1.00  0.00     0.219 HD
ENDBRANCH   7  27
TORSDOF 6
ENDMDL
MODEL 2
REMARK VINA RESULT:      -6.9      3.509      5.997
REMARK  6 active torsions:
REMARK  status: ('A' for Active; 'I' for Inactive)
REMARK    1  A    between atoms: C_2  and  O_3 
REMARK    2  A    between atoms: O_3  and  C_4 
REMARK    3  A    between atoms: C_4  and  C_5 
REMARK    4  A    between atoms: C_6  and  O_7 
REMARK    5  A    between atoms: C_12  and  O_13 
REMARK    6  A    between atoms: C_17  and  C_18 
ROOT
HETATM    1  C   UNL     1      -6.618   1.650 -31.669  1.00  0.00     0.133 C 
HETATM    2  C   UNL     1      -7.347   0.276 -31.794  1.00  0.00     0.073 C 
HETATM    3  C   UNL     1      -8.757   0.402 -32.393  1.00  0.00     0.047 C 
HETATM    4  C   UNL     1      -6.541  -0.789 -32.594  1.00  0.00     0.097 C 
HETATM    5  C   UNL     1      -5.106  -0.726 -32.216  1.00  0.00     0.042 A 
HETATM    6  C   UNL     1      -4.457   0.306 -31.573  1.00  0.00     0.030 A 
HETATM    7  C   UNL     1      -3.164  -0.209 -31.373  1.00  0.00     0.190 A 
HETATM    8  N   UNL     1      -2.985  -1.420 -31.886  1.00  0.00    -0.149 NA
HETATM    9  N   UNL     1      -4.193  -1.725 -32.389  1.00  0.00    -0.279 N 
HETATM   10  H   UNL     1      -4.320  -2.639 -32.811  1.00  0.00     0.189 HD
HETATM   11  C   UNL     1      -5.156   1.552 -31.135  1.00  0.00     0.075 C 
ENDROOT
BRANCH  11  12
HETATM   12  C   UNL     1      -4.281   2.759 -31.448  1.00  0.00    -0.045 A 
HETATM   13  C   UNL     1      -3.421   2.825 -32.559  1.00  0.00     0.050 A 
HETATM   14  C   UNL     1      -2.692   3.981 -32.825  1.00  0.00     0.117 A 
HETATM   15  F   UNL     1      -1.886   4.020 -33.893  1.00  0.00    -0.206 F 
HETATM   16  C   UNL     1      -2.798   5.096 -32.006  1.00  0.00     0.042 A 
HETATM   17  C   UNL     1      -3.649   5.057 -30.906  1.00  0.00     0.004 A 
HETATM   18  C   UNL     1      -4.387   3.899 -30.631  1.00  0.00     0.008 A 
ENDBRANCH  11  12
BRANCH   1  19
HETATM   19  C   UNL     1      -6.754   2.487 -32.924  1.00  0.00     0.267 C 
HETATM   20  O   UNL     1      -6.295   2.131 -34.003  1.00  0.00    -0.265 OA
BRANCH  19  21
HETATM   21  O   UNL     1      -7.398   3.662 -32.707  1.00  0.00    -0.316 OA
BRANCH  21  22
HETATM   22  C   UNL     1      -7.282   4.648 -33.752  1.00  0.00     0.123 C 
HETATM   23  C   UNL     1      -6.193   5.654 -33.393  1.00  0.00     0.040 C 
HETATM   24  C   UNL     1      -8.632   5.344 -33.874  1.00  0.00     0.040 C 
ENDBRANCH  21  22
ENDBRANCH  19  21
ENDBRANCH   1  19
BRANCH   2  25
HETATM   25  O   UNL     1      -7.527  -0.242 -30.456  1.00  0.00    -0.389 OA
HETATM   26  H   UNL     1      -7.070  -1.100 -30.389  1.00  0.00     0.210 HD
ENDBRANCH   2  25
BRANCH   7  27
HETATM   27  O   UNL     1      -2.113   0.331 -30.751  1.00  0.00    -0.343 OA
HETATM   28  H   UNL     1      -2.277   1.273 -30.591  1.00  0.00     0.219 HD
ENDBRANCH   7  27
TORSDOF 6
ENDMDL
MODEL 3
REMARK VINA RESULT:      -6.9     16.179     17.288
REMARK  6 active torsions:
REMARK  status: ('A' for Active; 'I' for Inactive)
REMARK    1  A    between atoms: C_2  and  O_3 
REMARK    2  A    between atoms: O_3  and  C_4 
REMARK    3  A    between atoms: C_4  and  C_5 
REMARK    4  A    between atoms: C_6  and  O_7 
REMARK    5  A    between atoms: C_12  and  O_13 
REMARK    6  A    between atoms: C_17  and  C_18 
ROOT
HETATM    1  C   UNL     1      -5.741 -13.536 -36.484  1.00  0.00     0.133 C 
HETATM    2  C   UNL     1      -5.118 -13.837 -35.086  1.00  0.00     0.073 C 
HETATM    3  C   UNL     1      -6.096 -14.545 -34.136  1.00  0.00     0.047 C 
HETATM    4  C   UNL     1      -3.789 -14.647 -35.155  1.00  0.00     0.097 C 
HETATM    5  C   UNL     1      -2.945 -14.140 -36.266  1.00  0.00     0.042 A 
HETATM    6  C   UNL     1      -3.346 -13.360 -37.330  1.00  0.00     0.030 A 
HETATM    7  C   UNL     1      -2.138 -13.089 -37.996  1.00  0.00     0.190 A 
HETATM    8  N   UNL     1      -1.082 -13.682 -37.453  1.00  0.00    -0.149 NA
HETATM    9  N   UNL     1      -1.597 -14.313 -36.384  1.00  0.00    -0.279 N 
HETATM   10  H   UNL     1      -0.963 -14.818 -35.773  1.00  0.00     0.189 HD
HETATM   11  C   UNL     1      -4.753 -12.884 -37.499  1.00  0.00     0.075 C 
ENDROOT
BRANCH  11  12
HETATM   12  C   UNL     1      -5.158 -13.019 -38.961  1.00  0.00    -0.045 A 
HETATM   13  C   UNL     1      -4.775 -14.099 -39.775  1.00  0.00     0.050 A 
HETATM   14  C   UNL     1      -5.231 -14.196 -41.087  1.00  0.00     0.117 A 
HETATM   15  F   UNL     1      -4.855 -15.238 -41.839  1.00  0.00    -0.206 F 
HETATM   16  C   UNL     1      -6.075 -13.235 -41.622  1.00  0.00     0.042 A 
HETATM   17  C   UNL     1      -6.474 -12.160 -40.832  1.00  0.00     0.004 A 
HETATM   18  C   UNL     1      -6.023 -12.055 -39.512  1.00  0.00     0.008 A 
ENDBRANCH  11  12
BRANCH   1  19
HETATM   19  C   UNL     1      -6.494 -14.725 -37.043  1.00  0.00     0.267 C 
HETATM   20  O   UNL     1      -5.934 -15.771 -37.350  1.00  0.00    -0.265 OA
BRANCH  19  21
HETATM   21  O   UNL     1      -7.822 -14.486 -37.192  1.00  0.00    -0.316 OA
BRANCH  21  22
HETATM   22  C   UNL     1      -8.341 -14.619 -38.530  1.00  0.00     0.123 C 
HETATM   23  C   UNL     1      -9.344 -13.505 -38.809  1.00  0.00     0.040 C 
HETATM   24  C   UNL     1      -9.018 -15.981 -38.623  1.00  0.00     0.040 C 
ENDBRANCH  21  22
ENDBRANCH  19  21
ENDBRANCH   1  19
BRANCH   2  25
HETATM   25  O   UNL     1      -4.810 -12.567 -34.466  1.00  0.00    -0.389 OA
HETATM   26  H   UNL     1      -4.596 -11.922 -35.164  1.00  0.00     0.210 HD
ENDBRANCH   2  25
BRANCH   7  27
HETATM   27  O   UNL     1      -1.903 -12.335 -39.072  1.00  0.00    -0.343 OA
HETATM   28  H   UNL     1      -2.167 -11.420 -38.893  1.00  0.00     0.219 HD
ENDBRANCH   7  27
TORSDOF 6
ENDMDL
MODEL 4
REMARK VINA RESULT:      -6.8      2.619      4.994
REMARK  6 active torsions:
REMARK  status: ('A' for Active; 'I' for Inactive)
REMARK    1  A    between atoms: C_2  and  O_3 
REMARK    2  A    between atoms: O_3  and  C_4 
REMARK    3  A    between atoms: C_4  and  C_5 
REMARK    4  A    between atoms: C_6  and  O_7 
REMARK    5  A    between atoms: C_12  and  O_13 
REMARK    6  A    between atoms: C_17  and  C_18 
ROOT
HETATM    1  C   UNL     1      -8.801   3.279 -33.985  1.00  0.00     0.133 C 
HETATM    2  C   UNL     1      -9.164   4.739 -33.576  1.00  0.00     0.073 C 
HETATM    3  C   UNL     1     -10.679   4.997 -33.568  1.00  0.00     0.047 C 
HETATM    4  C   UNL     1      -8.560   5.173 -32.207  1.00  0.00     0.097 C 
HETATM    5  C   UNL     1      -7.164   4.680 -32.091  1.00  0.00     0.042 A 
HETATM    6  C   UNL     1      -6.565   3.689 -32.839  1.00  0.00     0.030 A 
HETATM    7  C   UNL     1      -5.233   3.716 -32.390  1.00  0.00     0.190 A 
HETATM    8  N   UNL     1      -5.014   4.590 -31.415  1.00  0.00    -0.149 NA
HETATM    9  N   UNL     1      -6.210   5.181 -31.254  1.00  0.00    -0.279 N 
HETATM   10  H   UNL     1      -6.289   5.930 -30.574  1.00  0.00     0.189 HD
HETATM   11  C   UNL     1      -7.275   2.959 -33.932  1.00  0.00     0.075 C 
ENDROOT
BRANCH  11  12
HETATM   12  C   UNL     1      -6.936   1.476 -33.852  1.00  0.00    -0.045 A 
HETATM   13  C   UNL     1      -6.599   0.822 -32.654  1.00  0.00     0.050 A 
HETATM   14  C   UNL     1      -6.359  -0.549 -32.637  1.00  0.00     0.117 A 
HETATM   15  F   UNL     1      -6.045  -1.147 -31.481  1.00  0.00    -0.206 F 
HETATM   16  C   UNL     1      -6.452  -1.305 -33.796  1.00  0.00     0.042 A 
HETATM   17  C   UNL     1      -6.793  -0.680 -34.992  1.00  0.00     0.004 A 
HETATM   18  C   UNL     1      -7.037   0.697 -35.020  1.00  0.00     0.008 A 
ENDBRANCH  11  12
BRANCH   1  19
HETATM   19  C   UNL     1      -9.664   2.254 -33.278  1.00  0.00     0.267 C 
HETATM   20  O   UNL     1      -9.664   2.126 -32.059  1.00  0.00    -0.265 OA
BRANCH  19  21
HETATM   21  O   UNL     1     -10.390   1.494 -34.137  1.00  0.00    -0.316 OA
BRANCH  21  22
HETATM   22  C   UNL     1     -11.822   1.611 -34.027  1.00  0.00     0.123 C 
HETATM   23  C   UNL     1     -12.421   0.268 -33.622  1.00  0.00     0.040 C 
HETATM   24  C   UNL     1     -12.351   2.041 -35.390  1.00  0.00     0.040 C 
ENDBRANCH  21  22
ENDBRANCH  19  21
ENDBRANCH   1  19
BRANCH   2  25
HETATM   25  O   UNL     1      -8.615   5.621 -34.582  1.00  0.00    -0.389 OA
HETATM   26  H   UNL     1      -9.349   6.026 -35.078  1.00  0.00     0.210 HD
ENDBRANCH   2  25
BRANCH   7  27
HETATM   27  O   UNL     1      -4.177   3.008 -32.795  1.00  0.00    -0.343 OA
HETATM   28  H   UNL     1      -3.386   3.297 -32.316  1.00  0.00     0.219 HD
ENDBRANCH   7  27
TORSDOF 6
ENDMDL
MODEL 5
REMARK VINA RESULT:      -6.7      1.580      2.027
REMARK  6 active torsions:
REMARK  status: ('A' for Active; 'I' for Inactive)
REMARK    1  A    between atoms: C_2  and  O_3 
REMARK    2  A    between atoms: O_3  and  C_4 
REMARK    3  A    between atoms: C_4  and  C_5 
REMARK    4  A    between atoms: C_6  and  O_7 
REMARK    5  A    between atoms: C_12  and  O_13 
REMARK    6  A    between atoms: C_17  and  C_18 
ROOT
HETATM    1  C   UNL     1      -6.288   2.049 -31.495  1.00  0.00     0.133 C 
HETATM    2  C   UNL     1      -5.262   2.980 -30.778  1.00  0.00     0.073 C 
HETATM    3  C   UNL     1      -3.828   2.803 -31.302  1.00  0.00     0.047 C 
HETATM    4  C   UNL     1      -5.646   4.489 -30.829  1.00  0.00     0.097 C 
HETATM    5  C   UNL     1      -7.103   4.648 -30.595  1.00  0.00     0.042 A 
HETATM    6  C   UNL     1      -8.075   3.674 -30.690  1.00  0.00     0.030 A 
HETATM    7  C   UNL     1      -9.235   4.342 -30.260  1.00  0.00     0.190 A 
HETATM    8  N   UNL     1      -9.041   5.624 -29.976  1.00  0.00    -0.149 NA
HETATM    9  N   UNL     1      -7.723   5.789 -30.177  1.00  0.00    -0.279 N 
HETATM   10  H   UNL     1      -7.318   6.700 -29.984  1.00  0.00     0.189 HD
HETATM   11  C   UNL     1      -7.765   2.255 -31.041  1.00  0.00     0.075 C 
ENDROOT
BRANCH  11  12
HETATM   12  C   UNL     1      -8.811   1.738 -32.020  1.00  0.00    -0.045 A 
HETATM   13  C   UNL     1      -9.382   0.455 -31.939  1.00  0.00     0.050 A 
HETATM   14  C   UNL     1     -10.380   0.064 -32.828  1.00  0.00     0.117 A 
HETATM   15  F   UNL     1     -10.910  -1.161 -32.724  1.00  0.00    -0.206 F 
HETATM   16  C   UNL     1     -10.839   0.928 -33.811  1.00  0.00     0.042 A 
HETATM   17  C   UNL     1     -10.294   2.206 -33.905  1.00  0.00     0.004 A 
HETATM   18  C   UNL     1      -9.292   2.608 -33.016  1.00  0.00     0.008 A 
ENDBRANCH  11  12
BRANCH   1  19
HETATM   19  C   UNL     1      -6.106   2.046 -32.999  1.00  0.00     0.267 C 
HETATM   20  O   UNL     1      -6.329   3.034 -33.688  1.00  0.00    -0.265 OA
BRANCH  19  21
HETATM   21  O   UNL     1      -5.711   0.840 -33.480  1.00  0.00    -0.316 OA
BRANCH  21  22
HETATM   22  C   UNL     1      -6.765  -0.040 -33.918  1.00  0.00     0.123 C 
HETATM   23  C   UNL     1      -6.283  -1.487 -33.870  1.00  0.00     0.040 C 
HETATM   24  C   UNL     1      -7.125   0.355 -35.345  1.00  0.00     0.040 C 
ENDBRANCH  21  22
ENDBRANCH  19  21
ENDBRANCH   1  19
BRANCH   2  25
HETATM   25  O   UNL     1      -5.227   2.596 -29.385  1.00  0.00    -0.389 OA
HETATM   26  H   UNL     1      -5.516   3.353 -28.844  1.00  0.00     0.210 HD
ENDBRANCH   2  25
BRANCH   7  27
HETATM   27  O   UNL     1     -10.478   3.882 -30.095  1.00  0.00    -0.343 OA
HETATM   28  H   UNL     1     -10.791   3.487 -30.923  1.00  0.00     0.219 HD
ENDBRANCH   7  27
TORSDOF 6
ENDMDL
MODEL 6
REMARK VINA RESULT:      -6.6     16.307     17.772
REMARK  6 active torsions:
REMARK  status: ('A' for Active; 'I' for Inactive)
REMARK    1  A    between atoms: C_2  and  O_3 
REMARK    2  A    between atoms: O_3  and  C_4 
REMARK    3  A    between atoms: C_4  and  C_5 
REMARK    4  A    between atoms: C_6  and  O_7 
REMARK    5  A    between atoms: C_12  and  O_13 
REMARK    6  A    between atoms: C_17  and  C_18 
ROOT
HETATM    1  C   UNL     1      -5.702 -12.959 -39.074  1.00  0.00     0.133 C 
HETATM    2  C   UNL     1      -7.250 -12.960 -38.882  1.00  0.00     0.073 C 
HETATM    3  C   UNL     1      -8.016 -13.106 -40.205  1.00  0.00     0.047 C 
HETATM    4  C   UNL     1      -7.753 -14.037 -37.874  1.00  0.00     0.097 C 
HETATM    5  C   UNL     1      -6.845 -14.096 -36.701  1.00  0.00     0.042 A 
HETATM    6  C   UNL     1      -5.560 -13.601 -36.615  1.00  0.00     0.030 A 
HETATM    7  C   UNL     1      -5.224 -13.829 -35.268  1.00  0.00     0.190 A 
HETATM    8  N   UNL     1      -6.168 -14.456 -34.579  1.00  0.00    -0.149 NA
HETATM    9  N   UNL     1      -7.160 -14.601 -35.474  1.00  0.00    -0.279 N 
HETATM   10  H   UNL     1      -8.027 -15.030 -35.165  1.00  0.00     0.189 HD
HETATM   11  C   UNL     1      -4.890 -12.889 -37.745  1.00  0.00     0.075 C 
ENDROOT
BRANCH  11  12
HETATM   12  C   UNL     1      -3.446 -13.360 -37.853  1.00  0.00    -0.045 A 
HETATM   13  C   UNL     1      -3.057 -14.704 -37.711  1.00  0.00     0.050 A 
HETATM   14  C   UNL     1      -1.727 -15.079 -37.883  1.00  0.00     0.117 A 
HETATM   15  F   UNL     1      -1.384 -16.366 -37.748  1.00  0.00    -0.206 F 
HETATM   16  C   UNL     1      -0.756 -14.142 -38.201  1.00  0.00     0.042 A 
HETATM   17  C   UNL     1      -1.119 -12.807 -38.354  1.00  0.00     0.004 A 
HETATM   18  C   UNL     1      -2.453 -12.420 -38.185  1.00  0.00     0.008 A 
ENDBRANCH  11  12
BRANCH   1  19
HETATM   19  C   UNL     1      -5.241 -14.056 -40.013  1.00  0.00     0.267 C 
HETATM   20  O   UNL     1      -5.508 -15.236 -39.824  1.00  0.00    -0.265 OA
BRANCH  19  21
HETATM   21  O   UNL     1      -4.488 -13.587 -41.041  1.00  0.00    -0.316 OA
BRANCH  21  22
HETATM   22  C   UNL     1      -3.733 -14.575 -41.771  1.00  0.00     0.123 C 
HETATM   23  C   UNL     1      -2.241 -14.295 -41.627  1.00  0.00     0.040 C 
HETATM   24  C   UNL     1      -4.155 -14.482 -43.232  1.00  0.00     0.040 C 
ENDBRANCH  21  22
ENDBRANCH  19  21
ENDBRANCH   1  19
BRANCH   2  25
HETATM   25  O   UNL     1      -7.621 -11.670 -38.346  1.00  0.00    -0.389 OA
HETATM   26  H   UNL     1      -8.546 -11.709 -38.046  1.00  0.00     0.210 HD
ENDBRANCH   2  25
BRANCH   7  27
HETATM   27  O   UNL     1      -4.116 -13.508 -34.596  1.00  0.00    -0.343 OA
HETATM   28  H   UNL     1      -3.346 -13.911 -35.025  1.00  0.00     0.219 HD
ENDBRANCH   7  27
TORSDOF 6
ENDMDL
MODEL 7
REMARK VINA RESULT:      -6.6      2.778      4.202
REMARK  6 active torsions:
REMARK  status: ('A' for Active; 'I' for Inactive)
REMARK    1  A    between atoms: C_2  and  O_3 
REMARK    2  A    between atoms: O_3  and  C_4 
REMARK    3  A    between atoms: C_4  and  C_5 
REMARK    4  A    between atoms: C_6  and  O_7 
REMARK    5  A    between atoms: C_12  and  O_13 
REMARK    6  A    between atoms: C_17  and  C_18 
ROOT
HETATM    1  C   UNL     1      -6.319   2.353 -31.089  1.00  0.00     0.133 C 
HETATM    2  C   UNL     1      -6.737   3.541 -30.168  1.00  0.00     0.073 C 
HETATM    3  C   UNL     1      -5.541   4.389 -29.710  1.00  0.00     0.047 C 
HETATM    4  C   UNL     1      -7.816   4.471 -30.799  1.00  0.00     0.097 C 
HETATM    5  C   UNL     1      -8.844   3.654 -31.494  1.00  0.00     0.042 A 
HETATM    6  C   UNL     1      -8.737   2.337 -31.887  1.00  0.00     0.030 A 
HETATM    7  C   UNL     1     -10.021   2.050 -32.383  1.00  0.00     0.190 A 
HETATM    8  N   UNL     1     -10.847   3.089 -32.365  1.00  0.00    -0.149 NA
HETATM    9  N   UNL     1     -10.108   4.062 -31.804  1.00  0.00    -0.279 N 
HETATM   10  H   UNL     1     -10.544   4.964 -31.644  1.00  0.00     0.189 HD
HETATM   11  C   UNL     1      -7.515   1.514 -31.635  1.00  0.00     0.075 C 
ENDROOT
BRANCH  11  12
HETATM   12  C   UNL     1      -7.200   0.686 -32.874  1.00  0.00    -0.045 A 
HETATM   13  C   UNL     1      -6.713  -0.632 -32.822  1.00  0.00     0.050 A 
HETATM   14  C   UNL     1      -6.504  -1.359 -33.991  1.00  0.00     0.117 A 
HETATM   15  F   UNL     1      -6.045  -2.614 -33.911  1.00  0.00    -0.206 F 
HETATM   16  C   UNL     1      -6.774  -0.806 -35.233  1.00  0.00     0.042 A 
HETATM   17  C   UNL     1      -7.265   0.495 -35.310  1.00  0.00     0.004 A 
HETATM   18  C   UNL     1      -7.479   1.233 -34.140  1.00  0.00     0.008 A 
ENDBRANCH  11  12
BRANCH   1  19
HETATM   19  C   UNL     1      -5.332   2.776 -32.158  1.00  0.00     0.267 C 
HETATM   20  O   UNL     1      -4.226   2.259 -32.271  1.00  0.00    -0.265 OA
BRANCH  19  21
HETATM   21  O   UNL     1      -5.794   3.792 -32.930  1.00  0.00    -0.316 OA
BRANCH  21  22
HETATM   22  C   UNL     1      -4.837   4.816 -33.265  1.00  0.00     0.123 C 
HETATM   23  C   UNL     1      -5.372   6.181 -32.844  1.00  0.00     0.040 C 
HETATM   24  C   UNL     1      -4.626   4.768 -34.773  1.00  0.00     0.040 C 
ENDBRANCH  21  22
ENDBRANCH  19  21
ENDBRANCH   1  19
BRANCH   2  25
HETATM   25  O   UNL     1      -7.310   2.977 -28.967  1.00  0.00    -0.389 OA
HETATM   26  H   UNL     1      -6.682   3.099 -28.233  1.00  0.00     0.210 HD
ENDBRANCH   2  25
BRANCH   7  27
HETATM   27  O   UNL     1     -10.521   0.906 -32.856  1.00  0.00    -0.343 OA
HETATM   28  H   UNL     1      -9.884   0.190 -32.717  1.00  0.00     0.219 HD
ENDBRANCH   7  27
TORSDOF 6
ENDMDL
MODEL 8
REMARK VINA RESULT:      -6.6      2.740      4.811
REMARK  6 active torsions:
REMARK  status: ('A' for Active; 'I' for Inactive)
REMARK    1  A    between atoms: C_2  and  O_3 
REMARK    2  A    between atoms: O_3  and  C_4 
REMARK    3  A    between atoms: C_4  and  C_5 
REMARK    4  A    between atoms: C_6  and  O_7 
REMARK    5  A    between atoms: C_12  and  O_13 
REMARK    6  A    between atoms: C_17  and  C_18 
ROOT
HETATM    1  C   UNL     1      -7.724   3.265 -31.464  1.00  0.00     0.133 C 
HETATM    2  C   UNL     1      -8.743   4.443 -31.382  1.00  0.00     0.073 C 
HETATM    3  C   UNL     1      -8.061   5.816 -31.283  1.00  0.00     0.047 C 
HETATM    4  C   UNL     1      -9.771   4.463 -32.552  1.00  0.00     0.097 C 
HETATM    5  C   UNL     1     -10.234   3.082 -32.842  1.00  0.00     0.042 A 
HETATM    6  C   UNL     1      -9.632   1.902 -32.458  1.00  0.00     0.030 A 
HETATM    7  C   UNL     1     -10.542   0.925 -32.898  1.00  0.00     0.190 A 
HETATM    8  N   UNL     1     -11.587   1.421 -33.548  1.00  0.00    -0.149 NA
HETATM    9  N   UNL     1     -11.386   2.748 -33.493  1.00  0.00    -0.279 N 
HETATM   10  H   UNL     1     -12.088   3.358 -33.899  1.00  0.00     0.189 HD
HETATM   11  C   UNL     1      -8.381   1.861 -31.642  1.00  0.00     0.075 C 
ENDROOT
BRANCH  11  12
HETATM   12  C   UNL     1      -7.452   0.788 -32.195  1.00  0.00    -0.045 A 
HETATM   13  C   UNL     1      -7.364   0.468 -33.561  1.00  0.00     0.050 A 
HETATM   14  C   UNL     1      -6.451  -0.481 -34.011  1.00  0.00     0.117 A 
HETATM   15  F   UNL     1      -6.384  -0.762 -35.318  1.00  0.00    -0.206 F 
HETATM   16  C   UNL     1      -5.602  -1.130 -33.127  1.00  0.00     0.042 A 
HETATM   17  C   UNL     1      -5.665  -0.824 -31.770  1.00  0.00     0.004 A 
HETATM   18  C   UNL     1      -6.580   0.129 -31.309  1.00  0.00     0.008 A 
ENDBRANCH  11  12
BRANCH   1  19
HETATM   19  C   UNL     1      -6.604   3.543 -32.446  1.00  0.00     0.267 C 
HETATM   20  O   UNL     1      -6.807   3.705 -33.644  1.00  0.00    -0.265 OA
BRANCH  19  21
HETATM   21  O   UNL     1      -5.381   3.556 -31.859  1.00  0.00    -0.316 OA
BRANCH  21  22
HETATM   22  C   UNL     1      -4.286   3.088 -32.673  1.00  0.00     0.123 C 
HETATM   23  C   UNL     1      -3.464   2.066 -31.894  1.00  0.00     0.040 C 
HETATM   24  C   UNL     1      -3.433   4.299 -33.030  1.00  0.00     0.040 C 
ENDBRANCH  21  22
ENDBRANCH  19  21
ENDBRANCH   1  19
BRANCH   2  25
HETATM   25  O   UNL     1      -9.495   4.282 -30.158  1.00  0.00    -0.389 OA
HETATM   26  H   UNL     1      -9.815   3.364 -30.106  1.00  0.00     0.210 HD
ENDBRANCH   2  25
BRANCH   7  27
HETATM   27  O   UNL     1     -10.509  -0.402 -32.756  1.00  0.00    -0.343 OA
HETATM   28  H   UNL     1      -9.649  -0.671 -32.402  1.00  0.00     0.219 HD
ENDBRANCH   7  27
TORSDOF 6
ENDMDL
MODEL 9
REMARK VINA RESULT:      -6.5      2.607      4.778
REMARK  6 active torsions:
REMARK  status: ('A' for Active; 'I' for Inactive)
REMARK    1  A    between atoms: C_2  and  O_3 
REMARK    2  A    between atoms: O_3  and  C_4 
REMARK    3  A    between atoms: C_4  and  C_5 
REMARK    4  A    between atoms: C_6  and  O_7 
REMARK    5  A    between atoms: C_12  and  O_13 
REMARK    6  A    between atoms: C_17  and  C_18 
ROOT
HETATM    1  C   UNL     1      -5.922   2.856 -32.445  1.00  0.00     0.133 C 
HETATM    2  C   UNL     1      -4.392   2.848 -32.141  1.00  0.00     0.073 C 
HETATM    3  C   UNL     1      -3.988   3.886 -31.083  1.00  0.00     0.047 C 
HETATM    4  C   UNL     1      -3.845   1.449 -31.725  1.00  0.00     0.097 C 
HETATM    5  C   UNL     1      -4.453   0.395 -32.576  1.00  0.00     0.042 A 
HETATM    6  C   UNL     1      -5.587   0.501 -33.353  1.00  0.00     0.030 A 
HETATM    7  C   UNL     1      -5.632  -0.738 -34.017  1.00  0.00     0.190 A 
HETATM    8  N   UNL     1      -4.665  -1.573 -33.658  1.00  0.00    -0.149 NA
HETATM    9  N   UNL     1      -3.944  -0.854 -32.781  1.00  0.00    -0.279 N 
HETATM   10  H   UNL     1      -3.109  -1.275 -32.386  1.00  0.00     0.189 HD
HETATM   11  C   UNL     1      -6.379   1.764 -33.459  1.00  0.00     0.075 C 
ENDROOT
BRANCH  11  12
HETATM   12  C   UNL     1      -7.865   1.432 -33.413  1.00  0.00    -0.045 A 
HETATM   13  C   UNL     1      -8.830   2.083 -34.202  1.00  0.00     0.050 A 
HETATM   14  C   UNL     1     -10.165   1.691 -34.158  1.00  0.00     0.117 A 
HETATM   15  F   UNL     1     -11.062   2.324 -34.924  1.00  0.00    -0.206 F 
HETATM   16  C   UNL     1     -10.577   0.648 -33.342  1.00  0.00     0.042 A 
HETATM   17  C   UNL     1      -9.638  -0.017 -32.558  1.00  0.00     0.004 A 
HETATM   18  C   UNL     1      -8.294   0.369 -32.596  1.00  0.00     0.008 A 
ENDBRANCH  11  12
BRANCH   1  19
HETATM   19  C   UNL     1      -6.757   2.904 -31.182  1.00  0.00     0.267 C 
HETATM   20  O   UNL     1      -6.676   2.046 -30.310  1.00  0.00    -0.265 OA
BRANCH  19  21
HETATM   21  O   UNL     1      -7.605   3.963 -31.151  1.00  0.00    -0.316 OA
BRANCH  21  22
HETATM   22  C   UNL     1      -8.618   3.929 -30.125  1.00  0.00     0.123 C 
HETATM   23  C   UNL     1      -9.912   3.359 -30.697  1.00  0.00     0.040 C 
HETATM   24  C   UNL     1      -8.831   5.361 -29.648  1.00  0.00     0.040 C 
ENDBRANCH  21  22
ENDBRANCH  19  21
ENDBRANCH   1  19
BRANCH   2  25
HETATM   25  O   UNL     1      -3.706   3.228 -33.355  1.00  0.00    -0.389 OA
HETATM   26  H   UNL     1      -2.837   3.600 -33.121  1.00  0.00     0.210 HD
ENDBRANCH   2  25
BRANCH   7  27
HETATM   27  O   UNL     1      -6.487  -1.185 -34.939  1.00  0.00    -0.343 OA
HETATM   28  H   UNL     1      -7.021  -1.904 -34.567  1.00  0.00     0.219 HD
ENDBRANCH   7  27
TORSDOF 6
ENDMDL
MODEL 10
REMARK VINA RESULT:      -6.5      2.668      4.549
REMARK  6 active torsions:
REMARK  status: ('A' for Active; 'I' for Inactive)
REMARK    1  A    between atoms: C_2  and  O_3 
REMARK    2  A    between atoms: O_3  and  C_4 
REMARK    3  A    between atoms: C_4  and  C_5 
REMARK    4  A    between atoms: C_6  and  O_7 
REMARK    5  A    between atoms: C_12  and  O_13 
REMARK    6  A    between atoms: C_17  and  C_18 
ROOT
HETATM    1  C   UNL     1      -5.361   3.845 -30.338  1.00  0.00     0.133 C 
HETATM    2  C   UNL     1      -5.834   5.095 -29.534  1.00  0.00     0.073 C 
HETATM    3  C   UNL     1      -4.785   6.218 -29.503  1.00  0.00     0.047 C 
HETATM    4  C   UNL     1      -7.194   5.675 -30.024  1.00  0.00     0.097 C 
HETATM    5  C   UNL     1      -8.137   4.568 -30.326  1.00  0.00     0.042 A 
HETATM    6  C   UNL     1      -7.826   3.240 -30.531  1.00  0.00     0.030 A 
HETATM    7  C   UNL     1      -9.089   2.636 -30.660  1.00  0.00     0.190 A 
HETATM    8  N   UNL     1     -10.101   3.493 -30.604  1.00  0.00    -0.149 NA
HETATM    9  N   UNL     1      -9.496   4.673 -30.386  1.00  0.00    -0.279 N 
HETATM   10  H   UNL     1     -10.077   5.496 -30.266  1.00  0.00     0.189 HD
HETATM   11  C   UNL     1      -6.429   2.715 -30.453  1.00  0.00     0.075 C 
ENDROOT
BRANCH  11  12
HETATM   12  C   UNL     1      -6.196   1.731 -31.592  1.00  0.00    -0.045 A 
HETATM   13  C   UNL     1      -6.684   1.925 -32.896  1.00  0.00     0.050 A 
HETATM   14  C   UNL     1      -6.384   1.018 -33.909  1.00  0.00     0.117 A 
HETATM   15  F   UNL     1      -6.857   1.230 -35.144  1.00  0.00    -0.206 F 
HETATM   16  C   UNL     1      -5.595  -0.095 -33.660  1.00  0.00     0.042 A 
HETATM   17  C   UNL     1      -5.094  -0.304 -32.378  1.00  0.00     0.004 A 
HETATM   18  C   UNL     1      -5.389   0.603 -31.354  1.00  0.00     0.008 A 
ENDBRANCH  11  12
BRANCH   1  19
HETATM   19  C   UNL     1      -4.724   4.221 -31.660  1.00  0.00     0.267 C 
HETATM   20  O   UNL     1      -5.355   4.766 -32.559  1.00  0.00    -0.265 OA
BRANCH  19  21
HETATM   21  O   UNL     1      -3.419   3.861 -31.739  1.00  0.00    -0.316 OA
BRANCH  21  22
HETATM   22  C   UNL     1      -2.508   4.884 -32.188  1.00  0.00     0.123 C 
HETATM   23  C   UNL     1      -2.057   4.582 -33.614  1.00  0.00     0.040 C 
HETATM   24  C   UNL     1      -1.315   4.881 -31.240  1.00  0.00     0.040 C 
ENDBRANCH  21  22
ENDBRANCH  19  21
ENDBRANCH   1  19
BRANCH   2  25
HETATM   25  O   UNL     1      -6.018   4.683 -28.160  1.00  0.00    -0.389 OA
HETATM   26  H   UNL     1      -6.958   4.471 -28.020  1.00  0.00     0.210 HD
ENDBRANCH   2  25
BRANCH   7  27
HETATM   27  O   UNL     1      -9.412   1.351 -30.824  1.00  0.00    -0.343 OA
HETATM   28  H   UNL     1      -9.187   0.854 -30.023  1.00  0.00     0.219 HD
ENDBRANCH   7  27
TORSDOF 6
ENDMDL
