MODEL 1
REMARK VINA RESULT:      -7.2      0.000      0.000
REMARK  8 active torsions:
REMARK  status: ('A' for Active; 'I' for Inactive)
REMARK    1  A    between atoms: C_4  and  C_5 
REMARK    2  A    between atoms: C_5  and  N_6 
REMARK    3  A    between atoms: N_6  and  C_9 
REMARK    4  A    between atoms: C_9  and  C_10 
REMARK    5  A    between atoms: C_10  and  C_11 
REMARK    6  A    between atoms: C_11  and  N_12 
REMARK       I    between atoms: N_12  and  C_13 
REMARK    7  A    between atoms: C_13  and  C_14 
REMARK    8  A    between atoms: C_16  and  O_17 
ROOT
HETATM    1  C   UNL     1      -8.170   1.420 -31.760  1.00  0.00     0.047 C 
ENDROOT
BRANCH   1   2
HETATM    2  C   UNL     1      -7.720   2.834 -32.099  1.00  0.00     0.235 C 
BRANCH   2   3
HETATM    3  N   UNL     1      -6.336   2.832 -32.665  1.00  0.00    -0.067 N 
HETATM    4  H   UNL     1      -6.390   3.039 -33.675  1.00  0.00     0.277 HD
HETATM    5  H   UNL     1      -5.907   1.898 -32.624  1.00  0.00     0.277 HD
BRANCH   3   6
HETATM    6  C   UNL     1      -5.367   3.813 -32.056  1.00  0.00     0.223 C 
HETATM    7  C   UNL     1      -4.589   3.143 -30.923  1.00  0.00     0.046 C 
BRANCH   6   8
HETATM    8  C   UNL     1      -4.433   4.376 -33.080  1.00  0.00     0.032 A 
HETATM    9  S   UNL     1      -2.725   4.198 -32.971  1.00  0.00    -0.076 SA
HETATM   10  C   UNL     1      -2.538   5.129 -34.404  1.00  0.00     0.071 A 
HETATM   11  C   UNL     1      -1.186   5.430 -34.954  1.00  0.00     0.078 C 
HETATM   12  N   UNL     1      -3.663   5.536 -34.951  1.00  0.00    -0.257 NA
HETATM   13  C   UNL     1      -4.739   5.122 -34.201  1.00  0.00     0.134 A 
ENDBRANCH   6   8
ENDBRANCH   3   6
ENDBRANCH   2   3
ENDBRANCH   1   2
BRANCH   1  14
HETATM   14  C   UNL     1      -8.690   0.658 -32.979  1.00  0.00     0.124 C 
BRANCH  14  15
HETATM   15  N   UNL     1      -7.936  -0.546 -33.235  1.00  0.00    -0.357 N 
HETATM   16  C   UNL     1      -6.794  -0.522 -34.011  1.00  0.00     0.251 C 
HETATM   17  O   UNL     1      -6.408   0.494 -34.579  1.00  0.00    -0.268 OA
HETATM   18  H   UNL     1      -8.288  -1.436 -32.899  1.00  0.00     0.162 HD
BRANCH  16  19
HETATM   19  C   UNL     1      -6.084  -1.819 -34.163  1.00  0.00     0.034 A 
HETATM   20  C   UNL     1      -6.757  -2.890 -34.762  1.00  0.00     0.053 A 
HETATM   21  C   UNL     1      -6.107  -4.114 -34.885  1.00  0.00     0.066 A 
HETATM   22  C   UNL     1      -4.800  -4.281 -34.437  1.00  0.00     0.036 A 
HETATM   23  C   UNL     1      -4.121  -3.208 -33.862  1.00  0.00     0.004 A 
HETATM   24  C   UNL     1      -4.760  -1.974 -33.725  1.00  0.00     0.017 A 
BRANCH  21  25
HETATM   25  O   UNL     1      -6.720  -5.196 -35.443  1.00  0.00    -0.361 OA
HETATM   26  H   UNL     1      -7.678  -5.037 -35.493  1.00  0.00     0.217 HD
ENDBRANCH  21  25
ENDBRANCH  16  19
ENDBRANCH  14  15
ENDBRANCH   1  14
TORSDOF 8
ENDMDL
MODEL 2
REMARK VINA RESULT:      -7.1      1.409      1.814
REMARK  8 active torsions:
REMARK  status: ('A' for Active; 'I' for Inactive)
REMARK    1  A    between atoms: C_4  and  C_5 
REMARK    2  A    between atoms: C_5  and  N_6 
REMARK    3  A    between atoms: N_6  and  C_9 
REMARK    4  A    between atoms: C_9  and  C_10 
REMARK    5  A    between atoms: C_10  and  C_11 
REMARK    6  A    between atoms: C_11  and  N_12 
REMARK       I    between atoms: N_12  and  C_13 
REMARK    7  A    between atoms: C_13  and  C_14 
REMARK    8  A    between atoms: C_16  and  O_17 
ROOT
HETATM    1  C   UNL     1      -9.211   0.796 -32.805  1.00  0.00     0.047 C 
ENDROOT
BRANCH   1   2
HETATM    2  C   UNL     1      -8.732   1.860 -31.829  1.00  0.00     0.235 C 
BRANCH   2   3
HETATM    3  N   UNL     1      -7.370   2.353 -32.203  1.00  0.00    -0.067 N 
HETATM    4  H   UNL     1      -7.469   3.240 -32.722  1.00  0.00     0.277 HD
HETATM    5  H   UNL     1      -6.905   1.724 -32.870  1.00  0.00     0.277 HD
BRANCH   3   6
HETATM    6  C   UNL     1      -6.418   2.605 -31.062  1.00  0.00     0.223 C 
HETATM    7  C   UNL     1      -6.337   1.367 -30.167  1.00  0.00     0.046 C 
BRANCH   6   8
HETATM    8  C   UNL     1      -5.058   2.993 -31.553  1.00  0.00     0.032 A 
HETATM    9  S   UNL     1      -4.823   4.149 -32.806  1.00  0.00    -0.076 SA
HETATM   10  C   UNL     1      -3.125   3.897 -32.717  1.00  0.00     0.071 A 
HETATM   11  C   UNL     1      -2.192   4.628 -33.620  1.00  0.00     0.078 C 
HETATM   12  N   UNL     1      -2.740   3.029 -31.806  1.00  0.00    -0.257 NA
HETATM   13  C   UNL     1      -3.831   2.505 -31.152  1.00  0.00     0.134 A 
ENDBRANCH   6   8
ENDBRANCH   3   6
ENDBRANCH   2   3
ENDBRANCH   1   2
BRANCH   1  14
HETATM   14  C   UNL     1      -8.369   0.743 -34.081  1.00  0.00     0.124 C 
BRANCH  14  15
HETATM   15  N   UNL     1      -7.680  -0.516 -34.231  1.00  0.00    -0.357 N 
HETATM   16  C   UNL     1      -6.324  -0.622 -33.992  1.00  0.00     0.251 C 
HETATM   17  O   UNL     1      -5.629   0.351 -33.717  1.00  0.00    -0.268 OA
HETATM   18  H   UNL     1      -8.184  -1.322 -34.586  1.00  0.00     0.162 HD
BRANCH  16  19
HETATM   19  C   UNL     1      -5.742  -1.982 -34.139  1.00  0.00     0.034 A 
HETATM   20  C   UNL     1      -6.498  -2.974 -34.771  1.00  0.00     0.053 A 
HETATM   21  C   UNL     1      -5.968  -4.255 -34.891  1.00  0.00     0.066 A 
HETATM   22  C   UNL     1      -4.700  -4.556 -34.406  1.00  0.00     0.036 A 
HETATM   23  C   UNL     1      -3.936  -3.561 -33.796  1.00  0.00     0.004 A 
HETATM   24  C   UNL     1      -4.453  -2.272 -33.663  1.00  0.00     0.017 A 
BRANCH  21  25
HETATM   25  O   UNL     1      -6.669  -5.266 -35.480  1.00  0.00    -0.361 OA
HETATM   26  H   UNL     1      -7.391  -4.893 -36.014  1.00  0.00     0.217 HD
ENDBRANCH  21  25
ENDBRANCH  16  19
ENDBRANCH  14  15
ENDBRANCH   1  14
TORSDOF 8
ENDMDL
MODEL 3
REMARK VINA RESULT:      -7.0      1.317      1.701
REMARK  8 active torsions:
REMARK  status: ('A' for Active; 'I' for Inactive)
REMARK    1  A    between atoms: C_4  and  C_5 
REMARK    2  A    between atoms: C_5  and  N_6 
REMARK    3  A    between atoms: N_6  and  C_9 
REMARK    4  A    between atoms: C_9  and  C_10 
REMARK    5  A    between atoms: C_10  and  C_11 
REMARK    6  A    between atoms: C_11  and  N_12 
REMARK       I    between atoms: N_12  and  C_13 
REMARK    7  A    between atoms: C_13  and  C_14 
REMARK    8  A    between atoms: C_16  and  O_17 
ROOT
HETATM    1  C   UNL     1      -7.631   1.994 -33.132  1.00  0.00     0.047 C 
ENDROOT
BRANCH   1   2
HETATM    2  C   UNL     1      -7.248   2.526 -31.759  1.00  0.00     0.235 C 
BRANCH   2   3
HETATM    3  N   UNL     1      -6.742   3.930 -31.852  1.00  0.00    -0.067 N 
HETATM    4  H   UNL     1      -7.324   4.534 -31.250  1.00  0.00     0.277 HD
HETATM    5  H   UNL     1      -6.869   4.321 -32.795  1.00  0.00     0.277 HD
BRANCH   3   6
HETATM    6  C   UNL     1      -5.305   4.147 -31.452  1.00  0.00     0.223 C 
HETATM    7  C   UNL     1      -4.739   2.872 -30.826  1.00  0.00     0.046 C 
BRANCH   6   8
HETATM    8  C   UNL     1      -4.468   4.584 -32.613  1.00  0.00     0.032 A 
HETATM    9  S   UNL     1      -2.781   4.257 -32.711  1.00  0.00    -0.076 SA
HETATM   10  C   UNL     1      -2.705   5.113 -34.201  1.00  0.00     0.071 A 
HETATM   11  C   UNL     1      -1.415   5.269 -34.930  1.00  0.00     0.078 C 
HETATM   12  N   UNL     1      -3.853   5.598 -34.621  1.00  0.00    -0.257 NA
HETATM   13  C   UNL     1      -4.853   5.312 -33.721  1.00  0.00     0.134 A 
ENDBRANCH   6   8
ENDBRANCH   3   6
ENDBRANCH   2   3
ENDBRANCH   1   2
BRANCH   1  14
HETATM   14  C   UNL     1      -6.416   1.606 -33.975  1.00  0.00     0.124 C 
BRANCH  14  15
HETATM   15  N   UNL     1      -6.379   0.193 -34.265  1.00  0.00    -0.357 N 
HETATM   16  C   UNL     1      -5.354  -0.607 -33.799  1.00  0.00     0.251 C 
HETATM   17  O   UNL     1      -4.393  -0.150 -33.187  1.00  0.00    -0.268 OA
HETATM   18  H   UNL     1      -7.079  -0.209 -34.881  1.00  0.00     0.162 HD
BRANCH  16  19
HETATM   19  C   UNL     1      -5.455  -2.052 -34.129  1.00  0.00     0.034 A 
HETATM   20  C   UNL     1      -4.335  -2.868 -33.935  1.00  0.00     0.053 A 
HETATM   21  C   UNL     1      -4.416  -4.217 -34.265  1.00  0.00     0.066 A 
HETATM   22  C   UNL     1      -5.592  -4.764 -34.767  1.00  0.00     0.036 A 
HETATM   23  C   UNL     1      -6.716  -3.957 -34.938  1.00  0.00     0.004 A 
HETATM   24  C   UNL     1      -6.651  -2.600 -34.617  1.00  0.00     0.017 A 
BRANCH  21  25
HETATM   25  O   UNL     1      -3.350  -5.054 -34.116  1.00  0.00    -0.361 OA
HETATM   26  H   UNL     1      -2.688  -4.863 -34.801  1.00  0.00     0.217 HD
ENDBRANCH  21  25
ENDBRANCH  16  19
ENDBRANCH  14  15
ENDBRANCH   1  14
TORSDOF 8
ENDMDL
MODEL 4
REMARK VINA RESULT:      -7.0      3.909      6.417
REMARK  8 active torsions:
REMARK  status: ('A' for Active; 'I' for Inactive)
REMARK    1  A    between atoms: C_4  and  C_5 
REMARK    2  A    between atoms: C_5  and  N_6 
REMARK    3  A    between atoms: N_6  and  C_9 
REMARK    4  A    between atoms: C_9  and  C_10 
REMARK    5  A    between atoms: C_10  and  C_11 
REMARK    6  A    between atoms: C_11  and  N_12 
REMARK       I    between atoms: N_12  and  C_13 
REMARK    7  A    between atoms: C_13  and  C_14 
REMARK    8  A    between atoms: C_16  and  O_17 
ROOT
HETATM    1  C   UNL     1      -7.614   2.023 -33.332  1.00  0.00     0.047 C 
ENDROOT
BRANCH   1   2
HETATM    2  C   UNL     1      -8.704   1.110 -33.874  1.00  0.00     0.235 C 
BRANCH   2   3
HETATM    3  N   UNL     1      -9.567   1.834 -34.857  1.00  0.00    -0.067 N 
HETATM    4  H   UNL     1     -10.151   1.146 -35.358  1.00  0.00     0.277 HD
HETATM    5  H   UNL     1      -9.011   2.277 -35.601  1.00  0.00     0.277 HD
BRANCH   3   6
HETATM    6  C   UNL     1     -10.492   2.879 -34.287  1.00  0.00     0.223 C 
HETATM    7  C   UNL     1     -10.404   4.162 -35.115  1.00  0.00     0.046 C 
BRANCH   6   8
HETATM    8  C   UNL     1     -11.904   2.388 -34.218  1.00  0.00     0.032 A 
HETATM    9  S   UNL     1     -12.974   2.830 -32.945  1.00  0.00    -0.076 SA
HETATM   10  C   UNL     1     -14.196   1.833 -33.630  1.00  0.00     0.071 A 
HETATM   11  C   UNL     1     -15.531   1.700 -32.982  1.00  0.00     0.078 C 
HETATM   12  N   UNL     1     -13.854   1.222 -34.743  1.00  0.00    -0.257 NA
HETATM   13  C   UNL     1     -12.553   1.523 -35.075  1.00  0.00     0.134 A 
ENDBRANCH   6   8
ENDBRANCH   3   6
ENDBRANCH   2   3
ENDBRANCH   1   2
BRANCH   1  14
HETATM   14  C   UNL     1      -6.219   1.405 -33.439  1.00  0.00     0.124 C 
BRANCH  14  15
HETATM   15  N   UNL     1      -6.263   0.012 -33.809  1.00  0.00    -0.357 N 
HETATM   16  C   UNL     1      -5.141  -0.788 -33.719  1.00  0.00     0.251 C 
HETATM   17  O   UNL     1      -4.044  -0.343 -33.398  1.00  0.00    -0.268 OA
HETATM   18  H   UNL     1      -7.113  -0.372 -34.210  1.00  0.00     0.162 HD
BRANCH  16  19
HETATM   19  C   UNL     1      -5.328  -2.215 -34.088  1.00  0.00     0.034 A 
HETATM   20  C   UNL     1      -4.262  -3.103 -33.911  1.00  0.00     0.053 A 
HETATM   21  C   UNL     1      -4.422  -4.436 -34.277  1.00  0.00     0.066 A 
HETATM   22  C   UNL     1      -5.627  -4.896 -34.800  1.00  0.00     0.036 A 
HETATM   23  C   UNL     1      -6.698  -4.018 -34.954  1.00  0.00     0.004 A 
HETATM   24  C   UNL     1      -6.552  -2.676 -34.597  1.00  0.00     0.017 A 
BRANCH  21  25
HETATM   25  O   UNL     1      -3.411  -5.340 -34.145  1.00  0.00    -0.361 OA
HETATM   26  H   UNL     1      -3.515  -5.825 -33.309  1.00  0.00     0.217 HD
ENDBRANCH  21  25
ENDBRANCH  16  19
ENDBRANCH  14  15
ENDBRANCH   1  14
TORSDOF 8
ENDMDL
MODEL 5
REMARK VINA RESULT:      -7.0      3.792      6.822
REMARK  8 active torsions:
REMARK  status: ('A' for Active; 'I' for Inactive)
REMARK    1  A    between atoms: C_4  and  C_5 
REMARK    2  A    between atoms: C_5  and  N_6 
REMARK    3  A    between atoms: N_6  and  C_9 
REMARK    4  A    between atoms: C_9  and  C_10 
REMARK    5  A    between atoms: C_10  and  C_11 
REMARK    6  A    between atoms: C_11  and  N_12 
REMARK       I    between atoms: N_12  and  C_13 
REMARK    7  A    between atoms: C_13  and  C_14 
REMARK    8  A    between atoms: C_16  and  O_17 
ROOT
HETATM    1  C   UNL     1      -7.688   2.085 -30.975  1.00  0.00     0.047 C 
ENDROOT
BRANCH   1   2
HETATM    2  C   UNL     1      -6.749   0.888 -30.961  1.00  0.00     0.235 C 
BRANCH   2   3
HETATM    3  N   UNL     1      -6.723   0.214 -32.296  1.00  0.00    -0.067 N 
HETATM    4  H   UNL     1      -7.223   0.807 -32.977  1.00  0.00     0.277 HD
HETATM    5  H   UNL     1      -7.256  -0.665 -32.291  1.00  0.00     0.277 HD
BRANCH   3   6
HETATM    6  C   UNL     1      -5.359  -0.075 -32.868  1.00  0.00     0.223 C 
HETATM    7  C   UNL     1      -4.308  -0.035 -31.758  1.00  0.00     0.046 C 
BRANCH   6   8
HETATM    8  C   UNL     1      -5.327  -1.390 -33.582  1.00  0.00     0.032 A 
HETATM    9  S   UNL     1      -6.710  -2.053 -34.361  1.00  0.00    -0.076 SA
HETATM   10  C   UNL     1      -5.800  -3.449 -34.785  1.00  0.00     0.071 A 
HETATM   11  C   UNL     1      -6.425  -4.574 -35.536  1.00  0.00     0.078 C 
HETATM   12  N   UNL     1      -4.543  -3.429 -34.398  1.00  0.00    -0.257 NA
HETATM   13  C   UNL     1      -4.272  -2.271 -33.707  1.00  0.00     0.134 A 
ENDBRANCH   6   8
ENDBRANCH   3   6
ENDBRANCH   2   3
ENDBRANCH   1   2
BRANCH   1  14
HETATM   14  C   UNL     1      -8.020   2.558 -32.391  1.00  0.00     0.124 C 
BRANCH  14  15
HETATM   15  N   UNL     1      -9.404   2.334 -32.733  1.00  0.00    -0.357 N 
HETATM   16  C   UNL     1      -9.759   1.454 -33.736  1.00  0.00     0.251 C 
HETATM   17  O   UNL     1      -8.925   0.882 -34.432  1.00  0.00    -0.268 OA
HETATM   18  H   UNL     1     -10.126   2.884 -32.279  1.00  0.00     0.162 HD
BRANCH  16  19
HETATM   19  C   UNL     1     -11.217   1.279 -33.962  1.00  0.00     0.034 A 
HETATM   20  C   UNL     1     -11.849   0.146 -33.439  1.00  0.00     0.053 A 
HETATM   21  C   UNL     1     -13.210  -0.036 -33.668  1.00  0.00     0.066 A 
HETATM   22  C   UNL     1     -13.947   0.896 -34.392  1.00  0.00     0.036 A 
HETATM   23  C   UNL     1     -13.323   2.037 -34.893  1.00  0.00     0.004 A 
HETATM   24  C   UNL     1     -11.958   2.233 -34.678  1.00  0.00     0.017 A 
BRANCH  21  25
HETATM   25  O   UNL     1     -13.873  -1.131 -33.199  1.00  0.00    -0.361 OA
HETATM   26  H   UNL     1     -13.532  -1.366 -32.320  1.00  0.00     0.217 HD
ENDBRANCH  21  25
ENDBRANCH  16  19
ENDBRANCH  14  15
ENDBRANCH   1  14
TORSDOF 8
ENDMDL
MODEL 6
REMARK VINA RESULT:      -6.9      3.140      5.014
REMARK  8 active torsions:
REMARK  status: ('A' for Active; 'I' for Inactive)
REMARK    1  A    between atoms: C_4  and  C_5 
REMARK    2  A    between atoms: C_5  and  N_6 
REMARK    3  A    between atoms: N_6  and  C_9 
REMARK    4  A    between atoms: C_9  and  C_10 
REMARK    5  A    between atoms: C_10  and  C_11 
REMARK    6  A    between atoms: C_11  and  N_12 
REMARK       I    between atoms: N_12  and  C_13 
REMARK    7  A    between atoms: C_13  and  C_14 
REMARK    8  A    between atoms: C_16  and  O_17 
ROOT
HETATM    1  C   UNL     1      -4.164   1.223 -30.927  1.00  0.00     0.047 C 
ENDROOT
BRANCH   1   2
HETATM    2  C   UNL     1      -5.647   1.200 -30.585  1.00  0.00     0.235 C 
BRANCH   2   3
HETATM    3  N   UNL     1      -6.425   2.063 -31.526  1.00  0.00    -0.067 N 
HETATM    4  H   UNL     1      -6.513   1.573 -32.430  1.00  0.00     0.277 HD
HETATM    5  H   UNL     1      -5.920   2.928 -31.759  1.00  0.00     0.277 HD
BRANCH   3   6
HETATM    6  C   UNL     1      -7.815   2.444 -31.084  1.00  0.00     0.223 C 
HETATM    7  C   UNL     1      -7.982   3.963 -31.138  1.00  0.00     0.046 C 
BRANCH   6   8
HETATM    8  C   UNL     1      -8.863   1.766 -31.909  1.00  0.00     0.032 A 
HETATM    9  S   UNL     1     -10.115   2.635 -32.709  1.00  0.00    -0.076 SA
HETATM   10  C   UNL     1     -10.779   1.154 -33.275  1.00  0.00     0.071 A 
HETATM   11  C   UNL     1     -12.016   1.134 -34.105  1.00  0.00     0.078 C 
HETATM   12  N   UNL     1     -10.114   0.076 -32.918  1.00  0.00    -0.257 NA
HETATM   13  C   UNL     1      -9.034   0.415 -32.136  1.00  0.00     0.134 A 
ENDBRANCH   6   8
ENDBRANCH   3   6
ENDBRANCH   2   3
ENDBRANCH   1   2
BRANCH   1  14
HETATM   14  C   UNL     1      -3.899   0.989 -32.415  1.00  0.00     0.124 C 
BRANCH  14  15
HETATM   15  N   UNL     1      -4.195  -0.364 -32.819  1.00  0.00    -0.357 N 
HETATM   16  C   UNL     1      -5.224  -0.639 -33.698  1.00  0.00     0.251 C 
HETATM   17  O   UNL     1      -5.979   0.233 -34.116  1.00  0.00    -0.268 OA
HETATM   18  H   UNL     1      -3.685  -1.133 -32.397  1.00  0.00     0.162 HD
BRANCH  16  19
HETATM   19  C   UNL     1      -5.398  -2.067 -34.068  1.00  0.00     0.034 A 
HETATM   20  C   UNL     1      -4.313  -2.938 -33.927  1.00  0.00     0.053 A 
HETATM   21  C   UNL     1      -4.463  -4.272 -34.295  1.00  0.00     0.066 A 
HETATM   22  C   UNL     1      -5.674  -4.749 -34.784  1.00  0.00     0.036 A 
HETATM   23  C   UNL     1      -6.763  -3.888 -34.903  1.00  0.00     0.004 A 
HETATM   24  C   UNL     1      -6.629  -2.546 -34.544  1.00  0.00     0.017 A 
BRANCH  21  25
HETATM   25  O   UNL     1      -3.433  -5.160 -34.197  1.00  0.00    -0.361 OA
HETATM   26  H   UNL     1      -2.830  -4.882 -33.487  1.00  0.00     0.217 HD
ENDBRANCH  21  25
ENDBRANCH  16  19
ENDBRANCH  14  15
ENDBRANCH   1  14
TORSDOF 8
ENDMDL
MODEL 7
REMARK VINA RESULT:      -6.9      1.892      2.448
REMARK  8 active torsions:
REMARK  status: ('A' for Active; 'I' for Inactive)
REMARK    1  A    between atoms: C_4  and  C_5 
REMARK    2  A    between atoms: C_5  and  N_6 
REMARK    3  A    between atoms: N_6  and  C_9 
REMARK    4  A    between atoms: C_9  and  C_10 
REMARK    5  A    between atoms: C_10  and  C_11 
REMARK    6  A    between atoms: C_11  and  N_12 
REMARK       I    between atoms: N_12  and  C_13 
REMARK    7  A    between atoms: C_13  and  C_14 
REMARK    8  A    between atoms: C_16  and  O_17 
ROOT
HETATM    1  C   UNL     1      -5.372   2.348 -32.353  1.00  0.00     0.047 C 
ENDROOT
BRANCH   1   2
HETATM    2  C   UNL     1      -5.664   3.626 -33.125  1.00  0.00     0.235 C 
BRANCH   2   3
HETATM    3  N   UNL     1      -4.644   4.676 -32.824  1.00  0.00    -0.067 N 
HETATM    4  H   UNL     1      -4.300   4.539 -31.860  1.00  0.00     0.277 HD
HETATM    5  H   UNL     1      -5.056   5.618 -32.809  1.00  0.00     0.277 HD
BRANCH   3   6
HETATM    6  C   UNL     1      -3.439   4.713 -33.729  1.00  0.00     0.223 C 
HETATM    7  C   UNL     1      -3.846   5.203 -35.119  1.00  0.00     0.046 C 
BRANCH   6   8
HETATM    8  C   UNL     1      -2.349   5.568 -33.164  1.00  0.00     0.032 A 
HETATM    9  S   UNL     1      -1.420   5.096 -31.794  1.00  0.00    -0.076 SA
HETATM   10  C   UNL     1      -0.567   6.587 -31.862  1.00  0.00     0.071 A 
HETATM   11  C   UNL     1       0.491   6.912 -30.864  1.00  0.00     0.078 C 
HETATM   12  N   UNL     1      -0.922   7.385 -32.845  1.00  0.00    -0.257 NA
HETATM   13  C   UNL     1      -1.938   6.819 -33.580  1.00  0.00     0.134 A 
ENDBRANCH   6   8
ENDBRANCH   3   6
ENDBRANCH   2   3
ENDBRANCH   1   2
BRANCH   1  14
HETATM   14  C   UNL     1      -6.556   1.380 -32.343  1.00  0.00     0.124 C 
BRANCH  14  15
HETATM   15  N   UNL     1      -6.159   0.025 -32.637  1.00  0.00    -0.357 N 
HETATM   16  C   UNL     1      -6.234  -0.481 -33.920  1.00  0.00     0.251 C 
HETATM   17  O   UNL     1      -6.710   0.162 -34.851  1.00  0.00    -0.268 OA
HETATM   18  H   UNL     1      -5.885  -0.591 -31.878  1.00  0.00     0.162 HD
BRANCH  16  19
HETATM   19  C   UNL     1      -5.754  -1.876 -34.099  1.00  0.00     0.034 A 
HETATM   20  C   UNL     1      -6.600  -2.807 -34.710  1.00  0.00     0.053 A 
HETATM   21  C   UNL     1      -6.165  -4.121 -34.859  1.00  0.00     0.066 A 
HETATM   22  C   UNL     1      -4.903  -4.513 -34.425  1.00  0.00     0.036 A 
HETATM   23  C   UNL     1      -4.050  -3.579 -33.838  1.00  0.00     0.004 A 
HETATM   24  C   UNL     1      -4.472  -2.259 -33.676  1.00  0.00     0.017 A 
BRANCH  21  25
HETATM   25  O   UNL     1      -6.956  -5.074 -35.429  1.00  0.00    -0.361 OA
HETATM   26  H   UNL     1      -6.549  -5.949 -35.309  1.00  0.00     0.217 HD
ENDBRANCH  21  25
ENDBRANCH  16  19
ENDBRANCH  14  15
ENDBRANCH   1  14
TORSDOF 8
ENDMDL
MODEL 8
REMARK VINA RESULT:      -6.7      3.466      6.004
REMARK  8 active torsions:
REMARK  status: ('A' for Active; 'I' for Inactive)
REMARK    1  A    between atoms: C_4  and  C_5 
REMARK    2  A    between atoms: C_5  and  N_6 
REMARK    3  A    between atoms: N_6  and  C_9 
REMARK    4  A    between atoms: C_9  and  C_10 
REMARK    5  A    between atoms: C_10  and  C_11 
REMARK    6  A    between atoms: C_11  and  N_12 
REMARK       I    between atoms: N_12  and  C_13 
REMARK    7  A    between atoms: C_13  and  C_14 
REMARK    8  A    between atoms: C_16  and  O_17 
ROOT
HETATM    1  C   UNL     1      -6.649   2.316 -32.255  1.00  0.00     0.047 C 
ENDROOT
BRANCH   1   2
HETATM    2  C   UNL     1      -8.113   2.525 -31.895  1.00  0.00     0.235 C 
BRANCH   2   3
HETATM    3  N   UNL     1      -9.003   2.118 -33.025  1.00  0.00    -0.067 N 
HETATM    4  H   UNL     1      -9.310   1.145 -32.873  1.00  0.00     0.277 HD
HETATM    5  H   UNL     1      -8.495   2.082 -33.919  1.00  0.00     0.277 HD
BRANCH   3   6
HETATM    6  C   UNL     1     -10.241   2.953 -33.231  1.00  0.00     0.223 C 
HETATM    7  C   UNL     1     -10.024   3.934 -34.384  1.00  0.00     0.046 C 
BRANCH   6   8
HETATM    8  C   UNL     1     -11.446   2.102 -33.478  1.00  0.00     0.032 A 
HETATM    9  S   UNL     1     -13.026   2.764 -33.648  1.00  0.00    -0.076 SA
HETATM   10  C   UNL     1     -13.670   1.179 -33.818  1.00  0.00     0.071 A 
HETATM   11  C   UNL     1     -15.132   0.959 -34.000  1.00  0.00     0.078 C 
HETATM   12  N   UNL     1     -12.779   0.212 -33.775  1.00  0.00    -0.257 NA
HETATM   13  C   UNL     1     -11.520   0.727 -33.572  1.00  0.00     0.134 A 
ENDBRANCH   6   8
ENDBRANCH   3   6
ENDBRANCH   2   3
ENDBRANCH   1   2
BRANCH   1  14
HETATM   14  C   UNL     1      -6.452   1.900 -33.713  1.00  0.00     0.124 C 
BRANCH  14  15
HETATM   15  N   UNL     1      -5.899   0.573 -33.834  1.00  0.00    -0.357 N 
HETATM   16  C   UNL     1      -6.716  -0.536 -33.932  1.00  0.00     0.251 C 
HETATM   17  O   UNL     1      -7.937  -0.461 -33.843  1.00  0.00    -0.268 OA
HETATM   18  H   UNL     1      -4.894   0.444 -33.777  1.00  0.00     0.162 HD
BRANCH  16  19
HETATM   19  C   UNL     1      -6.024  -1.841 -34.097  1.00  0.00     0.034 A 
HETATM   20  C   UNL     1      -6.691  -2.880 -34.755  1.00  0.00     0.053 A 
HETATM   21  C   UNL     1      -6.058  -4.112 -34.891  1.00  0.00     0.066 A 
HETATM   22  C   UNL     1      -4.773  -4.317 -34.398  1.00  0.00     0.036 A 
HETATM   23  C   UNL     1      -4.098  -3.275 -33.763  1.00  0.00     0.004 A 
HETATM   24  C   UNL     1      -4.720  -2.035 -33.613  1.00  0.00     0.017 A 
BRANCH  21  25
HETATM   25  O   UNL     1      -6.668  -5.164 -35.506  1.00  0.00    -0.361 OA
HETATM   26  H   UNL     1      -7.167  -4.846 -36.277  1.00  0.00     0.217 HD
ENDBRANCH  21  25
ENDBRANCH  16  19
ENDBRANCH  14  15
ENDBRANCH   1  14
TORSDOF 8
ENDMDL
MODEL 9
REMARK VINA RESULT:      -6.7      1.795      2.179
REMARK  8 active torsions:
REMARK  status: ('A' for Active; 'I' for Inactive)
REMARK    1  A    between atoms: C_4  and  C_5 
REMARK    2  A    between atoms: C_5  and  N_6 
REMARK    3  A    between atoms: N_6  and  C_9 
REMARK    4  A    between atoms: C_9  and  C_10 
REMARK    5  A    between atoms: C_10  and  C_11 
REMARK    6  A    between atoms: C_11  and  N_12 
REMARK       I    between atoms: N_12  and  C_13 
REMARK    7  A    between atoms: C_13  and  C_14 
REMARK    8  A    between atoms: C_16  and  O_17 
ROOT
HETATM    1  C   UNL     1      -5.812   1.096 -30.618  1.00  0.00     0.047 C 
ENDROOT
BRANCH   1   2
HETATM    2  C   UNL     1      -6.609   2.382 -30.451  1.00  0.00     0.235 C 
BRANCH   2   3
HETATM    3  N   UNL     1      -6.549   3.212 -31.693  1.00  0.00    -0.067 N 
HETATM    4  H   UNL     1      -7.510   3.363 -32.039  1.00  0.00     0.277 HD
HETATM    5  H   UNL     1      -6.082   2.714 -32.463  1.00  0.00     0.277 HD
BRANCH   3   6
HETATM    6  C   UNL     1      -5.901   4.566 -31.557  1.00  0.00     0.223 C 
HETATM    7  C   UNL     1      -5.786   4.943 -30.080  1.00  0.00     0.046 C 
BRANCH   6   8
HETATM    8  C   UNL     1      -4.561   4.606 -32.221  1.00  0.00     0.032 A 
HETATM    9  S   UNL     1      -4.343   5.177 -33.830  1.00  0.00    -0.076 SA
HETATM   10  C   UNL     1      -2.666   4.813 -33.729  1.00  0.00     0.071 A 
HETATM   11  C   UNL     1      -1.757   5.056 -34.885  1.00  0.00     0.078 C 
HETATM   12  N   UNL     1      -2.274   4.319 -32.575  1.00  0.00    -0.257 NA
HETATM   13  C   UNL     1      -3.344   4.189 -31.721  1.00  0.00     0.134 A 
ENDBRANCH   6   8
ENDBRANCH   3   6
ENDBRANCH   2   3
ENDBRANCH   1   2
BRANCH   1  14
HETATM   14  C   UNL     1      -5.217   0.948 -32.018  1.00  0.00     0.124 C 
BRANCH  14  15
HETATM   15  N   UNL     1      -5.237  -0.418 -32.481  1.00  0.00    -0.357 N 
HETATM   16  C   UNL     1      -5.736  -0.743 -33.727  1.00  0.00     0.251 C 
HETATM   17  O   UNL     1      -6.251   0.090 -34.465  1.00  0.00    -0.268 OA
HETATM   18  H   UNL     1      -4.946  -1.162 -31.855  1.00  0.00     0.162 HD
BRANCH  16  19
HETATM   19  C   UNL     1      -5.660  -2.179 -34.104  1.00  0.00     0.034 A 
HETATM   20  C   UNL     1      -4.470  -2.876 -33.869  1.00  0.00     0.053 A 
HETATM   21  C   UNL     1      -4.385  -4.214 -34.242  1.00  0.00     0.066 A 
HETATM   22  C   UNL     1      -5.466  -4.867 -34.826  1.00  0.00     0.036 A 
HETATM   23  C   UNL     1      -6.660  -4.180 -35.037  1.00  0.00     0.004 A 
HETATM   24  C   UNL     1      -6.761  -2.836 -34.675  1.00  0.00     0.017 A 
BRANCH  21  25
HETATM   25  O   UNL     1      -3.243  -4.936 -34.055  1.00  0.00    -0.361 OA
HETATM   26  H   UNL     1      -2.620  -4.425 -33.513  1.00  0.00     0.217 HD
ENDBRANCH  21  25
ENDBRANCH  16  19
ENDBRANCH  14  15
ENDBRANCH   1  14
TORSDOF 8
ENDMDL
MODEL 10
REMARK VINA RESULT:      -6.7      4.067      8.485
REMARK  8 active torsions:
REMARK  status: ('A' for Active; 'I' for Inactive)
REMARK    1  A    between atoms: C_4  and  C_5 
REMARK    2  A    between atoms: C_5  and  N_6 
REMARK    3  A    between atoms: N_6  and  C_9 
REMARK    4  A    between atoms: C_9  and  C_10 
REMARK    5  A    between atoms: C_10  and  C_11 
REMARK    6  A    between atoms: C_11  and  N_12 
REMARK       I    between atoms: N_12  and  C_13 
REMARK    7  A    between atoms: C_13  and  C_14 
REMARK    8  A    between atoms: C_16  and  O_17 
ROOT
HETATM    1  C   UNL     1      -4.483   5.129 -34.591  1.00  0.00     0.047 C 
ENDROOT
BRANCH   1   2
HETATM    2  C   UNL     1      -4.708   4.275 -33.351  1.00  0.00     0.235 C 
BRANCH   2   3
HETATM    3  N   UNL     1      -5.702   3.192 -33.623  1.00  0.00    -0.067 N 
HETATM    4  H   UNL     1      -5.620   2.906 -34.611  1.00  0.00     0.277 HD
HETATM    5  H   UNL     1      -6.669   3.531 -33.541  1.00  0.00     0.277 HD
BRANCH   3   6
HETATM    6  C   UNL     1      -5.575   1.947 -32.783  1.00  0.00     0.223 C 
HETATM    7  C   UNL     1      -6.399   2.094 -31.503  1.00  0.00     0.046 C 
BRANCH   6   8
HETATM    8  C   UNL     1      -5.987   0.724 -33.541  1.00  0.00     0.032 A 
HETATM    9  S   UNL     1      -5.402  -0.846 -33.150  1.00  0.00    -0.076 SA
HETATM   10  C   UNL     1      -6.289  -1.503 -34.468  1.00  0.00     0.071 A 
HETATM   11  C   UNL     1      -6.237  -2.959 -34.780  1.00  0.00     0.078 C 
HETATM   12  N   UNL     1      -6.995  -0.628 -35.151  1.00  0.00    -0.257 NA
HETATM   13  C   UNL     1      -6.820   0.636 -34.638  1.00  0.00     0.134 A 
ENDBRANCH   6   8
ENDBRANCH   3   6
ENDBRANCH   2   3
ENDBRANCH   1   2
BRANCH   1  14
HETATM   14  C   UNL     1      -3.030   5.580 -34.742  1.00  0.00     0.124 C 
BRANCH  14  15
HETATM   15  N   UNL     1      -2.314   5.552 -33.490  1.00  0.00    -0.357 N 
HETATM   16  C   UNL     1      -1.531   6.617 -33.090  1.00  0.00     0.251 C 
HETATM   17  O   UNL     1      -1.345   7.597 -33.804  1.00  0.00    -0.268 OA
HETATM   18  H   UNL     1      -2.328   4.708 -32.926  1.00  0.00     0.162 HD
BRANCH  16  19
HETATM   19  C   UNL     1      -0.881   6.483 -31.761  1.00  0.00     0.034 A 
HETATM   20  C   UNL     1      -0.314   5.254 -31.408  1.00  0.00     0.053 A 
HETATM   21  C   UNL     1       0.274   5.115 -30.154  1.00  0.00     0.066 A 
HETATM   22  C   UNL     1       0.320   6.180 -29.261  1.00  0.00     0.036 A 
HETATM   23  C   UNL     1      -0.223   7.413 -29.621  1.00  0.00     0.004 A 
HETATM   24  C   UNL     1      -0.823   7.568 -30.872  1.00  0.00     0.017 A 
BRANCH  21  25
HETATM   25  O   UNL     1       0.824   3.935 -29.750  1.00  0.00    -0.361 OA
HETATM   26  H   UNL     1       0.787   3.874 -28.781  1.00  0.00     0.217 HD
ENDBRANCH  21  25
ENDBRANCH  16  19
ENDBRANCH  14  15
ENDBRANCH   1  14
TORSDOF 8
ENDMDL
