MODEL 1
REMARK VINA RESULT:      -8.2      0.000      0.000
REMARK  8 active torsions:
REMARK  status: ('A' for Active; 'I' for Inactive)
REMARK    1  A    between atoms: O_2  and  C_3 
REMARK    2  A    between atoms: C_4  and  O_5 
REMARK    3  A    between atoms: C_8  and  C_9 
REMARK    4  A    between atoms: C_9  and  C_10 
REMARK    5  A    between atoms: C_10  and  N_11 
REMARK       I    between atoms: N_11  and  C_12 
REMARK    6  A    between atoms: C_12  and  C_13 
REMARK    7  A    between atoms: C_14  and  N_15 
REMARK       I    between atoms: N_15  and  C_16 
REMARK    8  A    between atoms: C_16  and  C_17 
ROOT
HETATM    1  C   UNL     1      -4.999  -2.077 -33.569  1.00  0.00     0.058 A 
HETATM    2  C   UNL     1      -6.336  -1.995 -34.004  1.00  0.00     0.050 A 
HETATM    3  C   UNL     1      -6.857  -3.056 -34.767  1.00  0.00     0.030 A 
HETATM    4  C   UNL     1      -6.107  -4.208 -35.018  1.00  0.00     0.002 A 
HETATM    5  C   UNL     1      -4.814  -4.314 -34.522  1.00  0.00     0.001 A 
HETATM    6  C   UNL     1      -4.260  -3.251 -33.810  1.00  0.00     0.019 A 
ENDROOT
BRANCH   1   7
HETATM    7  C   UNL     1      -4.201  -0.957 -32.998  1.00  0.00     0.253 C 
HETATM    8  N   UNL     1      -4.574  -0.537 -31.737  1.00  0.00    -0.356 N 
HETATM    9  H   UNL     1      -5.257  -1.082 -31.229  1.00  0.00     0.162 HD
HETATM   10  O   UNL     1      -3.351  -0.393 -33.679  1.00  0.00    -0.268 OA
BRANCH   8  11
HETATM   11  C   UNL     1      -3.800   0.457 -31.022  1.00  0.00     0.127 C 
BRANCH  11  12
HETATM   12  C   UNL     1      -4.592   1.736 -30.735  1.00  0.00     0.058 C 
BRANCH  12  13
HETATM   13  C   UNL     1      -4.279   2.813 -31.746  1.00  0.00    -0.054 A 
HETATM   14  C   UNL     1      -5.296   3.372 -32.535  1.00  0.00     0.046 A 
HETATM   15  C   UNL     1      -5.014   4.402 -33.441  1.00  0.00     0.102 A 
HETATM   16  C   UNL     1      -3.698   4.883 -33.550  1.00  0.00     0.101 A 
HETATM   17  C   UNL     1      -2.678   4.311 -32.781  1.00  0.00     0.040 A 
HETATM   18  C   UNL     1      -2.970   3.288 -31.879  1.00  0.00     0.010 A 
BRANCH  15  19
HETATM   19  O   UNL     1      -5.946   5.010 -34.246  1.00  0.00    -0.353 OA
HETATM   20  C   UNL     1      -7.244   5.214 -33.708  1.00  0.00     0.210 C 
ENDBRANCH  15  19
BRANCH  16  21
HETATM   21  O   UNL     1      -3.468   5.884 -34.464  1.00  0.00    -0.353 OA
HETATM   22  C   UNL     1      -2.266   6.616 -34.259  1.00  0.00     0.210 C 
ENDBRANCH  16  21
ENDBRANCH  12  13
ENDBRANCH  11  12
ENDBRANCH   8  11
ENDBRANCH   1   7
BRANCH   2  23
HETATM   23  N   UNL     1      -7.256  -0.952 -33.736  1.00  0.00    -0.320 N 
HETATM   24  C   UNL     1      -7.507   0.145 -34.539  1.00  0.00     0.280 C 
HETATM   25  O   UNL     1      -7.036   0.364 -35.646  1.00  0.00    -0.265 OA
HETATM   26  H   UNL     1      -7.529  -0.816 -32.768  1.00  0.00     0.169 HD
BRANCH  24  27
HETATM   27  C   UNL     1      -8.404   1.143 -33.842  1.00  0.00     0.143 C 
HETATM   28  O   UNL     1      -9.354   1.784 -34.625  1.00  0.00    -0.345 OA
HETATM   29  C   UNL     1     -10.017   2.899 -34.019  1.00  0.00     0.186 C 
HETATM   30  C   UNL     1     -10.582   2.579 -32.645  1.00  0.00     0.105 C 
HETATM   31  S   UNL     1      -9.193   2.316 -31.510  1.00  0.00    -0.136 SA
HETATM   32  C   UNL     1      -8.222   1.295 -32.517  1.00  0.00     0.087 C 
ENDBRANCH  24  27
ENDBRANCH   2  23
TORSDOF 8
ENDMDL
MODEL 2
REMARK VINA RESULT:      -8.1      4.025      8.570
REMARK  8 active torsions:
REMARK  status: ('A' for Active; 'I' for Inactive)
REMARK    1  A    between atoms: O_2  and  C_3 
REMARK    2  A    between atoms: C_4  and  O_5 
REMARK    3  A    between atoms: C_8  and  C_9 
REMARK    4  A    between atoms: C_9  and  C_10 
REMARK    5  A    between atoms: C_10  and  N_11 
REMARK       I    between atoms: N_11  and  C_12 
REMARK    6  A    between atoms: C_12  and  C_13 
REMARK    7  A    between atoms: C_14  and  N_15 
REMARK       I    between atoms: N_15  and  C_16 
REMARK    8  A    between atoms: C_16  and  C_17 
ROOT
HETATM    1  C   UNL     1      -2.435   4.563 -32.730  1.00  0.00     0.058 A 
HETATM    2  C   UNL     1      -1.767   5.579 -32.020  1.00  0.00     0.050 A 
HETATM    3  C   UNL     1      -0.916   6.444 -32.733  1.00  0.00     0.030 A 
HETATM    4  C   UNL     1      -0.797   6.364 -34.123  1.00  0.00     0.002 A 
HETATM    5  C   UNL     1      -1.517   5.406 -34.825  1.00  0.00     0.001 A 
HETATM    6  C   UNL     1      -2.323   4.505 -34.132  1.00  0.00     0.019 A 
ENDROOT
BRANCH   1   7
HETATM    7  C   UNL     1      -3.147   3.404 -32.124  1.00  0.00     0.253 C 
HETATM    8  N   UNL     1      -4.431   3.183 -32.582  1.00  0.00    -0.356 N 
HETATM    9  H   UNL     1      -4.759   3.716 -33.376  1.00  0.00     0.162 HD
HETATM   10  O   UNL     1      -2.640   2.781 -31.198  1.00  0.00    -0.268 OA
BRANCH   8  11
HETATM   11  C   UNL     1      -5.181   2.016 -32.165  1.00  0.00     0.127 C 
BRANCH  11  12
HETATM   12  C   UNL     1      -6.250   1.600 -33.180  1.00  0.00     0.058 C 
BRANCH  12  13
HETATM   13  C   UNL     1      -6.007   0.199 -33.687  1.00  0.00    -0.054 A 
HETATM   14  C   UNL     1      -4.929  -0.560 -33.206  1.00  0.00     0.046 A 
HETATM   15  C   UNL     1      -4.729  -1.876 -33.642  1.00  0.00     0.102 A 
HETATM   16  C   UNL     1      -5.628  -2.440 -34.565  1.00  0.00     0.101 A 
HETATM   17  C   UNL     1      -6.690  -1.677 -35.062  1.00  0.00     0.040 A 
HETATM   18  C   UNL     1      -6.882  -0.369 -34.619  1.00  0.00     0.010 A 
BRANCH  15  19
HETATM   19  O   UNL     1      -3.708  -2.691 -33.221  1.00  0.00    -0.353 OA
HETATM   20  C   UNL     1      -3.161  -2.447 -31.934  1.00  0.00     0.210 C 
ENDBRANCH  15  19
BRANCH  16  21
HETATM   21  O   UNL     1      -5.381  -3.728 -34.974  1.00  0.00    -0.353 OA
HETATM   22  C   UNL     1      -6.530  -4.566 -35.038  1.00  0.00     0.210 C 
ENDBRANCH  16  21
ENDBRANCH  12  13
ENDBRANCH  11  12
ENDBRANCH   8  11
ENDBRANCH   1   7
BRANCH   2  23
HETATM   23  N   UNL     1      -1.872   5.861 -30.637  1.00  0.00    -0.320 N 
HETATM   24  C   UNL     1      -2.635   6.860 -30.059  1.00  0.00     0.280 C 
HETATM   25  O   UNL     1      -3.404   7.617 -30.634  1.00  0.00    -0.265 OA
HETATM   26  H   UNL     1      -1.118   5.532 -30.040  1.00  0.00     0.169 HD
BRANCH  24  27
HETATM   27  C   UNL     1      -2.349   6.985 -28.580  1.00  0.00     0.143 C 
HETATM   28  O   UNL     1      -3.432   7.241 -27.752  1.00  0.00    -0.345 OA
HETATM   29  C   UNL     1      -3.119   7.609 -26.403  1.00  0.00     0.186 C 
HETATM   30  C   UNL     1      -2.149   6.648 -25.736  1.00  0.00     0.105 C 
HETATM   31  S   UNL     1      -0.538   6.816 -26.548  1.00  0.00    -0.136 SA
HETATM   32  C   UNL     1      -1.071   6.804 -28.195  1.00  0.00     0.087 C 
ENDBRANCH  24  27
ENDBRANCH   2  23
TORSDOF 8
ENDMDL
MODEL 3
REMARK VINA RESULT:      -7.8      4.077      8.556
REMARK  8 active torsions:
REMARK  status: ('A' for Active; 'I' for Inactive)
REMARK    1  A    between atoms: O_2  and  C_3 
REMARK    2  A    between atoms: C_4  and  O_5 
REMARK    3  A    between atoms: C_8  and  C_9 
REMARK    4  A    between atoms: C_9  and  C_10 
REMARK    5  A    between atoms: C_10  and  N_11 
REMARK       I    between atoms: N_11  and  C_12 
REMARK    6  A    between atoms: C_12  and  C_13 
REMARK    7  A    between atoms: C_14  and  N_15 
REMARK       I    between atoms: N_15  and  C_16 
REMARK    8  A    between atoms: C_16  and  C_17 
ROOT
HETATM    1  C   UNL     1      -2.692   4.747 -32.625  1.00  0.00     0.058 A 
HETATM    2  C   UNL     1      -1.701   5.686 -32.279  1.00  0.00     0.050 A 
HETATM    3  C   UNL     1      -0.880   6.198 -33.300  1.00  0.00     0.030 A 
HETATM    4  C   UNL     1      -1.090   5.861 -34.639  1.00  0.00     0.002 A 
HETATM    5  C   UNL     1      -2.117   4.992 -34.982  1.00  0.00     0.001 A 
HETATM    6  C   UNL     1      -2.907   4.430 -33.980  1.00  0.00     0.019 A 
ENDROOT
BRANCH   1   7
HETATM    7  C   UNL     1      -3.461   3.902 -31.669  1.00  0.00     0.253 C 
HETATM    8  N   UNL     1      -3.519   2.556 -31.972  1.00  0.00    -0.356 N 
HETATM    9  H   UNL     1      -2.943   2.205 -32.724  1.00  0.00     0.162 HD
HETATM   10  O   UNL     1      -4.086   4.420 -30.750  1.00  0.00    -0.268 OA
BRANCH   8  11
HETATM   11  C   UNL     1      -4.129   1.613 -31.057  1.00  0.00     0.127 C 
BRANCH  11  12
HETATM   12  C   UNL     1      -3.586   0.190 -31.220  1.00  0.00     0.058 C 
BRANCH  12  13
HETATM   13  C   UNL     1      -4.425  -0.609 -32.188  1.00  0.00    -0.054 A 
HETATM   14  C   UNL     1      -5.791  -0.332 -32.350  1.00  0.00     0.046 A 
HETATM   15  C   UNL     1      -6.560  -1.042 -33.281  1.00  0.00     0.102 A 
HETATM   16  C   UNL     1      -5.948  -2.036 -34.064  1.00  0.00     0.101 A 
HETATM   17  C   UNL     1      -4.592  -2.330 -33.888  1.00  0.00     0.040 A 
HETATM   18  C   UNL     1      -3.834  -1.615 -32.961  1.00  0.00     0.010 A 
BRANCH  15  19
HETATM   19  O   UNL     1      -7.897  -0.833 -33.510  1.00  0.00    -0.353 OA
HETATM   20  C   UNL     1      -8.414   0.463 -33.247  1.00  0.00     0.210 C 
ENDBRANCH  15  19
BRANCH  16  21
HETATM   21  O   UNL     1      -6.747  -2.716 -34.952  1.00  0.00    -0.353 OA
HETATM   22  C   UNL     1      -6.674  -4.134 -34.858  1.00  0.00     0.210 C 
ENDBRANCH  16  21
ENDBRANCH  12  13
ENDBRANCH  11  12
ENDBRANCH   8  11
ENDBRANCH   1   7
BRANCH   2  23
HETATM   23  N   UNL     1      -1.440   6.212 -30.990  1.00  0.00    -0.320 N 
HETATM   24  C   UNL     1      -0.550   5.703 -30.062  1.00  0.00     0.280 C 
HETATM   25  O   UNL     1       0.215   4.762 -30.222  1.00  0.00    -0.265 OA
HETATM   26  H   UNL     1      -2.155   6.807 -30.581  1.00  0.00     0.169 HD
BRANCH  24  27
HETATM   27  C   UNL     1      -0.679   6.408 -28.731  1.00  0.00     0.143 C 
HETATM   28  O   UNL     1       0.047   5.884 -27.672  1.00  0.00    -0.345 OA
HETATM   29  C   UNL     1      -0.278   6.397 -26.374  1.00  0.00     0.186 C 
HETATM   30  C   UNL     1      -0.285   7.915 -26.320  1.00  0.00     0.105 C 
HETATM   31  S   UNL     1      -1.682   8.509 -27.310  1.00  0.00    -0.136 SA
HETATM   32  C   UNL     1      -1.462   7.503 -28.702  1.00  0.00     0.087 C 
ENDBRANCH  24  27
ENDBRANCH   2  23
TORSDOF 8
ENDMDL
MODEL 4
REMARK VINA RESULT:      -7.7      1.973      4.771
REMARK  8 active torsions:
REMARK  status: ('A' for Active; 'I' for Inactive)
REMARK    1  A    between atoms: O_2  and  C_3 
REMARK    2  A    between atoms: C_4  and  O_5 
REMARK    3  A    between atoms: C_8  and  C_9 
REMARK    4  A    between atoms: C_9  and  C_10 
REMARK    5  A    between atoms: C_10  and  N_11 
REMARK       I    between atoms: N_11  and  C_12 
REMARK    6  A    between atoms: C_12  and  C_13 
REMARK    7  A    between atoms: C_14  and  N_15 
REMARK       I    between atoms: N_15  and  C_16 
REMARK    8  A    between atoms: C_16  and  C_17 
ROOT
HETATM    1  C   UNL     1      -6.454  -1.404 -34.203  1.00  0.00     0.058 A 
HETATM    2  C   UNL     1      -5.277  -1.147 -33.475  1.00  0.00     0.050 A 
HETATM    3  C   UNL     1      -4.276  -2.136 -33.451  1.00  0.00     0.030 A 
HETATM    4  C   UNL     1      -4.397  -3.310 -34.199  1.00  0.00     0.002 A 
HETATM    5  C   UNL     1      -5.529  -3.523 -34.975  1.00  0.00     0.001 A 
HETATM    6  C   UNL     1      -6.556  -2.581 -34.969  1.00  0.00     0.019 A 
ENDROOT
BRANCH   1   7
HETATM    7  C   UNL     1      -7.714  -0.613 -34.125  1.00  0.00     0.253 C 
HETATM    8  N   UNL     1      -8.463  -0.790 -32.979  1.00  0.00    -0.356 N 
HETATM    9  H   UNL     1      -8.064  -1.324 -32.218  1.00  0.00     0.162 HD
HETATM   10  O   UNL     1      -8.088   0.051 -35.086  1.00  0.00    -0.268 OA
BRANCH   8  11
HETATM   11  C   UNL     1      -9.642   0.012 -32.727  1.00  0.00     0.127 C 
BRANCH  11  12
HETATM   12  C   UNL     1      -9.342   1.273 -31.911  1.00  0.00     0.058 C 
BRANCH  12  13
HETATM   13  C   UNL     1      -9.372   2.508 -32.779  1.00  0.00    -0.054 A 
HETATM   14  C   UNL     1      -8.202   3.245 -33.016  1.00  0.00     0.046 A 
HETATM   15  C   UNL     1      -8.221   4.365 -33.858  1.00  0.00     0.102 A 
HETATM   16  C   UNL     1      -9.426   4.743 -34.476  1.00  0.00     0.101 A 
HETATM   17  C   UNL     1     -10.598   4.023 -34.222  1.00  0.00     0.040 A 
HETATM   18  C   UNL     1     -10.568   2.907 -33.385  1.00  0.00     0.010 A 
BRANCH  15  19
HETATM   19  O   UNL     1      -7.125   5.139 -34.151  1.00  0.00    -0.353 OA
HETATM   20  C   UNL     1      -5.870   4.485 -34.259  1.00  0.00     0.210 C 
ENDBRANCH  15  19
BRANCH  16  21
HETATM   21  O   UNL     1      -9.397   5.857 -35.280  1.00  0.00    -0.353 OA
HETATM   22  C   UNL     1     -10.464   6.774 -35.070  1.00  0.00     0.210 C 
ENDBRANCH  16  21
ENDBRANCH  12  13
ENDBRANCH  11  12
ENDBRANCH   8  11
ENDBRANCH   1   7
BRANCH   2  23
HETATM   23  N   UNL     1      -4.957   0.035 -32.763  1.00  0.00    -0.320 N 
HETATM   24  C   UNL     1      -5.513   0.444 -31.564  1.00  0.00     0.280 C 
HETATM   25  O   UNL     1      -6.314  -0.176 -30.880  1.00  0.00    -0.265 OA
HETATM   26  H   UNL     1      -4.531   0.791 -33.291  1.00  0.00     0.169 HD
BRANCH  24  27
HETATM   27  C   UNL     1      -5.071   1.845 -31.203  1.00  0.00     0.143 C 
HETATM   28  O   UNL     1      -3.967   2.346 -31.878  1.00  0.00    -0.345 OA
HETATM   29  C   UNL     1      -3.408   3.557 -31.353  1.00  0.00     0.186 C 
HETATM   30  C   UNL     1      -4.446   4.645 -31.139  1.00  0.00     0.105 C 
HETATM   31  S   UNL     1      -5.537   4.129 -29.787  1.00  0.00    -0.136 SA
HETATM   32  C   UNL     1      -5.810   2.492 -30.283  1.00  0.00     0.087 C 
ENDBRANCH  24  27
ENDBRANCH   2  23
TORSDOF 8
ENDMDL
MODEL 5
REMARK VINA RESULT:      -7.7      2.570      3.571
REMARK  8 active torsions:
REMARK  status: ('A' for Active; 'I' for Inactive)
REMARK    1  A    between atoms: O_2  and  C_3 
REMARK    2  A    between atoms: C_4  and  O_5 
REMARK    3  A    between atoms: C_8  and  C_9 
REMARK    4  A    between atoms: C_9  and  C_10 
REMARK    5  A    between atoms: C_10  and  N_11 
REMARK       I    between atoms: N_11  and  C_12 
REMARK    6  A    between atoms: C_12  and  C_13 
REMARK    7  A    between atoms: C_14  and  N_15 
REMARK       I    between atoms: N_15  and  C_16 
REMARK    8  A    between atoms: C_16  and  C_17 
ROOT
HETATM    1  C   UNL     1      -6.167   0.115 -33.121  1.00  0.00     0.058 A 
HETATM    2  C   UNL     1      -7.284  -0.253 -33.894  1.00  0.00     0.050 A 
HETATM    3  C   UNL     1      -7.201  -1.419 -34.677  1.00  0.00     0.030 A 
HETATM    4  C   UNL     1      -6.077  -2.248 -34.628  1.00  0.00     0.002 A 
HETATM    5  C   UNL     1      -5.008  -1.918 -33.805  1.00  0.00     0.001 A 
HETATM    6  C   UNL     1      -5.049  -0.739 -33.064  1.00  0.00     0.019 A 
ENDROOT
BRANCH   1   7
HETATM    7  C   UNL     1      -5.967   1.432 -32.455  1.00  0.00     0.253 C 
HETATM    8  N   UNL     1      -5.338   2.398 -33.216  1.00  0.00    -0.356 N 
HETATM    9  H   UNL     1      -5.175   2.212 -34.196  1.00  0.00     0.162 HD
HETATM   10  O   UNL     1      -6.249   1.577 -31.271  1.00  0.00    -0.268 OA
BRANCH   8  11
HETATM   11  C   UNL     1      -5.196   3.755 -32.729  1.00  0.00     0.127 C 
BRANCH  11  12
HETATM   12  C   UNL     1      -4.580   4.699 -33.766  1.00  0.00     0.058 C 
BRANCH  12  13
HETATM   13  C   UNL     1      -3.298   5.312 -33.255  1.00  0.00    -0.054 A 
HETATM   14  C   UNL     1      -3.178   6.702 -33.108  1.00  0.00     0.046 A 
HETATM   15  C   UNL     1      -2.005   7.268 -32.591  1.00  0.00     0.102 A 
HETATM   16  C   UNL     1      -0.944   6.428 -32.210  1.00  0.00     0.101 A 
HETATM   17  C   UNL     1      -1.054   5.043 -32.378  1.00  0.00     0.040 A 
HETATM   18  C   UNL     1      -2.227   4.489 -32.889  1.00  0.00     0.010 A 
BRANCH  15  19
HETATM   19  O   UNL     1      -1.804   8.614 -32.407  1.00  0.00    -0.353 OA
HETATM   20  C   UNL     1      -2.382   9.213 -31.257  1.00  0.00     0.210 C 
ENDBRANCH  15  19
BRANCH  16  21
HETATM   21  O   UNL     1       0.191   7.031 -31.724  1.00  0.00    -0.353 OA
HETATM   22  C   UNL     1       0.433   6.820 -30.338  1.00  0.00     0.210 C 
ENDBRANCH  16  21
ENDBRANCH  12  13
ENDBRANCH  11  12
ENDBRANCH   8  11
ENDBRANCH   1   7
BRANCH   2  23
HETATM   23  N   UNL     1      -8.531   0.416 -33.962  1.00  0.00    -0.320 N 
HETATM   24  C   UNL     1      -9.436   0.569 -32.928  1.00  0.00     0.280 C 
HETATM   25  O   UNL     1      -9.283   0.222 -31.765  1.00  0.00    -0.265 OA
HETATM   26  H   UNL     1      -8.946   0.526 -34.882  1.00  0.00     0.169 HD
BRANCH  24  27
HETATM   27  C   UNL     1     -10.735   1.166 -33.418  1.00  0.00     0.143 C 
HETATM   28  O   UNL     1     -11.836   0.323 -33.457  1.00  0.00    -0.345 OA
HETATM   29  C   UNL     1     -12.983   0.821 -34.156  1.00  0.00     0.186 C 
HETATM   30  C   UNL     1     -13.392   2.214 -33.709  1.00  0.00     0.105 C 
HETATM   31  S   UNL     1     -12.106   3.377 -34.237  1.00  0.00    -0.136 SA
HETATM   32  C   UNL     1     -10.716   2.474 -33.739  1.00  0.00     0.087 C 
ENDBRANCH  24  27
ENDBRANCH   2  23
TORSDOF 8
ENDMDL
MODEL 6
REMARK VINA RESULT:      -7.6      3.840      7.459
REMARK  8 active torsions:
REMARK  status: ('A' for Active; 'I' for Inactive)
REMARK    1  A    between atoms: O_2  and  C_3 
REMARK    2  A    between atoms: C_4  and  O_5 
REMARK    3  A    between atoms: C_8  and  C_9 
REMARK    4  A    between atoms: C_9  and  C_10 
REMARK    5  A    between atoms: C_10  and  N_11 
REMARK       I    between atoms: N_11  and  C_12 
REMARK    6  A    between atoms: C_12  and  C_13 
REMARK    7  A    between atoms: C_14  and  N_15 
REMARK       I    between atoms: N_15  and  C_16 
REMARK    8  A    between atoms: C_16  and  C_17 
ROOT
HETATM    1  C   UNL     1     -11.879   1.397 -34.027  1.00  0.00     0.058 A 
HETATM    2  C   UNL     1     -12.997   2.168 -34.399  1.00  0.00     0.050 A 
HETATM    3  C   UNL     1     -14.261   1.551 -34.412  1.00  0.00     0.030 A 
HETATM    4  C   UNL     1     -14.430   0.232 -33.981  1.00  0.00     0.002 A 
HETATM    5  C   UNL     1     -13.334  -0.499 -33.543  1.00  0.00     0.001 A 
HETATM    6  C   UNL     1     -12.065   0.076 -33.575  1.00  0.00     0.019 A 
ENDROOT
BRANCH   1   7
HETATM    7  C   UNL     1     -10.454   1.786 -34.212  1.00  0.00     0.253 C 
HETATM    8  N   UNL     1      -9.521   0.908 -33.696  1.00  0.00    -0.356 N 
HETATM    9  H   UNL     1      -9.839   0.013 -33.352  1.00  0.00     0.162 HD
HETATM   10  O   UNL     1     -10.168   2.877 -34.693  1.00  0.00    -0.268 OA
BRANCH   8  11
HETATM   11  C   UNL     1      -8.104   1.110 -33.920  1.00  0.00     0.127 C 
BRANCH  11  12
HETATM   12  C   UNL     1      -7.563   0.284 -35.091  1.00  0.00     0.058 C 
BRANCH  12  13
HETATM   13  C   UNL     1      -6.502  -0.688 -34.632  1.00  0.00    -0.054 A 
HETATM   14  C   UNL     1      -5.420  -0.250 -33.853  1.00  0.00     0.046 A 
HETATM   15  C   UNL     1      -4.459  -1.158 -33.389  1.00  0.00     0.102 A 
HETATM   16  C   UNL     1      -4.592  -2.522 -33.703  1.00  0.00     0.101 A 
HETATM   17  C   UNL     1      -5.657  -2.956 -34.499  1.00  0.00     0.040 A 
HETATM   18  C   UNL     1      -6.611  -2.045 -34.953  1.00  0.00     0.010 A 
BRANCH  15  19
HETATM   19  O   UNL     1      -3.375  -0.820 -32.617  1.00  0.00    -0.353 OA
HETATM   20  C   UNL     1      -3.626  -0.178 -31.377  1.00  0.00     0.210 C 
ENDBRANCH  15  19
BRANCH  16  21
HETATM   21  O   UNL     1      -3.616  -3.371 -33.238  1.00  0.00    -0.353 OA
HETATM   22  C   UNL     1      -3.648  -4.680 -33.794  1.00  0.00     0.210 C 
ENDBRANCH  16  21
ENDBRANCH  12  13
ENDBRANCH  11  12
ENDBRANCH   8  11
ENDBRANCH   1   7
BRANCH   2  23
HETATM   23  N   UNL     1     -13.006   3.540 -34.750  1.00  0.00    -0.320 N 
HETATM   24  C   UNL     1     -13.067   4.609 -33.875  1.00  0.00     0.280 C 
HETATM   25  O   UNL     1     -13.048   4.556 -32.653  1.00  0.00    -0.265 OA
HETATM   26  H   UNL     1     -13.299   3.773 -35.694  1.00  0.00     0.169 HD
BRANCH  24  27
HETATM   27  C   UNL     1     -13.253   5.915 -34.613  1.00  0.00     0.143 C 
HETATM   28  O   UNL     1     -12.369   6.180 -35.649  1.00  0.00    -0.345 OA
HETATM   29  C   UNL     1     -12.391   7.516 -36.167  1.00  0.00     0.186 C 
HETATM   30  C   UNL     1     -13.789   7.992 -36.521  1.00  0.00     0.105 C 
HETATM   31  S   UNL     1     -14.730   8.178 -34.983  1.00  0.00    -0.136 SA
HETATM   32  C   UNL     1     -14.283   6.688 -34.221  1.00  0.00     0.087 C 
ENDBRANCH  24  27
ENDBRANCH   2  23
TORSDOF 8
ENDMDL
MODEL 7
REMARK VINA RESULT:      -7.5      3.134      7.244
REMARK  8 active torsions:
REMARK  status: ('A' for Active; 'I' for Inactive)
REMARK    1  A    between atoms: O_2  and  C_3 
REMARK    2  A    between atoms: C_4  and  O_5 
REMARK    3  A    between atoms: C_8  and  C_9 
REMARK    4  A    between atoms: C_9  and  C_10 
REMARK    5  A    between atoms: C_10  and  N_11 
REMARK       I    between atoms: N_11  and  C_12 
REMARK    6  A    between atoms: C_12  and  C_13 
REMARK    7  A    between atoms: C_14  and  N_15 
REMARK       I    between atoms: N_15  and  C_16 
REMARK    8  A    between atoms: C_16  and  C_17 
ROOT
HETATM    1  C   UNL     1      -6.529  -0.856 -33.499  1.00  0.00     0.058 A 
HETATM    2  C   UNL     1      -5.179  -0.480 -33.363  1.00  0.00     0.050 A 
HETATM    3  C   UNL     1      -4.187  -1.393 -33.767  1.00  0.00     0.030 A 
HETATM    4  C   UNL     1      -4.521  -2.608 -34.371  1.00  0.00     0.002 A 
HETATM    5  C   UNL     1      -5.854  -2.940 -34.571  1.00  0.00     0.001 A 
HETATM    6  C   UNL     1      -6.853  -2.074 -34.128  1.00  0.00     0.019 A 
ENDROOT
BRANCH   1   7
HETATM    7  C   UNL     1      -7.692  -0.155 -32.888  1.00  0.00     0.253 C 
HETATM    8  N   UNL     1      -8.855  -0.160 -33.633  1.00  0.00    -0.356 N 
HETATM    9  H   UNL     1      -8.894  -0.736 -34.463  1.00  0.00     0.162 HD
HETATM   10  O   UNL     1      -7.557   0.474 -31.844  1.00  0.00    -0.268 OA
BRANCH   8  11
HETATM   11  C   UNL     1     -10.088   0.378 -33.096  1.00  0.00     0.127 C 
BRANCH  11  12
HETATM   12  C   UNL     1     -10.855   1.235 -34.107  1.00  0.00     0.058 C 
BRANCH  12  13
HETATM   13  C   UNL     1     -12.141   1.760 -33.515  1.00  0.00    -0.054 A 
HETATM   14  C   UNL     1     -12.199   3.045 -32.954  1.00  0.00     0.046 A 
HETATM   15  C   UNL     1     -13.402   3.550 -32.446  1.00  0.00     0.102 A 
HETATM   16  C   UNL     1     -14.563   2.760 -32.510  1.00  0.00     0.101 A 
HETATM   17  C   UNL     1     -14.502   1.470 -33.048  1.00  0.00     0.040 A 
HETATM   18  C   UNL     1     -13.300   0.978 -33.555  1.00  0.00     0.010 A 
BRANCH  15  19
HETATM   19  O   UNL     1     -13.552   4.796 -31.888  1.00  0.00    -0.353 OA
HETATM   20  C   UNL     1     -13.391   5.921 -32.738  1.00  0.00     0.210 C 
ENDBRANCH  15  19
BRANCH  16  21
HETATM   21  O   UNL     1     -15.716   3.293 -31.985  1.00  0.00    -0.353 OA
HETATM   22  C   UNL     1     -16.905   2.581 -32.306  1.00  0.00     0.210 C 
ENDBRANCH  16  21
ENDBRANCH  12  13
ENDBRANCH  11  12
ENDBRANCH   8  11
ENDBRANCH   1   7
BRANCH   2  23
HETATM   23  N   UNL     1      -4.684   0.754 -32.878  1.00  0.00    -0.320 N 
HETATM   24  C   UNL     1      -4.165   0.991 -31.618  1.00  0.00     0.280 C 
HETATM   25  O   UNL     1      -3.976   0.163 -30.738  1.00  0.00    -0.265 OA
HETATM   26  H   UNL     1      -5.001   1.596 -33.349  1.00  0.00     0.169 HD
BRANCH  24  27
HETATM   27  C   UNL     1      -3.917   2.465 -31.393  1.00  0.00     0.143 C 
HETATM   28  O   UNL     1      -2.702   2.970 -31.833  1.00  0.00    -0.345 OA
HETATM   29  C   UNL     1      -2.375   4.292 -31.390  1.00  0.00     0.186 C 
HETATM   30  C   UNL     1      -3.491   5.293 -31.634  1.00  0.00     0.105 C 
HETATM   31  S   UNL     1      -4.877   4.873 -30.544  1.00  0.00    -0.136 SA
HETATM   32  C   UNL     1      -4.913   3.163 -30.815  1.00  0.00     0.087 C 
ENDBRANCH  24  27
ENDBRANCH   2  23
TORSDOF 8
ENDMDL
MODEL 8
REMARK VINA RESULT:      -7.5      4.194      8.785
REMARK  8 active torsions:
REMARK  status: ('A' for Active; 'I' for Inactive)
REMARK    1  A    between atoms: O_2  and  C_3 
REMARK    2  A    between atoms: C_4  and  O_5 
REMARK    3  A    between atoms: C_8  and  C_9 
REMARK    4  A    between atoms: C_9  and  C_10 
REMARK    5  A    between atoms: C_10  and  N_11 
REMARK       I    between atoms: N_11  and  C_12 
REMARK    6  A    between atoms: C_12  and  C_13 
REMARK    7  A    between atoms: C_14  and  N_15 
REMARK       I    between atoms: N_15  and  C_16 
REMARK    8  A    between atoms: C_16  and  C_17 
ROOT
HETATM    1  C   UNL     1      -3.045   4.789 -32.515  1.00  0.00     0.058 A 
HETATM    2  C   UNL     1      -1.934   5.570 -32.144  1.00  0.00     0.050 A 
HETATM    3  C   UNL     1      -1.097   6.068 -33.160  1.00  0.00     0.030 A 
HETATM    4  C   UNL     1      -1.400   5.875 -34.511  1.00  0.00     0.002 A 
HETATM    5  C   UNL     1      -2.540   5.168 -34.871  1.00  0.00     0.001 A 
HETATM    6  C   UNL     1      -3.352   4.619 -33.879  1.00  0.00     0.019 A 
ENDROOT
BRANCH   1   7
HETATM    7  C   UNL     1      -3.873   3.963 -31.594  1.00  0.00     0.253 C 
HETATM    8  N   UNL     1      -4.116   2.667 -32.006  1.00  0.00    -0.356 N 
HETATM    9  H   UNL     1      -3.623   2.317 -32.816  1.00  0.00     0.162 HD
HETATM   10  O   UNL     1      -4.385   4.467 -30.601  1.00  0.00    -0.268 OA
BRANCH   8  11
HETATM   11  C   UNL     1      -4.800   1.726 -31.143  1.00  0.00     0.127 C 
BRANCH  11  12
HETATM   12  C   UNL     1      -5.849   0.892 -31.884  1.00  0.00     0.058 C 
BRANCH  12  13
HETATM   13  C   UNL     1      -5.250  -0.380 -32.433  1.00  0.00    -0.054 A 
HETATM   14  C   UNL     1      -5.843  -1.040 -33.520  1.00  0.00     0.046 A 
HETATM   15  C   UNL     1      -5.262  -2.196 -34.058  1.00  0.00     0.102 A 
HETATM   16  C   UNL     1      -4.068  -2.689 -33.505  1.00  0.00     0.101 A 
HETATM   17  C   UNL     1      -3.488  -2.046 -32.406  1.00  0.00     0.040 A 
HETATM   18  C   UNL     1      -4.072  -0.893 -31.880  1.00  0.00     0.010 A 
BRANCH  15  19
HETATM   19  O   UNL     1      -5.768  -2.900 -35.123  1.00  0.00    -0.353 OA
HETATM   20  C   UNL     1      -6.852  -3.782 -34.871  1.00  0.00     0.210 C 
ENDBRANCH  15  19
BRANCH  16  21
HETATM   21  O   UNL     1      -3.545  -3.834 -34.057  1.00  0.00    -0.353 OA
HETATM   22  C   UNL     1      -3.693  -5.004 -33.261  1.00  0.00     0.210 C 
ENDBRANCH  16  21
ENDBRANCH  12  13
ENDBRANCH  11  12
ENDBRANCH   8  11
ENDBRANCH   1   7
BRANCH   2  23
HETATM   23  N   UNL     1      -1.559   5.948 -30.832  1.00  0.00    -0.320 N 
HETATM   24  C   UNL     1      -1.981   7.076 -30.152  1.00  0.00     0.280 C 
HETATM   25  O   UNL     1      -2.805   7.895 -30.535  1.00  0.00    -0.265 OA
HETATM   26  H   UNL     1      -0.696   5.556 -30.468  1.00  0.00     0.169 HD
BRANCH  24  27
HETATM   27  C   UNL     1      -1.226   7.251 -28.854  1.00  0.00     0.143 C 
HETATM   28  O   UNL     1      -1.884   6.878 -27.691  1.00  0.00    -0.345 OA
HETATM   29  C   UNL     1      -1.266   7.283 -26.463  1.00  0.00     0.186 C 
HETATM   30  C   UNL     1       0.205   6.913 -26.389  1.00  0.00     0.105 C 
HETATM   31  S   UNL     1       1.103   7.917 -27.601  1.00  0.00    -0.136 SA
HETATM   32  C   UNL     1       0.032   7.722 -28.948  1.00  0.00     0.087 C 
ENDBRANCH  24  27
ENDBRANCH   2  23
TORSDOF 8
ENDMDL
MODEL 9
REMARK VINA RESULT:      -7.5      3.013      3.790
REMARK  8 active torsions:
REMARK  status: ('A' for Active; 'I' for Inactive)
REMARK    1  A    between atoms: O_2  and  C_3 
REMARK    2  A    between atoms: C_4  and  O_5 
REMARK    3  A    between atoms: C_8  and  C_9 
REMARK    4  A    between atoms: C_9  and  C_10 
REMARK    5  A    between atoms: C_10  and  N_11 
REMARK       I    between atoms: N_11  and  C_12 
REMARK    6  A    between atoms: C_12  and  C_13 
REMARK    7  A    between atoms: C_14  and  N_15 
REMARK       I    between atoms: N_15  and  C_16 
REMARK    8  A    between atoms: C_16  and  C_17 
ROOT
HETATM    1  C   UNL     1      -5.917   0.442 -33.365  1.00  0.00     0.058 A 
HETATM    2  C   UNL     1      -7.052   0.124 -34.135  1.00  0.00     0.050 A 
HETATM    3  C   UNL     1      -7.063  -1.094 -34.839  1.00  0.00     0.030 A 
HETATM    4  C   UNL     1      -6.018  -2.014 -34.715  1.00  0.00     0.002 A 
HETATM    5  C   UNL     1      -4.936  -1.726 -33.895  1.00  0.00     0.001 A 
HETATM    6  C   UNL     1      -4.880  -0.502 -33.232  1.00  0.00     0.019 A 
ENDROOT
BRANCH   1   7
HETATM    7  C   UNL     1      -5.608   1.777 -32.782  1.00  0.00     0.253 C 
HETATM    8  N   UNL     1      -4.417   1.867 -32.088  1.00  0.00    -0.356 N 
HETATM    9  H   UNL     1      -3.775   1.088 -32.128  1.00  0.00     0.162 HD
HETATM   10  O   UNL     1      -6.435   2.681 -32.834  1.00  0.00    -0.268 OA
BRANCH   8  11
HETATM   11  C   UNL     1      -3.944   3.139 -31.582  1.00  0.00     0.127 C 
BRANCH  11  12
HETATM   12  C   UNL     1      -2.812   3.733 -32.426  1.00  0.00     0.058 C 
BRANCH  12  13
HETATM   13  C   UNL     1      -2.132   4.872 -31.705  1.00  0.00    -0.054 A 
HETATM   14  C   UNL     1      -2.867   5.742 -30.885  1.00  0.00     0.046 A 
HETATM   15  C   UNL     1      -2.230   6.771 -30.181  1.00  0.00     0.102 A 
HETATM   16  C   UNL     1      -0.837   6.924 -30.294  1.00  0.00     0.101 A 
HETATM   17  C   UNL     1      -0.105   6.072 -31.129  1.00  0.00     0.040 A 
HETATM   18  C   UNL     1      -0.749   5.048 -31.823  1.00  0.00     0.010 A 
BRANCH  15  19
HETATM   19  O   UNL     1      -2.868   7.662 -29.353  1.00  0.00    -0.353 OA
HETATM   20  C   UNL     1      -3.793   7.137 -28.413  1.00  0.00     0.210 C 
ENDBRANCH  15  19
BRANCH  16  21
HETATM   21  O   UNL     1      -0.259   7.957 -29.597  1.00  0.00    -0.353 OA
HETATM   22  C   UNL     1       0.640   7.557 -28.569  1.00  0.00     0.210 C 
ENDBRANCH  16  21
ENDBRANCH  12  13
ENDBRANCH  11  12
ENDBRANCH   8  11
ENDBRANCH   1   7
BRANCH   2  23
HETATM   23  N   UNL     1      -8.232   0.895 -34.269  1.00  0.00    -0.320 N 
HETATM   24  C   UNL     1      -9.378   0.780 -33.502  1.00  0.00     0.280 C 
HETATM   25  O   UNL     1      -9.539   0.051 -32.534  1.00  0.00    -0.265 OA
HETATM   26  H   UNL     1      -8.389   1.345 -35.166  1.00  0.00     0.169 HD
BRANCH  24  27
HETATM   27  C   UNL     1     -10.499   1.630 -34.057  1.00  0.00     0.143 C 
HETATM   28  O   UNL     1     -10.135   2.806 -34.697  1.00  0.00    -0.345 OA
HETATM   29  C   UNL     1     -11.201   3.718 -34.988  1.00  0.00     0.186 C 
HETATM   30  C   UNL     1     -12.368   3.057 -35.702  1.00  0.00     0.105 C 
HETATM   31  S   UNL     1     -13.167   1.915 -34.544  1.00  0.00    -0.136 SA
HETATM   32  C   UNL     1     -11.748   1.151 -33.910  1.00  0.00     0.087 C 
ENDBRANCH  24  27
ENDBRANCH   2  23
TORSDOF 8
ENDMDL
MODEL 10
REMARK VINA RESULT:      -7.4      2.656      7.459
REMARK  8 active torsions:
REMARK  status: ('A' for Active; 'I' for Inactive)
REMARK    1  A    between atoms: O_2  and  C_3 
REMARK    2  A    between atoms: C_4  and  O_5 
REMARK    3  A    between atoms: C_8  and  C_9 
REMARK    4  A    between atoms: C_9  and  C_10 
REMARK    5  A    between atoms: C_10  and  N_11 
REMARK       I    between atoms: N_11  and  C_12 
REMARK    6  A    between atoms: C_12  and  C_13 
REMARK    7  A    between atoms: C_14  and  N_15 
REMARK       I    between atoms: N_15  and  C_16 
REMARK    8  A    between atoms: C_16  and  C_17 
ROOT
HETATM    1  C   UNL     1      -8.928   3.608 -31.314  1.00  0.00     0.058 A 
HETATM    2  C   UNL     1      -8.286   4.831 -31.589  1.00  0.00     0.050 A 
HETATM    3  C   UNL     1      -9.032   6.018 -31.475  1.00  0.00     0.030 A 
HETATM    4  C   UNL     1     -10.352   6.006 -31.015  1.00  0.00     0.002 A 
HETATM    5  C   UNL     1     -10.955   4.803 -30.674  1.00  0.00     0.001 A 
HETATM    6  C   UNL     1     -10.251   3.610 -30.832  1.00  0.00     0.019 A 
ENDROOT
BRANCH   1   7
HETATM    7  C   UNL     1      -8.396   2.255 -31.638  1.00  0.00     0.253 C 
HETATM    8  N   UNL     1      -9.266   1.412 -32.302  1.00  0.00    -0.356 N 
HETATM    9  H   UNL     1     -10.139   1.790 -32.643  1.00  0.00     0.162 HD
HETATM   10  O   UNL     1      -7.296   1.908 -31.224  1.00  0.00    -0.268 OA
BRANCH   8  11
HETATM   11  C   UNL     1      -8.828   0.118 -32.782  1.00  0.00     0.127 C 
BRANCH  11  12
HETATM   12  C   UNL     1      -8.030   0.205 -34.087  1.00  0.00     0.058 C 
BRANCH  12  13
HETATM   13  C   UNL     1      -6.863  -0.753 -34.080  1.00  0.00    -0.054 A 
HETATM   14  C   UNL     1      -5.672  -0.426 -33.415  1.00  0.00     0.046 A 
HETATM   15  C   UNL     1      -4.605  -1.333 -33.370  1.00  0.00     0.102 A 
HETATM   16  C   UNL     1      -4.739  -2.586 -33.993  1.00  0.00     0.101 A 
HETATM   17  C   UNL     1      -5.918  -2.904 -34.676  1.00  0.00     0.040 A 
HETATM   18  C   UNL     1      -6.976  -1.996 -34.712  1.00  0.00     0.010 A 
BRANCH  15  19
HETATM   19  O   UNL     1      -3.409  -1.099 -32.737  1.00  0.00    -0.353 OA
HETATM   20  C   UNL     1      -3.454  -0.540 -31.433  1.00  0.00     0.210 C 
ENDBRANCH  15  19
BRANCH  16  21
HETATM   21  O   UNL     1      -3.660  -3.434 -33.935  1.00  0.00    -0.353 OA
HETATM   22  C   UNL     1      -3.989  -4.818 -33.893  1.00  0.00     0.210 C 
ENDBRANCH  16  21
ENDBRANCH  12  13
ENDBRANCH  11  12
ENDBRANCH   8  11
ENDBRANCH   1   7
BRANCH   2  23
HETATM   23  N   UNL     1      -6.930   5.017 -31.953  1.00  0.00    -0.320 N 
HETATM   24  C   UNL     1      -6.425   5.054 -33.240  1.00  0.00     0.280 C 
HETATM   25  O   UNL     1      -7.067   5.009 -34.279  1.00  0.00    -0.265 OA
HETATM   26  H   UNL     1      -6.230   4.803 -31.249  1.00  0.00     0.169 HD
BRANCH  24  27
HETATM   27  C   UNL     1      -4.913   5.076 -33.237  1.00  0.00     0.143 C 
HETATM   28  O   UNL     1      -4.287   4.880 -32.014  1.00  0.00    -0.345 OA
HETATM   29  C   UNL     1      -2.881   5.155 -31.978  1.00  0.00     0.186 C 
HETATM   30  C   UNL     1      -2.113   4.463 -33.091  1.00  0.00     0.105 C 
HETATM   31  S   UNL     1      -2.595   5.218 -34.666  1.00  0.00    -0.136 SA
HETATM   32  C   UNL     1      -4.310   5.248 -34.428  1.00  0.00     0.087 C 
ENDBRANCH  24  27
ENDBRANCH   2  23
TORSDOF 8
ENDMDL
