MODEL 1
REMARK VINA RESULT:      -8.2      0.000      0.000
REMARK  6 active torsions:
REMARK  status: ('A' for Active; 'I' for Inactive)
REMARK    1  A    between atoms: N_2  and  C_4 
REMARK    2  A    between atoms: N_2  and  C_14 
REMARK    3  A    between atoms: C_5  and  O_6 
REMARK    4  A    between atoms: C_14  and  C_15 
REMARK    5  A    between atoms: C_15  and  O_16 
REMARK    6  A    between atoms: C_15  and  C_17 
ROOT
HETATM    1  C   UNL     1      -8.138   1.025 -32.770  1.00  0.00     0.270 C 
HETATM    2  N   UNL     1      -6.687   1.123 -33.158  1.00  0.00    -0.065 N 
HETATM    3  H   UNL     1      -6.105   1.026 -32.308  1.00  0.00     0.280 HD
ENDROOT
BRANCH   2   4
HETATM    4  C   UNL     1      -6.189  -0.017 -34.062  1.00  0.00     0.225 C 
HETATM    5  C   UNL     1      -4.976  -0.742 -33.387  1.00  0.00     0.183 C 
HETATM    6  C   UNL     1      -5.121  -2.140 -33.891  1.00  0.00    -0.021 A 
HETATM    7  C   UNL     1      -6.408  -2.356 -34.391  1.00  0.00    -0.047 A 
HETATM    8  C   UNL     1      -4.177  -3.156 -33.881  1.00  0.00     0.010 A 
HETATM    9  C   UNL     1      -7.254  -1.131 -34.247  1.00  0.00     0.075 C 
HETATM   10  C   UNL     1      -6.786  -3.593 -34.882  1.00  0.00     0.008 A 
HETATM   11  C   UNL     1      -5.840  -4.620 -34.882  1.00  0.00     0.001 A 
HETATM   12  C   UNL     1      -4.546  -4.403 -34.387  1.00  0.00     0.001 A 
BRANCH   5  13
HETATM   13  O   UNL     1      -5.135  -0.682 -31.965  1.00  0.00    -0.389 OA
HETATM   14  H   UNL     1      -4.894   0.226 -31.689  1.00  0.00     0.210 HD
ENDBRANCH   5  13
ENDBRANCH   2   4
BRANCH   2  15
HETATM   15  C   UNL     1      -6.347   2.505 -33.749  1.00  0.00     0.271 C 
BRANCH  15  16
HETATM   16  C   UNL     1      -5.618   3.424 -32.736  1.00  0.00     0.177 C 
BRANCH  16  17
HETATM   17  O   UNL     1      -6.500   4.445 -32.269  1.00  0.00    -0.389 OA
HETATM   18  H   UNL     1      -7.415   4.134 -32.419  1.00  0.00     0.210 HD
ENDBRANCH  16  17
BRANCH  16  19
HETATM   19  C   UNL     1      -4.394   4.062 -33.358  1.00  0.00    -0.028 A 
HETATM   20  C   UNL     1      -3.138   3.922 -32.743  1.00  0.00     0.013 A 
HETATM   21  C   UNL     1      -2.002   4.497 -33.318  1.00  0.00     0.043 A 
HETATM   22  C   UNL     1      -2.117   5.208 -34.505  1.00  0.00     0.116 A 
HETATM   23  F   UNL     1      -1.026   5.756 -35.053  1.00  0.00    -0.206 F 
HETATM   24  C   UNL     1      -3.347   5.359 -35.131  1.00  0.00     0.043 A 
HETATM   25  C   UNL     1      -4.486   4.786 -34.561  1.00  0.00     0.013 A 
ENDBRANCH  16  19
ENDBRANCH  15  16
ENDBRANCH   2  15
TORSDOF 6
ENDMDL
MODEL 2
REMARK VINA RESULT:      -8.2      3.836      6.947
REMARK  6 active torsions:
REMARK  status: ('A' for Active; 'I' for Inactive)
REMARK    1  A    between atoms: N_2  and  C_4 
REMARK    2  A    between atoms: N_2  and  C_14 
REMARK    3  A    between atoms: C_5  and  O_6 
REMARK    4  A    between atoms: C_14  and  C_15 
REMARK    5  A    between atoms: C_15  and  O_16 
REMARK    6  A    between atoms: C_15  and  C_17 
ROOT
HETATM    1  C   UNL     1      -7.618   3.030 -32.843  1.00  0.00     0.270 C 
HETATM    2  N   UNL     1      -7.707   1.568 -33.189  1.00  0.00    -0.065 N 
HETATM    3  H   UNL     1      -7.802   1.022 -32.315  1.00  0.00     0.280 HD
ENDROOT
BRANCH   2   4
HETATM    4  C   UNL     1      -8.961   1.176 -33.989  1.00  0.00     0.225 C 
HETATM    5  C   UNL     1      -9.884   0.257 -33.120  1.00  0.00     0.183 C 
HETATM    6  C   UNL     1     -11.245   0.603 -33.627  1.00  0.00    -0.021 A 
HETATM    7  C   UNL     1     -11.221   1.812 -34.328  1.00  0.00    -0.047 A 
HETATM    8  C   UNL     1     -12.427  -0.101 -33.455  1.00  0.00     0.010 A 
HETATM    9  C   UNL     1      -9.846   2.403 -34.334  1.00  0.00     0.075 C 
HETATM   10  C   UNL     1     -12.378   2.352 -34.863  1.00  0.00     0.008 A 
HETATM   11  C   UNL     1     -13.572   1.646 -34.700  1.00  0.00     0.001 A 
HETATM   12  C   UNL     1     -13.596   0.429 -34.003  1.00  0.00     0.001 A 
BRANCH   5  13
HETATM   13  O   UNL     1      -9.734   0.623 -31.743  1.00  0.00    -0.389 OA
HETATM   14  H   UNL     1      -9.111  -0.018 -31.343  1.00  0.00     0.210 HD
ENDBRANCH   5  13
ENDBRANCH   2   4
BRANCH   2  15
HETATM   15  C   UNL     1      -6.420   1.062 -33.868  1.00  0.00     0.271 C 
BRANCH  15  16
HETATM   16  C   UNL     1      -5.672   0.005 -33.016  1.00  0.00     0.177 C 
BRANCH  16  17
HETATM   17  O   UNL     1      -4.321   0.412 -32.795  1.00  0.00    -0.389 OA
HETATM   18  H   UNL     1      -4.182   1.246 -33.286  1.00  0.00     0.210 HD
ENDBRANCH  16  17
BRANCH  16  19
HETATM   19  C   UNL     1      -5.686  -1.350 -33.690  1.00  0.00    -0.028 A 
HETATM   20  C   UNL     1      -4.481  -2.038 -33.915  1.00  0.00     0.013 A 
HETATM   21  C   UNL     1      -4.488  -3.295 -34.525  1.00  0.00     0.043 A 
HETATM   22  C   UNL     1      -5.694  -3.867 -34.908  1.00  0.00     0.116 A 
HETATM   23  F   UNL     1      -5.697  -5.071 -35.491  1.00  0.00    -0.206 F 
HETATM   24  C   UNL     1      -6.897  -3.206 -34.696  1.00  0.00     0.043 A 
HETATM   25  C   UNL     1      -6.896  -1.949 -34.087  1.00  0.00     0.013 A 
ENDBRANCH  16  19
ENDBRANCH  15  16
ENDBRANCH   2  15
TORSDOF 6
ENDMDL
MODEL 3
REMARK VINA RESULT:      -8.1      1.558      1.808
REMARK  6 active torsions:
REMARK  status: ('A' for Active; 'I' for Inactive)
REMARK    1  A    between atoms: N_2  and  C_4 
REMARK    2  A    between atoms: N_2  and  C_14 
REMARK    3  A    between atoms: C_5  and  O_6 
REMARK    4  A    between atoms: C_14  and  C_15 
REMARK    5  A    between atoms: C_15  and  O_16 
REMARK    6  A    between atoms: C_15  and  C_17 
ROOT
HETATM    1  C   UNL     1      -7.011   1.760 -31.711  1.00  0.00     0.270 C 
HETATM    2  N   UNL     1      -5.619   1.465 -32.204  1.00  0.00    -0.065 N 
HETATM    3  H   UNL     1      -5.085   1.008 -31.446  1.00  0.00     0.280 HD
ENDROOT
BRANCH   2   4
HETATM    4  C   UNL     1      -5.551   0.444 -33.352  1.00  0.00     0.225 C 
HETATM    5  C   UNL     1      -4.435  -0.615 -33.058  1.00  0.00     0.183 C 
HETATM    6  C   UNL     1      -4.974  -1.838 -33.725  1.00  0.00    -0.021 A 
HETATM    7  C   UNL     1      -6.342  -1.704 -33.975  1.00  0.00    -0.047 A 
HETATM    8  C   UNL     1      -4.295  -2.999 -34.062  1.00  0.00     0.010 A 
HETATM    9  C   UNL     1      -6.855  -0.389 -33.478  1.00  0.00     0.075 C 
HETATM   10  C   UNL     1      -7.066  -2.730 -34.558  1.00  0.00     0.008 A 
HETATM   11  C   UNL     1      -6.389  -3.900 -34.907  1.00  0.00     0.001 A 
HETATM   12  C   UNL     1      -5.014  -4.033 -34.662  1.00  0.00     0.001 A 
BRANCH   5  13
HETATM   13  O   UNL     1      -4.333  -0.797 -31.641  1.00  0.00    -0.389 OA
HETATM   14  H   UNL     1      -4.341   0.095 -31.238  1.00  0.00     0.210 HD
ENDBRANCH   5  13
ENDBRANCH   2   4
BRANCH   2  15
HETATM   15  C   UNL     1      -4.850   2.756 -32.547  1.00  0.00     0.271 C 
BRANCH  15  16
HETATM   16  C   UNL     1      -3.314   2.580 -32.445  1.00  0.00     0.177 C 
BRANCH  16  17
HETATM   17  O   UNL     1      -2.962   2.027 -31.176  1.00  0.00    -0.389 OA
HETATM   18  H   UNL     1      -2.254   2.585 -30.798  1.00  0.00     0.210 HD
ENDBRANCH  16  17
BRANCH  16  19
HETATM   19  C   UNL     1      -2.598   3.900 -32.634  1.00  0.00    -0.028 A 
HETATM   20  C   UNL     1      -2.007   4.546 -31.535  1.00  0.00     0.013 A 
HETATM   21  C   UNL     1      -1.334   5.758 -31.706  1.00  0.00     0.043 A 
HETATM   22  C   UNL     1      -1.248   6.325 -32.970  1.00  0.00     0.116 A 
HETATM   23  F   UNL     1      -0.601   7.486 -33.129  1.00  0.00    -0.206 F 
HETATM   24  C   UNL     1      -1.823   5.705 -34.071  1.00  0.00     0.043 A 
HETATM   25  C   UNL     1      -2.498   4.493 -33.907  1.00  0.00     0.013 A 
ENDBRANCH  16  19
ENDBRANCH  15  16
ENDBRANCH   2  15
TORSDOF 6
ENDMDL
MODEL 4
REMARK VINA RESULT:      -7.8      2.920      7.201
REMARK  6 active torsions:
REMARK  status: ('A' for Active; 'I' for Inactive)
REMARK    1  A    between atoms: N_2  and  C_4 
REMARK    2  A    between atoms: N_2  and  C_14 
REMARK    3  A    between atoms: C_5  and  O_6 
REMARK    4  A    between atoms: C_14  and  C_15 
REMARK    5  A    between atoms: C_15  and  O_16 
REMARK    6  A    between atoms: C_15  and  C_17 
ROOT
HETATM    1  C   UNL     1      -6.176   0.290 -30.820  1.00  0.00     0.270 C 
HETATM    2  N   UNL     1      -6.706   0.867 -32.106  1.00  0.00    -0.065 N 
HETATM    3  H   UNL     1      -7.410   1.591 -31.883  1.00  0.00     0.280 HD
ENDROOT
BRANCH   2   4
HETATM    4  C   UNL     1      -5.663   1.631 -32.940  1.00  0.00     0.225 C 
HETATM    5  C   UNL     1      -6.217   3.047 -33.319  1.00  0.00     0.183 C 
HETATM    6  C   UNL     1      -4.972   3.869 -33.381  1.00  0.00    -0.021 A 
HETATM    7  C   UNL     1      -3.919   3.225 -32.724  1.00  0.00    -0.047 A 
HETATM    8  C   UNL     1      -4.798   5.115 -33.962  1.00  0.00     0.010 A 
HETATM    9  C   UNL     1      -4.367   1.923 -32.139  1.00  0.00     0.075 C 
HETATM   10  C   UNL     1      -2.672   3.816 -32.623  1.00  0.00     0.008 A 
HETATM   11  C   UNL     1      -2.485   5.068 -33.211  1.00  0.00     0.001 A 
HETATM   12  C   UNL     1      -3.539   5.712 -33.876  1.00  0.00     0.001 A 
BRANCH   5  13
HETATM   13  O   UNL     1      -7.087   3.498 -32.274  1.00  0.00    -0.389 OA
HETATM   14  H   UNL     1      -7.048   2.827 -31.561  1.00  0.00     0.210 HD
ENDBRANCH   5  13
ENDBRANCH   2   4
BRANCH   2  15
HETATM   15  C   UNL     1      -7.439  -0.194 -32.948  1.00  0.00     0.271 C 
BRANCH  15  16
HETATM   16  C   UNL     1      -6.748  -0.457 -34.310  1.00  0.00     0.177 C 
BRANCH  16  17
HETATM   17  O   UNL     1      -7.680  -0.294 -35.379  1.00  0.00    -0.389 OA
HETATM   18  H   UNL     1      -7.539   0.595 -35.759  1.00  0.00     0.210 HD
ENDBRANCH  16  17
BRANCH  16  19
HETATM   19  C   UNL     1      -6.158  -1.850 -34.364  1.00  0.00    -0.028 A 
HETATM   20  C   UNL     1      -6.962  -2.942 -34.734  1.00  0.00     0.013 A 
HETATM   21  C   UNL     1      -6.421  -4.228 -34.798  1.00  0.00     0.043 A 
HETATM   22  C   UNL     1      -5.081  -4.427 -34.497  1.00  0.00     0.116 A 
HETATM   23  F   UNL     1      -4.565  -5.660 -34.561  1.00  0.00    -0.206 F 
HETATM   24  C   UNL     1      -4.267  -3.363 -34.129  1.00  0.00     0.043 A 
HETATM   25  C   UNL     1      -4.802  -2.075 -34.063  1.00  0.00     0.013 A 
ENDBRANCH  16  19
ENDBRANCH  15  16
ENDBRANCH   2  15
TORSDOF 6
ENDMDL
MODEL 5
REMARK VINA RESULT:      -7.5      2.697      7.106
REMARK  6 active torsions:
REMARK  status: ('A' for Active; 'I' for Inactive)
REMARK    1  A    between atoms: N_2  and  C_4 
REMARK    2  A    between atoms: N_2  and  C_14 
REMARK    3  A    between atoms: C_5  and  O_6 
REMARK    4  A    between atoms: C_14  and  C_15 
REMARK    5  A    between atoms: C_15  and  O_16 
REMARK    6  A    between atoms: C_15  and  C_17 
ROOT
HETATM    1  C   UNL     1      -6.351   2.490 -34.132  1.00  0.00     0.270 C 
HETATM    2  N   UNL     1      -5.528   2.412 -32.873  1.00  0.00    -0.065 N 
HETATM    3  H   UNL     1      -4.759   1.735 -33.017  1.00  0.00     0.280 HD
ENDROOT
BRANCH   2   4
HETATM    4  C   UNL     1      -4.793   3.712 -32.510  1.00  0.00     0.225 C 
HETATM    5  C   UNL     1      -3.409   3.378 -31.855  1.00  0.00     0.183 C 
HETATM    6  C   UNL     1      -2.571   4.541 -32.273  1.00  0.00    -0.021 A 
HETATM    7  C   UNL     1      -3.161   5.219 -33.344  1.00  0.00    -0.047 A 
HETATM    8  C   UNL     1      -1.355   4.952 -31.750  1.00  0.00     0.010 A 
HETATM    9  C   UNL     1      -4.437   4.558 -33.761  1.00  0.00     0.075 C 
HETATM   10  C   UNL     1      -2.545   6.313 -33.924  1.00  0.00     0.008 A 
HETATM   11  C   UNL     1      -1.323   6.738 -33.399  1.00  0.00     0.001 A 
HETATM   12  C   UNL     1      -0.733   6.063 -32.320  1.00  0.00     0.001 A 
BRANCH   5  13
HETATM   13  O   UNL     1      -2.917   2.155 -32.415  1.00  0.00    -0.389 OA
HETATM   14  H   UNL     1      -3.525   1.444 -32.125  1.00  0.00     0.210 HD
ENDBRANCH   5  13
ENDBRANCH   2   4
BRANCH   2  15
HETATM   15  C   UNL     1      -6.351   1.874 -31.686  1.00  0.00     0.271 C 
BRANCH  15  16
HETATM   16  C   UNL     1      -5.873   0.477 -31.214  1.00  0.00     0.177 C 
BRANCH  16  17
HETATM   17  O   UNL     1      -4.597   0.578 -30.582  1.00  0.00    -0.389 OA
HETATM   18  H   UNL     1      -4.713   0.333 -29.643  1.00  0.00     0.210 HD
ENDBRANCH  16  17
BRANCH  16  19
HETATM   19  C   UNL     1      -5.788  -0.493 -32.372  1.00  0.00    -0.028 A 
HETATM   20  C   UNL     1      -4.546  -1.031 -32.750  1.00  0.00     0.013 A 
HETATM   21  C   UNL     1      -4.462  -1.937 -33.810  1.00  0.00     0.043 A 
HETATM   22  C   UNL     1      -5.613  -2.308 -34.491  1.00  0.00     0.116 A 
HETATM   23  F   UNL     1      -5.529  -3.177 -35.506  1.00  0.00    -0.206 F 
HETATM   24  C   UNL     1      -6.851  -1.790 -34.135  1.00  0.00     0.043 A 
HETATM   25  C   UNL     1      -6.942  -0.884 -33.077  1.00  0.00     0.013 A 
ENDBRANCH  16  19
ENDBRANCH  15  16
ENDBRANCH   2  15
TORSDOF 6
ENDMDL
MODEL 6
REMARK VINA RESULT:      -7.3      3.453      6.849
REMARK  6 active torsions:
REMARK  status: ('A' for Active; 'I' for Inactive)
REMARK    1  A    between atoms: N_2  and  C_4 
REMARK    2  A    between atoms: N_2  and  C_14 
REMARK    3  A    between atoms: C_5  and  O_6 
REMARK    4  A    between atoms: C_14  and  C_15 
REMARK    5  A    between atoms: C_15  and  O_16 
REMARK    6  A    between atoms: C_15  and  C_17 
ROOT
HETATM    1  C   UNL     1      -6.852   2.570 -34.021  1.00  0.00     0.270 C 
HETATM    2  N   UNL     1      -7.531   2.507 -32.679  1.00  0.00    -0.065 N 
HETATM    3  H   UNL     1      -7.647   3.469 -32.317  1.00  0.00     0.280 HD
ENDROOT
BRANCH   2   4
HETATM    4  C   UNL     1      -8.971   1.967 -32.717  1.00  0.00     0.225 C 
HETATM    5  C   UNL     1      -9.966   3.066 -32.211  1.00  0.00     0.183 C 
HETATM    6  C   UNL     1     -11.203   2.755 -32.988  1.00  0.00    -0.021 A 
HETATM    7  C   UNL     1     -10.909   1.940 -34.085  1.00  0.00    -0.047 A 
HETATM    8  C   UNL     1     -12.497   3.190 -32.747  1.00  0.00     0.010 A 
HETATM    9  C   UNL     1      -9.443   1.648 -34.161  1.00  0.00     0.075 C 
HETATM   10  C   UNL     1     -11.897   1.550 -34.971  1.00  0.00     0.008 A 
HETATM   11  C   UNL     1     -13.205   1.978 -34.732  1.00  0.00     0.001 A 
HETATM   12  C   UNL     1     -13.502   2.790 -33.628  1.00  0.00     0.001 A 
BRANCH   5  13
HETATM   13  O   UNL     1      -9.445   4.355 -32.556  1.00  0.00    -0.389 OA
HETATM   14  H   UNL     1      -8.614   4.203 -33.051  1.00  0.00     0.210 HD
ENDBRANCH   5  13
ENDBRANCH   2   4
BRANCH   2  15
HETATM   15  C   UNL     1      -6.673   1.762 -31.639  1.00  0.00     0.271 C 
BRANCH  15  16
HETATM   16  C   UNL     1      -7.091   0.279 -31.472  1.00  0.00     0.177 C 
BRANCH  16  17
HETATM   17  O   UNL     1      -6.867  -0.151 -30.129  1.00  0.00    -0.389 OA
HETATM   18  H   UNL     1      -7.025   0.617 -29.545  1.00  0.00     0.210 HD
ENDBRANCH  16  17
BRANCH  16  19
HETATM   19  C   UNL     1      -6.324  -0.616 -32.422  1.00  0.00    -0.028 A 
HETATM   20  C   UNL     1      -6.957  -1.139 -33.563  1.00  0.00     0.013 A 
HETATM   21  C   UNL     1      -6.252  -1.955 -34.450  1.00  0.00     0.043 A 
HETATM   22  C   UNL     1      -4.917  -2.249 -34.203  1.00  0.00     0.116 A 
HETATM   23  F   UNL     1      -4.244  -3.030 -35.056  1.00  0.00    -0.206 F 
HETATM   24  C   UNL     1      -4.271  -1.743 -33.082  1.00  0.00     0.043 A 
HETATM   25  C   UNL     1      -4.971  -0.927 -32.192  1.00  0.00     0.013 A 
ENDBRANCH  16  19
ENDBRANCH  15  16
ENDBRANCH   2  15
TORSDOF 6
ENDMDL
MODEL 7
REMARK VINA RESULT:      -7.3      4.540      6.644
REMARK  6 active torsions:
REMARK  status: ('A' for Active; 'I' for Inactive)
REMARK    1  A    between atoms: N_2  and  C_4 
REMARK    2  A    between atoms: N_2  and  C_14 
REMARK    3  A    between atoms: C_5  and  O_6 
REMARK    4  A    between atoms: C_14  and  C_15 
REMARK    5  A    between atoms: C_15  and  O_16 
REMARK    6  A    between atoms: C_15  and  C_17 
ROOT
HETATM    1  C   UNL     1      -9.363   0.574 -31.562  1.00  0.00     0.270 C 
HETATM    2  N   UNL     1      -8.480   1.445 -32.417  1.00  0.00    -0.065 N 
HETATM    3  H   UNL     1      -7.759   1.881 -31.817  1.00  0.00     0.280 HD
ENDROOT
BRANCH   2   4
HETATM    4  C   UNL     1      -7.655   0.682 -33.467  1.00  0.00     0.225 C 
HETATM    5  C   UNL     1      -6.186   0.495 -32.959  1.00  0.00     0.183 C 
HETATM    6  C   UNL     1      -5.792  -0.798 -33.594  1.00  0.00    -0.021 A 
HETATM    7  C   UNL     1      -6.920  -1.504 -34.022  1.00  0.00    -0.047 A 
HETATM    8  C   UNL     1      -4.518  -1.319 -33.757  1.00  0.00     0.010 A 
HETATM    9  C   UNL     1      -8.177  -0.762 -33.692  1.00  0.00     0.075 C 
HETATM   10  C   UNL     1      -6.803  -2.750 -34.612  1.00  0.00     0.008 A 
HETATM   11  C   UNL     1      -5.523  -3.279 -34.786  1.00  0.00     0.001 A 
HETATM   12  C   UNL     1      -4.389  -2.569 -34.363  1.00  0.00     0.001 A 
BRANCH   5  13
HETATM   13  O   UNL     1      -6.201   0.389 -31.531  1.00  0.00    -0.389 OA
HETATM   14  H   UNL     1      -6.729   1.143 -31.195  1.00  0.00     0.210 HD
ENDBRANCH   5  13
ENDBRANCH   2   4
BRANCH   2  15
HETATM   15  C   UNL     1      -9.267   2.609 -33.049  1.00  0.00     0.271 C 
BRANCH  15  16
HETATM   16  C   UNL     1     -10.186   2.149 -34.209  1.00  0.00     0.177 C 
BRANCH  16  17
HETATM   17  O   UNL     1     -10.134   3.087 -35.284  1.00  0.00    -0.389 OA
HETATM   18  H   UNL     1     -10.290   2.593 -36.113  1.00  0.00     0.210 HD
ENDBRANCH  16  17
BRANCH  16  19
HETATM   19  C   UNL     1     -11.618   1.994 -33.744  1.00  0.00    -0.028 A 
HETATM   20  C   UNL     1     -12.266   3.056 -33.091  1.00  0.00     0.013 A 
HETATM   21  C   UNL     1     -13.592   2.924 -32.671  1.00  0.00     0.043 A 
HETATM   22  C   UNL     1     -14.272   1.736 -32.903  1.00  0.00     0.116 A 
HETATM   23  F   UNL     1     -15.542   1.613 -32.500  1.00  0.00    -0.206 F 
HETATM   24  C   UNL     1     -13.652   0.672 -33.546  1.00  0.00     0.043 A 
HETATM   25  C   UNL     1     -12.327   0.799 -33.968  1.00  0.00     0.013 A 
ENDBRANCH  16  19
ENDBRANCH  15  16
ENDBRANCH   2  15
TORSDOF 6
ENDMDL
MODEL 8
REMARK VINA RESULT:      -7.3      3.632      4.510
REMARK  6 active torsions:
REMARK  status: ('A' for Active; 'I' for Inactive)
REMARK    1  A    between atoms: N_2  and  C_4 
REMARK    2  A    between atoms: N_2  and  C_14 
REMARK    3  A    between atoms: C_5  and  O_6 
REMARK    4  A    between atoms: C_14  and  C_15 
REMARK    5  A    between atoms: C_15  and  O_16 
REMARK    6  A    between atoms: C_15  and  C_17 
ROOT
HETATM    1  C   UNL     1      -8.964   1.414 -31.913  1.00  0.00     0.270 C 
HETATM    2  N   UNL     1      -7.462   1.342 -31.838  1.00  0.00    -0.065 N 
HETATM    3  H   UNL     1      -7.194   0.793 -31.004  1.00  0.00     0.280 HD
ENDROOT
BRANCH   2   4
HETATM    4  C   UNL     1      -6.801   0.575 -32.995  1.00  0.00     0.225 C 
HETATM    5  C   UNL     1      -5.475  -0.098 -32.501  1.00  0.00     0.183 C 
HETATM    6  C   UNL     1      -5.400  -1.319 -33.357  1.00  0.00    -0.021 A 
HETATM    7  C   UNL     1      -6.643  -1.599 -33.932  1.00  0.00    -0.047 A 
HETATM    8  C   UNL     1      -4.305  -2.136 -33.588  1.00  0.00     0.010 A 
HETATM    9  C   UNL     1      -7.674  -0.607 -33.494  1.00  0.00     0.075 C 
HETATM   10  C   UNL     1      -6.824  -2.707 -34.740  1.00  0.00     0.008 A 
HETATM   11  C   UNL     1      -5.724  -3.533 -34.983  1.00  0.00     0.001 A 
HETATM   12  C   UNL     1      -4.474  -3.249 -34.413  1.00  0.00     0.001 A 
BRANCH   5  13
HETATM   13  O   UNL     1      -5.620  -0.441 -31.118  1.00  0.00    -0.389 OA
HETATM   14  H   UNL     1      -4.717  -0.565 -30.759  1.00  0.00     0.210 HD
ENDBRANCH   5  13
ENDBRANCH   2   4
BRANCH   2  15
HETATM   15  C   UNL     1      -6.833   2.736 -31.649  1.00  0.00     0.271 C 
BRANCH  15  16
HETATM   16  C   UNL     1      -6.332   2.973 -30.202  1.00  0.00     0.177 C 
BRANCH  16  17
HETATM   17  O   UNL     1      -6.639   1.846 -29.380  1.00  0.00    -0.389 OA
HETATM   18  H   UNL     1      -7.562   1.589 -29.568  1.00  0.00     0.210 HD
ENDBRANCH  16  17
BRANCH  16  19
HETATM   19  C   UNL     1      -6.954   4.217 -29.604  1.00  0.00    -0.028 A 
HETATM   20  C   UNL     1      -8.267   4.582 -29.945  1.00  0.00     0.013 A 
HETATM   21  C   UNL     1      -8.851   5.721 -29.387  1.00  0.00     0.043 A 
HETATM   22  C   UNL     1      -8.129   6.495 -28.489  1.00  0.00     0.116 A 
HETATM   23  F   UNL     1      -8.693   7.585 -27.955  1.00  0.00    -0.206 F 
HETATM   24  C   UNL     1      -6.830   6.154 -28.136  1.00  0.00     0.043 A 
HETATM   25  C   UNL     1      -6.240   5.016 -28.691  1.00  0.00     0.013 A 
ENDBRANCH  16  19
ENDBRANCH  15  16
ENDBRANCH   2  15
TORSDOF 6
ENDMDL
MODEL 9
REMARK VINA RESULT:      -7.2     15.091     16.274
REMARK  6 active torsions:
REMARK  status: ('A' for Active; 'I' for Inactive)
REMARK    1  A    between atoms: N_2  and  C_4 
REMARK    2  A    between atoms: N_2  and  C_14 
REMARK    3  A    between atoms: C_5  and  O_6 
REMARK    4  A    between atoms: C_14  and  C_15 
REMARK    5  A    between atoms: C_15  and  O_16 
REMARK    6  A    between atoms: C_15  and  C_17 
ROOT
HETATM    1  C   UNL     1      -5.034 -15.595 -38.979  1.00  0.00     0.270 C 
HETATM    2  N   UNL     1      -5.467 -14.379 -38.205  1.00  0.00    -0.065 N 
HETATM    3  H   UNL     1      -5.103 -13.533 -38.679  1.00  0.00     0.280 HD
ENDROOT
BRANCH   2   4
HETATM    4  C   UNL     1      -6.987 -14.145 -38.182  1.00  0.00     0.225 C 
HETATM    5  C   UNL     1      -7.318 -12.724 -38.753  1.00  0.00     0.183 C 
HETATM    6  C   UNL     1      -8.661 -12.935 -39.371  1.00  0.00    -0.021 A 
HETATM    7  C   UNL     1      -8.911 -14.297 -39.561  1.00  0.00    -0.047 A 
HETATM    8  C   UNL     1      -9.585 -11.977 -39.758  1.00  0.00     0.010 A 
HETATM    9  C   UNL     1      -7.749 -15.126 -39.112  1.00  0.00     0.075 C 
HETATM   10  C   UNL     1     -10.084 -14.733 -40.152  1.00  0.00     0.008 A 
HETATM   11  C   UNL     1     -11.023 -13.775 -40.539  1.00  0.00     0.001 A 
HETATM   12  C   UNL     1     -10.776 -12.408 -40.343  1.00  0.00     0.001 A 
BRANCH   5  13
HETATM   13  O   UNL     1      -6.338 -12.385 -39.742  1.00  0.00    -0.389 OA
HETATM   14  H   UNL     1      -5.822 -11.633 -39.386  1.00  0.00     0.210 HD
ENDBRANCH   5  13
ENDBRANCH   2   4
BRANCH   2  15
HETATM   15  C   UNL     1      -4.868 -14.361 -36.786  1.00  0.00     0.271 C 
BRANCH  15  16
HETATM   16  C   UNL     1      -3.844 -13.215 -36.584  1.00  0.00     0.177 C 
BRANCH  16  17
HETATM   17  O   UNL     1      -4.353 -11.995 -37.124  1.00  0.00    -0.389 OA
HETATM   18  H   UNL     1      -4.265 -12.045 -38.096  1.00  0.00     0.210 HD
ENDBRANCH  16  17
BRANCH  16  19
HETATM   19  C   UNL     1      -2.520 -13.543 -37.239  1.00  0.00    -0.028 A 
HETATM   20  C   UNL     1      -2.106 -12.839 -38.383  1.00  0.00     0.013 A 
HETATM   21  C   UNL     1      -0.879 -13.127 -38.985  1.00  0.00     0.043 A 
HETATM   22  C   UNL     1      -0.064 -14.114 -38.447  1.00  0.00     0.116 A 
HETATM   23  F   UNL     1       1.111 -14.387 -39.026  1.00  0.00    -0.206 F 
HETATM   24  C   UNL     1      -0.452 -14.823 -37.317  1.00  0.00     0.043 A 
HETATM   25  C   UNL     1      -1.677 -14.539 -36.711  1.00  0.00     0.013 A 
ENDBRANCH  16  19
ENDBRANCH  15  16
ENDBRANCH   2  15
TORSDOF 6
ENDMDL
MODEL 10
REMARK VINA RESULT:      -7.0      3.655      7.665
REMARK  6 active torsions:
REMARK  status: ('A' for Active; 'I' for Inactive)
REMARK    1  A    between atoms: N_2  and  C_4 
REMARK    2  A    between atoms: N_2  and  C_14 
REMARK    3  A    between atoms: C_5  and  O_6 
REMARK    4  A    between atoms: C_14  and  C_15 
REMARK    5  A    between atoms: C_15  and  O_16 
REMARK    6  A    between atoms: C_15  and  C_17 
ROOT
HETATM    1  C   UNL     1      -8.577   0.757 -31.560  1.00  0.00     0.270 C 
HETATM    2  N   UNL     1      -7.145   1.217 -31.624  1.00  0.00    -0.065 N 
HETATM    3  H   UNL     1      -7.020   1.805 -32.466  1.00  0.00     0.280 HD
ENDROOT
BRANCH   2   4
HETATM    4  C   UNL     1      -6.721   2.147 -30.475  1.00  0.00     0.225 C 
HETATM    5  C   UNL     1      -5.618   3.141 -30.972  1.00  0.00     0.183 C 
HETATM    6  C   UNL     1      -5.877   4.349 -30.134  1.00  0.00    -0.021 A 
HETATM    7  C   UNL     1      -7.155   4.297 -29.570  1.00  0.00    -0.047 A 
HETATM    8  C   UNL     1      -5.040   5.431 -29.909  1.00  0.00     0.010 A 
HETATM    9  C   UNL     1      -7.882   3.061 -29.998  1.00  0.00     0.075 C 
HETATM   10  C   UNL     1      -7.631   5.328 -28.779  1.00  0.00     0.008 A 
HETATM   11  C   UNL     1      -6.792   6.419 -28.542  1.00  0.00     0.001 A 
HETATM   12  C   UNL     1      -5.506   6.470 -29.102  1.00  0.00     0.001 A 
BRANCH   5  13
HETATM   13  O   UNL     1      -5.835   3.416 -32.361  1.00  0.00    -0.389 OA
HETATM   14  H   UNL     1      -6.718   3.058 -32.587  1.00  0.00     0.210 HD
ENDBRANCH   5  13
ENDBRANCH   2   4
BRANCH   2  15
HETATM   15  C   UNL     1      -6.171   0.034 -31.785  1.00  0.00     0.271 C 
BRANCH  15  16
HETATM   16  C   UNL     1      -5.490   0.006 -33.176  1.00  0.00     0.177 C 
BRANCH  16  17
HETATM   17  O   UNL     1      -6.101   0.959 -34.046  1.00  0.00    -0.389 OA
HETATM   18  H   UNL     1      -5.449   1.668 -34.210  1.00  0.00     0.210 HD
ENDBRANCH  16  17
BRANCH  16  19
HETATM   19  C   UNL     1      -5.573  -1.371 -33.799  1.00  0.00    -0.028 A 
HETATM   20  C   UNL     1      -4.407  -2.137 -33.974  1.00  0.00     0.013 A 
HETATM   21  C   UNL     1      -4.479  -3.413 -34.536  1.00  0.00     0.043 A 
HETATM   22  C   UNL     1      -5.709  -3.928 -34.922  1.00  0.00     0.116 A 
HETATM   23  F   UNL     1      -5.773  -5.152 -35.459  1.00  0.00    -0.206 F 
HETATM   24  C   UNL     1      -6.874  -3.190 -34.759  1.00  0.00     0.043 A 
HETATM   25  C   UNL     1      -6.809  -1.913 -34.197  1.00  0.00     0.013 A 
ENDBRANCH  16  19
ENDBRANCH  15  16
ENDBRANCH   2  15
TORSDOF 6
ENDMDL
