MODEL 1
REMARK VINA RESULT:      -9.7      0.000      0.000
REMARK  6 active torsions:
REMARK  status: ('A' for Active; 'I' for Inactive)
REMARK    1  A    between atoms: O_2  and  C_3 
REMARK    2  A    between atoms: C_5  and  N_6 
REMARK    3  A    between atoms: C_8  and  C_9 
REMARK    4  A    between atoms: C_9  and  N_10 
REMARK       I    between atoms: N_10  and  C_11 
REMARK       I    between atoms: C_11  and  N_12 
REMARK    5  A    between atoms: N_12  and  C_13 
REMARK    6  A    between atoms: C_13  and  C_14 
ROOT
HETATM    1  N   UNL     1      -5.268   4.494 -34.242  1.00  0.00    -0.343 N 
HETATM    2  C   UNL     1      -5.935   3.571 -33.484  1.00  0.00     0.316 C 
HETATM    3  N   UNL     1      -6.331   2.502 -34.240  1.00  0.00    -0.339 N 
HETATM    4  O   UNL     1      -6.112   3.667 -32.278  1.00  0.00    -0.248 OA
HETATM    5  H   UNL     1      -4.945   4.186 -35.147  1.00  0.00     0.164 HD
HETATM    6  H   UNL     1      -6.535   2.694 -35.209  1.00  0.00     0.164 HD
ENDROOT
BRANCH   1   7
HETATM    7  C   UNL     1      -4.591   5.630 -33.643  1.00  0.00     0.130 C 
BRANCH   7   8
HETATM    8  C   UNL     1      -3.155   5.822 -34.158  1.00  0.00     0.023 C 
HETATM    9  C   UNL     1      -2.356   6.821 -33.314  1.00  0.00     0.129 C 
HETATM   10  N   UNL     1      -1.812   6.011 -32.224  1.00  0.00    -0.380 N 
HETATM   11  C   UNL     1      -1.854   4.587 -32.549  1.00  0.00     0.123 C 
HETATM   12  C   UNL     1      -2.326   4.546 -34.003  1.00  0.00     0.028 C 
BRANCH  10  13
HETATM   13  C   UNL     1      -1.355   6.524 -31.031  1.00  0.00     0.032 A 
HETATM   14  C   UNL     1      -2.228   6.809 -29.964  1.00  0.00     0.066 A 
HETATM   15  C   UNL     1      -1.776   7.354 -28.753  1.00  0.00     0.070 A 
HETATM   16  C   UNL     1      -0.422   7.637 -28.595  1.00  0.00     0.037 A 
HETATM   17  C   UNL     1       0.471   7.356 -29.621  1.00  0.00     0.005 A 
HETATM   18  C   UNL     1       0.005   6.801 -30.817  1.00  0.00     0.029 A 
BRANCH  15  19
HETATM   19  O   UNL     1      -2.552   7.664 -27.670  1.00  0.00    -0.356 OA
HETATM   20  C   UNL     1      -2.314   6.928 -26.478  1.00  0.00     0.210 C 
ENDBRANCH  15  19
ENDBRANCH  10  13
ENDBRANCH   7   8
ENDBRANCH   1   7
BRANCH   3  21
HETATM   21  C   UNL     1      -7.059   1.412 -33.631  1.00  0.00     0.162 C 
BRANCH  21  22
HETATM   22  C   UNL     1      -6.302   0.117 -33.759  1.00  0.00    -0.040 A 
HETATM   23  C   UNL     1      -6.927  -1.037 -34.256  1.00  0.00     0.021 A 
HETATM   24  C   UNL     1      -6.234  -2.257 -34.349  1.00  0.00    -0.025 A 
HETATM   25  C   UNL     1      -4.883  -2.321 -33.937  1.00  0.00    -0.026 A 
HETATM   26  C   UNL     1      -6.856  -3.418 -34.836  1.00  0.00     0.012 A 
HETATM   27  C   UNL     1      -4.262  -1.165 -33.443  1.00  0.00     0.013 A 
HETATM   28  C   UNL     1      -4.193  -3.540 -34.026  1.00  0.00     0.012 A 
HETATM   29  C   UNL     1      -4.964   0.038 -33.351  1.00  0.00     0.010 A 
HETATM   30  C   UNL     1      -4.827  -4.686 -34.510  1.00  0.00     0.001 A 
HETATM   31  C   UNL     1      -6.157  -4.624 -34.915  1.00  0.00     0.001 A 
ENDBRANCH  21  22
ENDBRANCH   3  21
TORSDOF 6
ENDMDL
MODEL 2
REMARK VINA RESULT:      -9.4      3.036      4.838
REMARK  6 active torsions:
REMARK  status: ('A' for Active; 'I' for Inactive)
REMARK    1  A    between atoms: O_2  and  C_3 
REMARK    2  A    between atoms: C_5  and  N_6 
REMARK    3  A    between atoms: C_8  and  C_9 
REMARK    4  A    between atoms: C_9  and  N_10 
REMARK       I    between atoms: N_10  and  C_11 
REMARK       I    between atoms: C_11  and  N_12 
REMARK    5  A    between atoms: N_12  and  C_13 
REMARK    6  A    between atoms: C_13  and  C_14 
ROOT
HETATM    1  N   UNL     1      -9.808   1.946 -32.308  1.00  0.00    -0.343 N 
HETATM    2  C   UNL     1      -9.027   1.859 -33.428  1.00  0.00     0.316 C 
HETATM    3  N   UNL     1      -8.830   0.555 -33.794  1.00  0.00    -0.339 N 
HETATM    4  O   UNL     1      -8.600   2.823 -34.048  1.00  0.00    -0.248 OA
HETATM    5  H   UNL     1     -10.322   1.117 -32.050  1.00  0.00     0.164 HD
HETATM    6  H   UNL     1      -8.826  -0.120 -33.045  1.00  0.00     0.164 HD
ENDROOT
BRANCH   1   7
HETATM    7  C   UNL     1     -10.310   3.219 -31.823  1.00  0.00     0.130 C 
BRANCH   7   8
HETATM    8  C   UNL     1      -9.740   3.615 -30.451  1.00  0.00     0.023 C 
HETATM    9  C   UNL     1      -8.365   2.995 -30.184  1.00  0.00     0.129 C 
HETATM   10  N   UNL     1      -7.425   3.933 -30.797  1.00  0.00    -0.380 N 
HETATM   11  C   UNL     1      -8.051   5.232 -31.034  1.00  0.00     0.123 C 
HETATM   12  C   UNL     1      -9.429   5.111 -30.381  1.00  0.00     0.028 C 
BRANCH  10  13
HETATM   13  C   UNL     1      -6.130   3.617 -31.142  1.00  0.00     0.032 A 
HETATM   14  C   UNL     1      -5.249   4.579 -31.674  1.00  0.00     0.066 A 
HETATM   15  C   UNL     1      -3.936   4.262 -32.049  1.00  0.00     0.070 A 
HETATM   16  C   UNL     1      -3.480   2.955 -31.906  1.00  0.00     0.037 A 
HETATM   17  C   UNL     1      -4.316   1.983 -31.371  1.00  0.00     0.005 A 
HETATM   18  C   UNL     1      -5.620   2.318 -30.990  1.00  0.00     0.029 A 
BRANCH  15  19
HETATM   19  O   UNL     1      -3.018   5.130 -32.575  1.00  0.00    -0.356 OA
HETATM   20  C   UNL     1      -1.647   4.788 -32.419  1.00  0.00     0.210 C 
ENDBRANCH  15  19
ENDBRANCH  10  13
ENDBRANCH   7   8
ENDBRANCH   1   7
BRANCH   3  21
HETATM   21  C   UNL     1      -8.024   0.241 -34.951  1.00  0.00     0.162 C 
BRANCH  21  22
HETATM   22  C   UNL     1      -6.890  -0.680 -34.587  1.00  0.00    -0.040 A 
HETATM   23  C   UNL     1      -6.948  -2.049 -34.887  1.00  0.00     0.021 A 
HETATM   24  C   UNL     1      -5.905  -2.919 -34.521  1.00  0.00    -0.025 A 
HETATM   25  C   UNL     1      -4.778  -2.404 -33.842  1.00  0.00    -0.026 A 
HETATM   26  C   UNL     1      -5.961  -4.292 -34.810  1.00  0.00     0.012 A 
HETATM   27  C   UNL     1      -4.723  -1.034 -33.545  1.00  0.00     0.013 A 
HETATM   28  C   UNL     1      -3.739  -3.274 -33.472  1.00  0.00     0.012 A 
HETATM   29  C   UNL     1      -5.768  -0.184 -33.909  1.00  0.00     0.010 A 
HETATM   30  C   UNL     1      -3.811  -4.636 -33.765  1.00  0.00     0.001 A 
HETATM   31  C   UNL     1      -4.921  -5.144 -34.433  1.00  0.00     0.001 A 
ENDBRANCH  21  22
ENDBRANCH   3  21
TORSDOF 6
ENDMDL
MODEL 3
REMARK VINA RESULT:      -9.1      1.515      1.967
REMARK  6 active torsions:
REMARK  status: ('A' for Active; 'I' for Inactive)
REMARK    1  A    between atoms: O_2  and  C_3 
REMARK    2  A    between atoms: C_5  and  N_6 
REMARK    3  A    between atoms: C_8  and  C_9 
REMARK    4  A    between atoms: C_9  and  N_10 
REMARK       I    between atoms: N_10  and  C_11 
REMARK       I    between atoms: C_11  and  N_12 
REMARK    5  A    between atoms: N_12  and  C_13 
REMARK    6  A    between atoms: C_13  and  C_14 
ROOT
HETATM    1  N   UNL     1      -3.463   3.932 -32.468  1.00  0.00    -0.343 N 
HETATM    2  C   UNL     1      -4.364   3.028 -31.975  1.00  0.00     0.316 C 
HETATM    3  N   UNL     1      -5.047   2.409 -32.986  1.00  0.00    -0.339 N 
HETATM    4  O   UNL     1      -4.506   2.774 -30.787  1.00  0.00    -0.248 OA
HETATM    5  H   UNL     1      -3.240   3.859 -33.449  1.00  0.00     0.164 HD
HETATM    6  H   UNL     1      -5.189   2.951 -33.824  1.00  0.00     0.164 HD
ENDROOT
BRANCH   1   7
HETATM    7  C   UNL     1      -2.491   4.588 -31.612  1.00  0.00     0.130 C 
BRANCH   7   8
HETATM    8  C   UNL     1      -2.221   6.050 -32.007  1.00  0.00     0.023 C 
HETATM    9  C   UNL     1      -2.194   6.991 -30.798  1.00  0.00     0.129 C 
HETATM   10  N   UNL     1      -0.816   6.912 -30.315  1.00  0.00    -0.380 N 
HETATM   11  C   UNL     1       0.073   6.358 -31.334  1.00  0.00     0.123 C 
HETATM   12  C   UNL     1      -0.812   6.228 -32.575  1.00  0.00     0.028 C 
BRANCH  10  13
HETATM   13  C   UNL     1      -0.417   7.278 -29.049  1.00  0.00     0.032 A 
HETATM   14  C   UNL     1      -1.269   7.144 -27.936  1.00  0.00     0.066 A 
HETATM   15  C   UNL     1      -0.881   7.535 -26.646  1.00  0.00     0.070 A 
HETATM   16  C   UNL     1       0.383   8.085 -26.450  1.00  0.00     0.037 A 
HETATM   17  C   UNL     1       1.255   8.219 -27.522  1.00  0.00     0.005 A 
HETATM   18  C   UNL     1       0.857   7.813 -28.800  1.00  0.00     0.029 A 
BRANCH  15  19
HETATM   19  O   UNL     1      -1.643   7.444 -25.514  1.00  0.00    -0.356 OA
HETATM   20  C   UNL     1      -2.247   8.643 -25.048  1.00  0.00     0.210 C 
ENDBRANCH  15  19
ENDBRANCH  10  13
ENDBRANCH   7   8
ENDBRANCH   1   7
BRANCH   3  21
HETATM   21  C   UNL     1      -6.054   1.419 -32.680  1.00  0.00     0.162 C 
BRANCH  21  22
HETATM   22  C   UNL     1      -5.619   0.049 -33.126  1.00  0.00    -0.040 A 
HETATM   23  C   UNL     1      -6.531  -0.842 -33.710  1.00  0.00     0.021 A 
HETATM   24  C   UNL     1      -6.138  -2.135 -34.100  1.00  0.00    -0.025 A 
HETATM   25  C   UNL     1      -4.799  -2.542 -33.904  1.00  0.00    -0.026 A 
HETATM   26  C   UNL     1      -7.049  -3.035 -34.677  1.00  0.00     0.012 A 
HETATM   27  C   UNL     1      -3.889  -1.647 -33.322  1.00  0.00     0.013 A 
HETATM   28  C   UNL     1      -4.408  -3.834 -34.290  1.00  0.00     0.012 A 
HETATM   29  C   UNL     1      -4.295  -0.369 -32.934  1.00  0.00     0.010 A 
HETATM   30  C   UNL     1      -5.325  -4.717 -34.859  1.00  0.00     0.001 A 
HETATM   31  C   UNL     1      -6.644  -4.318 -35.053  1.00  0.00     0.001 A 
ENDBRANCH  21  22
ENDBRANCH   3  21
TORSDOF 6
ENDMDL
MODEL 4
REMARK VINA RESULT:      -9.1     17.774     19.436
REMARK  6 active torsions:
REMARK  status: ('A' for Active; 'I' for Inactive)
REMARK    1  A    between atoms: O_2  and  C_3 
REMARK    2  A    between atoms: C_5  and  N_6 
REMARK    3  A    between atoms: C_8  and  C_9 
REMARK    4  A    between atoms: C_9  and  N_10 
REMARK       I    between atoms: N_10  and  C_11 
REMARK       I    between atoms: C_11  and  N_12 
REMARK    5  A    between atoms: N_12  and  C_13 
REMARK    6  A    between atoms: C_13  and  C_14 
ROOT
HETATM    1  N   UNL     1      -2.908 -14.730 -36.006  1.00  0.00    -0.343 N 
HETATM    2  C   UNL     1      -3.999 -13.904 -36.031  1.00  0.00     0.316 C 
HETATM    3  N   UNL     1      -5.092 -14.511 -35.475  1.00  0.00    -0.339 N 
HETATM    4  O   UNL     1      -3.985 -12.756 -36.453  1.00  0.00    -0.248 OA
HETATM    5  H   UNL     1      -2.963 -15.532 -35.395  1.00  0.00     0.164 HD
HETATM    6  H   UNL     1      -5.138 -15.514 -35.566  1.00  0.00     0.164 HD
ENDROOT
BRANCH   1   7
HETATM    7  C   UNL     1      -1.584 -14.259 -36.370  1.00  0.00     0.130 C 
BRANCH   7   8
HETATM    8  C   UNL     1      -0.995 -14.987 -37.590  1.00  0.00     0.023 C 
HETATM    9  C   UNL     1      -2.070 -15.429 -38.588  1.00  0.00     0.129 C 
HETATM   10  N   UNL     1      -2.270 -14.256 -39.438  1.00  0.00    -0.380 N 
HETATM   11  C   UNL     1      -1.155 -13.319 -39.322  1.00  0.00     0.123 C 
HETATM   12  C   UNL     1      -0.138 -14.052 -38.444  1.00  0.00     0.028 C 
BRANCH  10  13
HETATM   13  C   UNL     1      -3.385 -14.046 -40.218  1.00  0.00     0.032 A 
HETATM   14  C   UNL     1      -3.372 -14.274 -41.608  1.00  0.00     0.066 A 
HETATM   15  C   UNL     1      -4.495 -14.041 -42.414  1.00  0.00     0.070 A 
HETATM   16  C   UNL     1      -5.665 -13.558 -41.834  1.00  0.00     0.037 A 
HETATM   17  C   UNL     1      -5.719 -13.335 -40.465  1.00  0.00     0.005 A 
HETATM   18  C   UNL     1      -4.593 -13.584 -39.672  1.00  0.00     0.029 A 
BRANCH  15  19
HETATM   19  O   UNL     1      -4.568 -14.232 -43.767  1.00  0.00    -0.356 OA
HETATM   20  C   UNL     1      -3.793 -15.293 -44.309  1.00  0.00     0.210 C 
ENDBRANCH  15  19
ENDBRANCH  10  13
ENDBRANCH   7   8
ENDBRANCH   1   7
BRANCH   3  21
HETATM   21  C   UNL     1      -6.354 -13.810 -35.408  1.00  0.00     0.162 C 
BRANCH  21  22
HETATM   22  C   UNL     1      -7.231 -14.164 -36.580  1.00  0.00    -0.040 A 
HETATM   23  C   UNL     1      -7.828 -13.163 -37.361  1.00  0.00     0.021 A 
HETATM   24  C   UNL     1      -8.673 -13.487 -38.437  1.00  0.00    -0.025 A 
HETATM   25  C   UNL     1      -8.923 -14.844 -38.740  1.00  0.00    -0.026 A 
HETATM   26  C   UNL     1      -9.282 -12.490 -39.217  1.00  0.00     0.012 A 
HETATM   27  C   UNL     1      -8.322 -15.842 -37.958  1.00  0.00     0.013 A 
HETATM   28  C   UNL     1      -9.770 -15.167 -39.812  1.00  0.00     0.012 A 
HETATM   29  C   UNL     1      -7.490 -15.506 -36.889  1.00  0.00     0.010 A 
HETATM   30  C   UNL     1     -10.368 -14.165 -40.576  1.00  0.00     0.001 A 
HETATM   31  C   UNL     1     -10.125 -12.827 -40.278  1.00  0.00     0.001 A 
ENDBRANCH  21  22
ENDBRANCH   3  21
TORSDOF 6
ENDMDL
MODEL 5
REMARK VINA RESULT:      -9.1      2.308      3.599
REMARK  6 active torsions:
REMARK  status: ('A' for Active; 'I' for Inactive)
REMARK    1  A    between atoms: O_2  and  C_3 
REMARK    2  A    between atoms: C_5  and  N_6 
REMARK    3  A    between atoms: C_8  and  C_9 
REMARK    4  A    between atoms: C_9  and  N_10 
REMARK       I    between atoms: N_10  and  C_11 
REMARK       I    between atoms: C_11  and  N_12 
REMARK    5  A    between atoms: N_12  and  C_13 
REMARK    6  A    between atoms: C_13  and  C_14 
ROOT
HETATM    1  N   UNL     1      -7.949   3.051 -31.250  1.00  0.00    -0.343 N 
HETATM    2  C   UNL     1      -7.572   2.817 -32.544  1.00  0.00     0.316 C 
HETATM    3  N   UNL     1      -7.785   1.511 -32.893  1.00  0.00    -0.339 N 
HETATM    4  O   UNL     1      -7.143   3.674 -33.303  1.00  0.00    -0.248 OA
HETATM    5  H   UNL     1      -8.536   2.353 -30.817  1.00  0.00     0.164 HD
HETATM    6  H   UNL     1      -7.711   0.834 -32.149  1.00  0.00     0.164 HD
ENDROOT
BRANCH   1   7
HETATM    7  C   UNL     1      -7.992   4.393 -30.697  1.00  0.00     0.130 C 
BRANCH   7   8
HETATM    8  C   UNL     1      -6.931   4.637 -29.611  1.00  0.00     0.023 C 
HETATM    9  C   UNL     1      -5.548   4.113 -30.011  1.00  0.00     0.129 C 
HETATM   10  N   UNL     1      -4.958   5.212 -30.774  1.00  0.00    -0.380 N 
HETATM   11  C   UNL     1      -5.660   6.469 -30.524  1.00  0.00     0.123 C 
HETATM   12  C   UNL     1      -6.657   6.129 -29.415  1.00  0.00     0.028 C 
BRANCH  10  13
HETATM   13  C   UNL     1      -3.901   5.070 -31.645  1.00  0.00     0.032 A 
HETATM   14  C   UNL     1      -2.569   5.011 -31.191  1.00  0.00     0.066 A 
HETATM   15  C   UNL     1      -1.484   4.889 -32.072  1.00  0.00     0.070 A 
HETATM   16  C   UNL     1      -1.719   4.836 -33.443  1.00  0.00     0.037 A 
HETATM   17  C   UNL     1      -3.020   4.878 -33.926  1.00  0.00     0.005 A 
HETATM   18  C   UNL     1      -4.092   4.986 -33.034  1.00  0.00     0.029 A 
BRANCH  15  19
HETATM   19  O   UNL     1      -0.164   4.828 -31.718  1.00  0.00    -0.356 OA
HETATM   20  C   UNL     1       0.164   5.209 -30.389  1.00  0.00     0.210 C 
ENDBRANCH  15  19
ENDBRANCH  10  13
ENDBRANCH   7   8
ENDBRANCH   1   7
BRANCH   3  21
HETATM   21  C   UNL     1      -7.446   1.051 -34.220  1.00  0.00     0.162 C 
BRANCH  21  22
HETATM   22  C   UNL     1      -6.565  -0.169 -34.160  1.00  0.00    -0.040 A 
HETATM   23  C   UNL     1      -7.010  -1.404 -34.653  1.00  0.00     0.021 A 
HETATM   24  C   UNL     1      -6.204  -2.554 -34.572  1.00  0.00    -0.025 A 
HETATM   25  C   UNL     1      -4.921  -2.462 -33.987  1.00  0.00    -0.026 A 
HETATM   26  C   UNL     1      -6.648  -3.796 -35.055  1.00  0.00     0.012 A 
HETATM   27  C   UNL     1      -4.479  -1.224 -33.497  1.00  0.00     0.013 A 
HETATM   28  C   UNL     1      -4.118  -3.610 -33.901  1.00  0.00     0.012 A 
HETATM   29  C   UNL     1      -5.292  -0.093 -33.579  1.00  0.00     0.010 A 
HETATM   30  C   UNL     1      -4.575  -4.837 -34.384  1.00  0.00     0.001 A 
HETATM   31  C   UNL     1      -5.838  -4.930 -34.960  1.00  0.00     0.001 A 
ENDBRANCH  21  22
ENDBRANCH   3  21
TORSDOF 6
ENDMDL
MODEL 6
REMARK VINA RESULT:      -9.0      2.723     11.136
REMARK  6 active torsions:
REMARK  status: ('A' for Active; 'I' for Inactive)
REMARK    1  A    between atoms: O_2  and  C_3 
REMARK    2  A    between atoms: C_5  and  N_6 
REMARK    3  A    between atoms: C_8  and  C_9 
REMARK    4  A    between atoms: C_9  and  N_10 
REMARK       I    between atoms: N_10  and  C_11 
REMARK       I    between atoms: C_11  and  N_12 
REMARK    5  A    between atoms: N_12  and  C_13 
REMARK    6  A    between atoms: C_13  and  C_14 
ROOT
HETATM    1  N   UNL     1      -2.709   3.933 -31.403  1.00  0.00    -0.343 N 
HETATM    2  C   UNL     1      -1.647   4.744 -31.696  1.00  0.00     0.316 C 
HETATM    3  N   UNL     1      -1.159   5.347 -30.569  1.00  0.00    -0.339 N 
HETATM    4  O   UNL     1      -1.167   4.876 -32.813  1.00  0.00    -0.248 OA
HETATM    5  H   UNL     1      -2.838   3.691 -30.432  1.00  0.00     0.164 HD
HETATM    6  H   UNL     1      -1.829   5.532 -29.838  1.00  0.00     0.164 HD
ENDROOT
BRANCH   1   7
HETATM    7  C   UNL     1      -3.289   3.045 -32.394  1.00  0.00     0.130 C 
BRANCH   7   8
HETATM    8  C   UNL     1      -4.698   2.553 -32.020  1.00  0.00     0.023 C 
HETATM    9  C   UNL     1      -5.129   1.329 -32.834  1.00  0.00     0.129 C 
HETATM   10  N   UNL     1      -4.582   0.195 -32.089  1.00  0.00    -0.380 N 
HETATM   11  C   UNL     1      -4.234   0.577 -30.722  1.00  0.00     0.123 C 
HETATM   12  C   UNL     1      -4.744   2.013 -30.590  1.00  0.00     0.028 C 
BRANCH  10  13
HETATM   13  C   UNL     1      -4.386  -1.059 -32.622  1.00  0.00     0.032 A 
HETATM   14  C   UNL     1      -5.045  -1.478 -33.794  1.00  0.00     0.066 A 
HETATM   15  C   UNL     1      -4.870  -2.761 -34.332  1.00  0.00     0.070 A 
HETATM   16  C   UNL     1      -4.028  -3.663 -33.687  1.00  0.00     0.037 A 
HETATM   17  C   UNL     1      -3.351  -3.280 -32.537  1.00  0.00     0.005 A 
HETATM   18  C   UNL     1      -3.527  -1.992 -32.020  1.00  0.00     0.029 A 
BRANCH  15  19
HETATM   19  O   UNL     1      -5.470  -3.250 -35.460  1.00  0.00    -0.356 OA
HETATM   20  C   UNL     1      -6.238  -4.437 -35.316  1.00  0.00     0.210 C 
ENDBRANCH  15  19
ENDBRANCH  10  13
ENDBRANCH   7   8
ENDBRANCH   1   7
BRANCH   3  21
HETATM   21  C   UNL     1      -0.036   6.253 -30.659  1.00  0.00     0.162 C 
BRANCH  21  22
HETATM   22  C   UNL     1      -0.100   7.302 -29.580  1.00  0.00    -0.040 A 
HETATM   23  C   UNL     1       0.912   7.406 -28.615  1.00  0.00     0.021 A 
HETATM   24  C   UNL     1       0.843   8.363 -27.588  1.00  0.00    -0.025 A 
HETATM   25  C   UNL     1      -0.266   9.238 -27.528  1.00  0.00    -0.026 A 
HETATM   26  C   UNL     1       1.848   8.466 -26.613  1.00  0.00     0.012 A 
HETATM   27  C   UNL     1      -1.275   9.132 -28.496  1.00  0.00     0.013 A 
HETATM   28  C   UNL     1      -0.337  10.190 -26.499  1.00  0.00     0.012 A 
HETATM   29  C   UNL     1      -1.196   8.173 -29.507  1.00  0.00     0.010 A 
HETATM   30  C   UNL     1       0.669  10.279 -25.537  1.00  0.00     0.001 A 
HETATM   31  C   UNL     1       1.761   9.417 -25.594  1.00  0.00     0.001 A 
ENDBRANCH  21  22
ENDBRANCH   3  21
TORSDOF 6
ENDMDL
MODEL 7
REMARK VINA RESULT:      -9.0     17.536     18.897
REMARK  6 active torsions:
REMARK  status: ('A' for Active; 'I' for Inactive)
REMARK    1  A    between atoms: O_2  and  C_3 
REMARK    2  A    between atoms: C_5  and  N_6 
REMARK    3  A    between atoms: C_8  and  C_9 
REMARK    4  A    between atoms: C_9  and  N_10 
REMARK       I    between atoms: N_10  and  C_11 
REMARK       I    between atoms: C_11  and  N_12 
REMARK    5  A    between atoms: N_12  and  C_13 
REMARK    6  A    between atoms: C_13  and  C_14 
ROOT
HETATM    1  N   UNL     1      -1.403 -13.732 -40.733  1.00  0.00    -0.343 N 
HETATM    2  C   UNL     1      -2.476 -14.469 -41.155  1.00  0.00     0.316 C 
HETATM    3  N   UNL     1      -3.385 -13.686 -41.813  1.00  0.00    -0.339 N 
HETATM    4  O   UNL     1      -2.585 -15.677 -41.004  1.00  0.00    -0.248 OA
HETATM    5  H   UNL     1      -1.291 -12.819 -41.147  1.00  0.00     0.164 HD
HETATM    6  H   UNL     1      -3.439 -12.724 -41.519  1.00  0.00     0.164 HD
ENDROOT
BRANCH   1   7
HETATM    7  C   UNL     1      -0.220 -14.358 -40.169  1.00  0.00     0.130 C 
BRANCH   7   8
HETATM    8  C   UNL     1       0.050 -13.945 -38.713  1.00  0.00     0.023 C 
HETATM    9  C   UNL     1      -1.139 -13.217 -38.076  1.00  0.00     0.129 C 
HETATM   10  N   UNL     1      -1.986 -14.296 -37.569  1.00  0.00    -0.380 N 
HETATM   11  C   UNL     1      -1.244 -15.550 -37.466  1.00  0.00     0.123 C 
HETATM   12  C   UNL     1       0.198 -15.163 -37.800  1.00  0.00     0.028 C 
BRANCH  10  13
HETATM   13  C   UNL     1      -3.321 -14.153 -37.264  1.00  0.00     0.032 A 
HETATM   14  C   UNL     1      -3.750 -13.708 -35.999  1.00  0.00     0.066 A 
HETATM   15  C   UNL     1      -5.107 -13.582 -35.672  1.00  0.00     0.070 A 
HETATM   16  C   UNL     1      -6.073 -13.915 -36.618  1.00  0.00     0.037 A 
HETATM   17  C   UNL     1      -5.687 -14.345 -37.881  1.00  0.00     0.005 A 
HETATM   18  C   UNL     1      -4.328 -14.454 -38.196  1.00  0.00     0.029 A 
BRANCH  15  19
HETATM   19  O   UNL     1      -5.610 -13.162 -34.470  1.00  0.00    -0.356 OA
HETATM   20  C   UNL     1      -6.965 -13.489 -34.191  1.00  0.00     0.210 C 
ENDBRANCH  15  19
ENDBRANCH  10  13
ENDBRANCH   7   8
ENDBRANCH   1   7
BRANCH   3  21
HETATM   21  C   UNL     1      -4.599 -14.270 -42.337  1.00  0.00     0.162 C 
BRANCH  21  22
HETATM   22  C   UNL     1      -5.808 -13.749 -41.605  1.00  0.00    -0.040 A 
HETATM   23  C   UNL     1      -6.945 -14.552 -41.429  1.00  0.00     0.021 A 
HETATM   24  C   UNL     1      -8.088 -14.061 -40.774  1.00  0.00    -0.025 A 
HETATM   25  C   UNL     1      -8.091 -12.736 -40.282  1.00  0.00    -0.026 A 
HETATM   26  C   UNL     1      -9.233 -14.856 -40.603  1.00  0.00     0.012 A 
HETATM   27  C   UNL     1      -6.951 -11.937 -40.458  1.00  0.00     0.013 A 
HETATM   28  C   UNL     1      -9.234 -12.244 -39.632  1.00  0.00     0.012 A 
HETATM   29  C   UNL     1      -5.826 -12.436 -41.115  1.00  0.00     0.010 A 
HETATM   30  C   UNL     1     -10.365 -13.047 -39.472  1.00  0.00     0.001 A 
HETATM   31  C   UNL     1     -10.364 -14.351 -39.957  1.00  0.00     0.001 A 
ENDBRANCH  21  22
ENDBRANCH   3  21
TORSDOF 6
ENDMDL
MODEL 8
REMARK VINA RESULT:      -9.0      3.281      6.505
REMARK  6 active torsions:
REMARK  status: ('A' for Active; 'I' for Inactive)
REMARK    1  A    between atoms: O_2  and  C_3 
REMARK    2  A    between atoms: C_5  and  N_6 
REMARK    3  A    between atoms: C_8  and  C_9 
REMARK    4  A    between atoms: C_9  and  N_10 
REMARK       I    between atoms: N_10  and  C_11 
REMARK       I    between atoms: C_11  and  N_12 
REMARK    5  A    between atoms: N_12  and  C_13 
REMARK    6  A    between atoms: C_13  and  C_14 
ROOT
HETATM    1  N   UNL     1      -4.309   3.979 -32.412  1.00  0.00    -0.343 N 
HETATM    2  C   UNL     1      -4.219   2.795 -31.734  1.00  0.00     0.316 C 
HETATM    3  N   UNL     1      -3.539   1.857 -32.463  1.00  0.00    -0.339 N 
HETATM    4  O   UNL     1      -4.649   2.613 -30.604  1.00  0.00    -0.248 OA
HETATM    5  H   UNL     1      -3.690   4.096 -33.201  1.00  0.00     0.164 HD
HETATM    6  H   UNL     1      -3.617   1.932 -33.465  1.00  0.00     0.164 HD
ENDROOT
BRANCH   1   7
HETATM    7  C   UNL     1      -4.823   5.183 -31.785  1.00  0.00     0.130 C 
BRANCH   7   8
HETATM    8  C   UNL     1      -6.048   5.769 -32.506  1.00  0.00     0.023 C 
HETATM    9  C   UNL     1      -6.857   4.704 -33.253  1.00  0.00     0.129 C 
HETATM   10  N   UNL     1      -7.765   4.170 -32.238  1.00  0.00    -0.380 N 
HETATM   11  C   UNL     1      -7.871   5.071 -31.094  1.00  0.00     0.123 C 
HETATM   12  C   UNL     1      -7.080   6.311 -31.516  1.00  0.00     0.028 C 
BRANCH  10  13
HETATM   13  C   UNL     1      -8.405   2.954 -32.335  1.00  0.00     0.032 A 
HETATM   14  C   UNL     1      -9.687   2.835 -32.907  1.00  0.00     0.066 A 
HETATM   15  C   UNL     1     -10.356   1.605 -32.989  1.00  0.00     0.070 A 
HETATM   16  C   UNL     1      -9.748   0.461 -32.481  1.00  0.00     0.037 A 
HETATM   17  C   UNL     1      -8.479   0.538 -31.923  1.00  0.00     0.005 A 
HETATM   18  C   UNL     1      -7.819   1.770 -31.860  1.00  0.00     0.029 A 
BRANCH  15  19
HETATM   19  O   UNL     1     -11.599   1.400 -33.523  1.00  0.00    -0.356 OA
HETATM   20  C   UNL     1     -11.770   1.727 -34.896  1.00  0.00     0.210 C 
ENDBRANCH  15  19
ENDBRANCH  10  13
ENDBRANCH   7   8
ENDBRANCH   1   7
BRANCH   3  21
HETATM   21  C   UNL     1      -3.337   0.530 -31.928  1.00  0.00     0.162 C 
BRANCH  21  22
HETATM   22  C   UNL     1      -4.111  -0.494 -32.717  1.00  0.00    -0.040 A 
HETATM   23  C   UNL     1      -3.691  -1.831 -32.769  1.00  0.00     0.021 A 
HETATM   24  C   UNL     1      -4.391  -2.785 -33.529  1.00  0.00    -0.025 A 
HETATM   25  C   UNL     1      -5.540  -2.390 -34.250  1.00  0.00    -0.026 A 
HETATM   26  C   UNL     1      -3.970  -4.124 -33.592  1.00  0.00     0.012 A 
HETATM   27  C   UNL     1      -5.958  -1.052 -34.194  1.00  0.00     0.013 A 
HETATM   28  C   UNL     1      -6.236  -3.341 -35.013  1.00  0.00     0.012 A 
HETATM   29  C   UNL     1      -5.249  -0.115 -33.440  1.00  0.00     0.010 A 
HETATM   30  C   UNL     1      -5.804  -4.667 -35.067  1.00  0.00     0.001 A 
HETATM   31  C   UNL     1      -4.672  -5.057 -34.358  1.00  0.00     0.001 A 
ENDBRANCH  21  22
ENDBRANCH   3  21
TORSDOF 6
ENDMDL
MODEL 9
REMARK VINA RESULT:      -8.9      1.932      9.371
REMARK  6 active torsions:
REMARK  status: ('A' for Active; 'I' for Inactive)
REMARK    1  A    between atoms: O_2  and  C_3 
REMARK    2  A    between atoms: C_5  and  N_6 
REMARK    3  A    between atoms: C_8  and  C_9 
REMARK    4  A    between atoms: C_9  and  N_10 
REMARK       I    between atoms: N_10  and  C_11 
REMARK       I    between atoms: C_11  and  N_12 
REMARK    5  A    between atoms: N_12  and  C_13 
REMARK    6  A    between atoms: C_13  and  C_14 
ROOT
HETATM    1  N   UNL     1      -5.825   4.572 -33.868  1.00  0.00    -0.343 N 
HETATM    2  C   UNL     1      -4.474   4.376 -33.762  1.00  0.00     0.316 C 
HETATM    3  N   UNL     1      -3.781   5.295 -34.502  1.00  0.00    -0.339 N 
HETATM    4  O   UNL     1      -3.955   3.521 -33.059  1.00  0.00    -0.248 OA
HETATM    5  H   UNL     1      -6.124   5.460 -34.244  1.00  0.00     0.164 HD
HETATM    6  H   UNL     1      -4.241   5.634 -35.333  1.00  0.00     0.164 HD
ENDROOT
BRANCH   1   7
HETATM    7  C   UNL     1      -6.770   3.846 -33.040  1.00  0.00     0.130 C 
BRANCH   7   8
HETATM    8  C   UNL     1      -7.710   2.934 -33.846  1.00  0.00     0.023 C 
HETATM    9  C   UNL     1      -6.964   1.797 -34.552  1.00  0.00     0.129 C 
HETATM   10  N   UNL     1      -6.880   0.744 -33.540  1.00  0.00    -0.380 N 
HETATM   11  C   UNL     1      -7.842   0.966 -32.463  1.00  0.00     0.123 C 
HETATM   12  C   UNL     1      -8.667   2.164 -32.935  1.00  0.00     0.028 C 
BRANCH  10  13
HETATM   13  C   UNL     1      -5.983  -0.300 -33.581  1.00  0.00     0.032 A 
HETATM   14  C   UNL     1      -6.205  -1.438 -34.381  1.00  0.00     0.066 A 
HETATM   15  C   UNL     1      -5.309  -2.515 -34.411  1.00  0.00     0.070 A 
HETATM   16  C   UNL     1      -4.164  -2.475 -33.621  1.00  0.00     0.037 A 
HETATM   17  C   UNL     1      -3.905  -1.363 -32.830  1.00  0.00     0.005 A 
HETATM   18  C   UNL     1      -4.803  -0.291 -32.820  1.00  0.00     0.029 A 
BRANCH  15  19
HETATM   19  O   UNL     1      -5.447  -3.656 -35.154  1.00  0.00    -0.356 OA
HETATM   20  C   UNL     1      -6.720  -4.289 -35.128  1.00  0.00     0.210 C 
ENDBRANCH  15  19
ENDBRANCH  10  13
ENDBRANCH   7   8
ENDBRANCH   1   7
BRANCH   3  21
HETATM   21  C   UNL     1      -2.337   5.260 -34.533  1.00  0.00     0.162 C 
BRANCH  21  22
HETATM   22  C   UNL     1      -1.754   5.917 -33.310  1.00  0.00    -0.040 A 
HETATM   23  C   UNL     1      -1.068   5.164 -32.346  1.00  0.00     0.021 A 
HETATM   24  C   UNL     1      -0.549   5.767 -31.186  1.00  0.00    -0.025 A 
HETATM   25  C   UNL     1      -0.718   7.156 -30.990  1.00  0.00    -0.026 A 
HETATM   26  C   UNL     1       0.131   5.017 -30.212  1.00  0.00     0.012 A 
HETATM   27  C   UNL     1      -1.403   7.906 -31.958  1.00  0.00     0.013 A 
HETATM   28  C   UNL     1      -0.204   7.756 -29.830  1.00  0.00     0.012 A 
HETATM   29  C   UNL     1      -1.919   7.293 -33.101  1.00  0.00     0.010 A 
HETATM   30  C   UNL     1       0.467   6.997 -28.871  1.00  0.00     0.001 A 
HETATM   31  C   UNL     1       0.635   5.629 -29.062  1.00  0.00     0.001 A 
ENDBRANCH  21  22
ENDBRANCH   3  21
TORSDOF 6
ENDMDL
MODEL 10
REMARK VINA RESULT:      -8.9      4.626      8.117
REMARK  6 active torsions:
REMARK  status: ('A' for Active; 'I' for Inactive)
REMARK    1  A    between atoms: O_2  and  C_3 
REMARK    2  A    between atoms: C_5  and  N_6 
REMARK    3  A    between atoms: C_8  and  C_9 
REMARK    4  A    between atoms: C_9  and  N_10 
REMARK       I    between atoms: N_10  and  C_11 
REMARK       I    between atoms: C_11  and  N_12 
REMARK    5  A    between atoms: N_12  and  C_13 
REMARK    6  A    between atoms: C_13  and  C_14 
ROOT
HETATM    1  N   UNL     1      -7.541   4.204 -33.636  1.00  0.00    -0.343 N 
HETATM    2  C   UNL     1      -6.662   3.431 -32.926  1.00  0.00     0.316 C 
HETATM    3  N   UNL     1      -6.252   2.350 -33.656  1.00  0.00    -0.339 N 
HETATM    4  O   UNL     1      -6.260   3.700 -31.802  1.00  0.00    -0.248 OA
HETATM    5  H   UNL     1      -7.583   4.041 -34.631  1.00  0.00     0.164 HD
HETATM    6  H   UNL     1      -6.915   1.987 -34.323  1.00  0.00     0.164 HD
ENDROOT
BRANCH   1   7
HETATM    7  C   UNL     1      -7.982   5.500 -33.153  1.00  0.00     0.130 C 
BRANCH   7   8
HETATM    8  C   UNL     1      -9.317   5.955 -33.767  1.00  0.00     0.023 C 
HETATM    9  C   UNL     1     -10.039   4.825 -34.510  1.00  0.00     0.129 C 
HETATM   10  N   UNL     1     -10.801   4.142 -33.465  1.00  0.00    -0.380 N 
HETATM   11  C   UNL     1     -10.938   4.979 -32.275  1.00  0.00     0.123 C 
HETATM   12  C   UNL     1     -10.337   6.323 -32.689  1.00  0.00     0.028 C 
BRANCH  10  13
HETATM   13  C   UNL     1     -11.292   2.860 -33.577  1.00  0.00     0.032 A 
HETATM   14  C   UNL     1     -12.589   2.603 -34.063  1.00  0.00     0.066 A 
HETATM   15  C   UNL     1     -13.106   1.304 -34.159  1.00  0.00     0.070 A 
HETATM   16  C   UNL     1     -12.325   0.225 -33.754  1.00  0.00     0.037 A 
HETATM   17  C   UNL     1     -11.036   0.440 -33.283  1.00  0.00     0.005 A 
HETATM   18  C   UNL     1     -10.530   1.741 -33.205  1.00  0.00     0.029 A 
BRANCH  15  19
HETATM   19  O   UNL     1     -14.352   0.965 -34.614  1.00  0.00    -0.356 OA
HETATM   20  C   UNL     1     -15.442   1.193 -33.731  1.00  0.00     0.210 C 
ENDBRANCH  15  19
ENDBRANCH  10  13
ENDBRANCH   7   8
ENDBRANCH   1   7
BRANCH   3  21
HETATM   21  C   UNL     1      -5.324   1.400 -33.086  1.00  0.00     0.162 C 
BRANCH  21  22
HETATM   22  C   UNL     1      -5.617   0.003 -33.567  1.00  0.00    -0.040 A 
HETATM   23  C   UNL     1      -4.701  -1.038 -33.356  1.00  0.00     0.021 A 
HETATM   24  C   UNL     1      -4.955  -2.337 -33.830  1.00  0.00    -0.025 A 
HETATM   25  C   UNL     1      -6.155  -2.600 -34.529  1.00  0.00    -0.026 A 
HETATM   26  C   UNL     1      -4.038  -3.383 -33.630  1.00  0.00     0.012 A 
HETATM   27  C   UNL     1      -7.069  -1.556 -34.736  1.00  0.00     0.013 A 
HETATM   28  C   UNL     1      -6.406  -3.896 -35.006  1.00  0.00     0.012 A 
HETATM   29  C   UNL     1      -6.801  -0.270 -34.265  1.00  0.00     0.010 A 
HETATM   30  C   UNL     1      -5.484  -4.923 -34.801  1.00  0.00     0.001 A 
HETATM   31  C   UNL     1      -4.301  -4.666 -34.114  1.00  0.00     0.001 A 
ENDBRANCH  21  22
ENDBRANCH   3  21
TORSDOF 6
ENDMDL
