MODEL 1
REMARK VINA RESULT:      -9.3      0.000      0.000
REMARK  10 active torsions:
REMARK  status: ('A' for Active; 'I' for Inactive)
REMARK    1  A    between atoms: N_2  and  C_4 
REMARK    2  A    between atoms: C_4  and  C_5 
REMARK    3  A    between atoms: C_5  and  C_6 
REMARK    4  A    between atoms: C_6  and  N_7 
REMARK       I    between atoms: N_7  and  C_8 
REMARK    5  A    between atoms: C_8  and  C_9 
REMARK    6  A    between atoms: C_9  and  N_10 
REMARK       I    between atoms: N_10  and  C_11 
REMARK    7  A    between atoms: C_11  and  C_12 
REMARK    8  A    between atoms: C_19  and  C_20 
REMARK    9  A    between atoms: C_21  and  C_22 
REMARK   10  A    between atoms: N_30  and  C_31 
ROOT
HETATM    1  C   UNL     1      -9.469   0.766 -32.994  1.00  0.00     0.104 C 
HETATM    2  C   UNL     1      -9.574   2.108 -33.026  1.00  0.00     0.050 C 
ENDROOT
BRANCH   1   3
HETATM    3  C   UNL     1     -10.756   0.006 -33.042  1.00  0.00     0.268 C 
HETATM    4  N   UNL     1     -11.811   0.709 -33.582  1.00  0.00    -0.356 N 
HETATM    5  H   UNL     1     -11.681   1.711 -33.703  1.00  0.00     0.162 HD
HETATM    6  O   UNL     1     -10.839  -1.143 -32.628  1.00  0.00    -0.266 OA
BRANCH   4   7
HETATM    7  C   UNL     1     -13.161   0.184 -33.561  1.00  0.00     0.124 C 
BRANCH   7   8
HETATM    8  C   UNL     1     -14.195   1.249 -33.925  1.00  0.00     0.047 C 
BRANCH   8   9
HETATM    9  C   UNL     1     -13.778   2.641 -33.451  1.00  0.00     0.235 C 
BRANCH   9  10
HETATM   10  N   UNL     1     -14.911   3.297 -32.673  1.00  0.00    -0.079 N 
HETATM   11  C   UNL     1     -14.438   4.113 -31.498  1.00  0.00     0.269 C 
HETATM   12  H   UNL     1     -15.398   3.941 -33.312  1.00  0.00     0.278 HD
HETATM   13  C   UNL     1     -15.942   2.286 -32.238  1.00  0.00     0.269 C 
ENDBRANCH   9  10
ENDBRANCH   8   9
ENDBRANCH   7   8
ENDBRANCH   4   7
ENDBRANCH   1   3
BRANCH   1  14
HETATM   14  N   UNL     1      -8.296   0.043 -33.082  1.00  0.00    -0.318 N 
HETATM   15  C   UNL     1      -7.765  -0.361 -34.299  1.00  0.00     0.256 C 
HETATM   16  O   UNL     1      -8.207  -0.022 -35.392  1.00  0.00    -0.267 OA
HETATM   17  H   UNL     1      -7.620   0.186 -32.336  1.00  0.00     0.169 HD
BRANCH  15  18
HETATM   18  C   UNL     1      -6.506  -1.146 -34.227  1.00  0.00     0.032 A 
HETATM   19  C   UNL     1      -5.356  -0.620 -33.629  1.00  0.00     0.017 A 
HETATM   20  C   UNL     1      -4.196  -1.396 -33.558  1.00  0.00     0.001 A 
HETATM   21  C   UNL     1      -4.184  -2.690 -34.082  1.00  0.00     0.000 A 
HETATM   22  C   UNL     1      -5.334  -3.218 -34.669  1.00  0.00     0.001 A 
HETATM   23  C   UNL     1      -6.498  -2.451 -34.735  1.00  0.00     0.017 A 
ENDBRANCH  15  18
ENDBRANCH   1  14
BRANCH   2  24
HETATM   24  C   UNL     1      -8.535   3.021 -33.368  1.00  0.00     0.015 A 
HETATM   25  C   UNL     1      -8.632   4.297 -33.995  1.00  0.00     0.099 A 
HETATM   26  N   UNL     1      -7.412   4.837 -34.123  1.00  0.00    -0.166 NA
HETATM   27  N   UNL     1      -6.539   3.920 -33.633  1.00  0.00    -0.244 N 
HETATM   28  C   UNL     1      -7.199   2.828 -33.118  1.00  0.00     0.132 A 
BRANCH  25  29
HETATM   29  C   UNL     1      -9.814   5.029 -34.470  1.00  0.00    -0.005 A 
HETATM   30  C   UNL     1     -10.849   4.390 -35.170  1.00  0.00     0.015 A 
HETATM   31  C   UNL     1     -11.961   5.109 -35.619  1.00  0.00     0.020 A 
HETATM   32  C   UNL     1     -12.055   6.473 -35.357  1.00  0.00     0.011 A 
HETATM   33 BR   UNL     1     -13.564   7.439 -35.958  1.00  0.00    -0.051 Br
HETATM   34  C   UNL     1     -11.049   7.125 -34.650  1.00  0.00     0.020 A 
HETATM   35  C   UNL     1      -9.935   6.403 -34.209  1.00  0.00     0.015 A 
ENDBRANCH  25  29
BRANCH  27  36
HETATM   36  C   UNL     1      -5.138   4.162 -33.671  1.00  0.00     0.058 A 
HETATM   37  C   UNL     1      -4.301   3.514 -32.747  1.00  0.00     0.031 A 
HETATM   38  C   UNL     1      -2.923   3.731 -32.770  1.00  0.00     0.002 A 
HETATM   39  C   UNL     1      -2.369   4.600 -33.707  1.00  0.00     0.000 A 
HETATM   40  C   UNL     1      -3.193   5.254 -34.622  1.00  0.00     0.002 A 
HETATM   41  C   UNL     1      -4.575   5.039 -34.609  1.00  0.00     0.031 A 
ENDBRANCH  27  36
ENDBRANCH   2  24
TORSDOF 10
ENDMDL
MODEL 2
REMARK VINA RESULT:      -9.2      3.700      7.815
REMARK  10 active torsions:
REMARK  status: ('A' for Active; 'I' for Inactive)
REMARK    1  A    between atoms: N_2  and  C_4 
REMARK    2  A    between atoms: C_4  and  C_5 
REMARK    3  A    between atoms: C_5  and  C_6 
REMARK    4  A    between atoms: C_6  and  N_7 
REMARK       I    between atoms: N_7  and  C_8 
REMARK    5  A    between atoms: C_8  and  C_9 
REMARK    6  A    between atoms: C_9  and  N_10 
REMARK       I    between atoms: N_10  and  C_11 
REMARK    7  A    between atoms: C_11  and  C_12 
REMARK    8  A    between atoms: C_19  and  C_20 
REMARK    9  A    between atoms: C_21  and  C_22 
REMARK   10  A    between atoms: N_30  and  C_31 
ROOT
HETATM    1  C   UNL     1      -7.991   2.974 -30.741  1.00  0.00     0.104 C 
HETATM    2  C   UNL     1      -6.737   2.485 -30.716  1.00  0.00     0.050 C 
ENDROOT
BRANCH   1   3
HETATM    3  C   UNL     1      -8.249   4.164 -29.874  1.00  0.00     0.268 C 
HETATM    4  N   UNL     1      -7.201   4.501 -29.045  1.00  0.00    -0.356 N 
HETATM    5  H   UNL     1      -6.455   3.816 -28.946  1.00  0.00     0.162 HD
HETATM    6  O   UNL     1      -9.312   4.771 -29.916  1.00  0.00    -0.266 OA
BRANCH   4   7
HETATM    7  C   UNL     1      -7.337   5.527 -28.031  1.00  0.00     0.124 C 
BRANCH   7   8
HETATM    8  C   UNL     1      -6.270   6.612 -28.169  1.00  0.00     0.047 C 
BRANCH   8   9
HETATM    9  C   UNL     1      -4.975   6.239 -27.450  1.00  0.00     0.235 C 
BRANCH   9  10
HETATM   10  N   UNL     1      -3.775   6.489 -28.355  1.00  0.00    -0.079 N 
HETATM   11  C   UNL     1      -3.016   7.744 -28.012  1.00  0.00     0.269 C 
HETATM   12  H   UNL     1      -3.125   5.700 -28.238  1.00  0.00     0.278 HD
HETATM   13  C   UNL     1      -4.170   6.487 -29.811  1.00  0.00     0.269 C 
ENDBRANCH   9  10
ENDBRANCH   8   9
ENDBRANCH   7   8
ENDBRANCH   4   7
ENDBRANCH   1   3
BRANCH   1  14
HETATM   14  N   UNL     1      -8.996   2.580 -31.602  1.00  0.00    -0.318 N 
HETATM   15  C   UNL     1      -9.154   3.139 -32.862  1.00  0.00     0.256 C 
HETATM   16  O   UNL     1      -8.365   3.929 -33.370  1.00  0.00    -0.267 OA
HETATM   17  H   UNL     1      -9.326   1.622 -31.504  1.00  0.00     0.169 HD
BRANCH  15  18
HETATM   18  C   UNL     1     -10.293   2.621 -33.662  1.00  0.00     0.032 A 
HETATM   19  C   UNL     1     -10.856   1.368 -33.397  1.00  0.00     0.017 A 
HETATM   20  C   UNL     1     -11.942   0.923 -34.155  1.00  0.00     0.001 A 
HETATM   21  C   UNL     1     -12.462   1.723 -35.173  1.00  0.00     0.000 A 
HETATM   22  C   UNL     1     -11.907   2.977 -35.431  1.00  0.00     0.001 A 
HETATM   23  C   UNL     1     -10.828   3.430 -34.672  1.00  0.00     0.017 A 
ENDBRANCH  15  18
ENDBRANCH   1  14
BRANCH   2  24
HETATM   24  C   UNL     1      -6.149   1.634 -31.696  1.00  0.00     0.015 A 
HETATM   25  C   UNL     1      -5.097   1.916 -32.614  1.00  0.00     0.099 A 
HETATM   26  N   UNL     1      -4.836   0.831 -33.357  1.00  0.00    -0.166 NA
HETATM   27  N   UNL     1      -5.723  -0.119 -32.964  1.00  0.00    -0.244 N 
HETATM   28  C   UNL     1      -6.500   0.326 -31.919  1.00  0.00     0.132 A 
BRANCH  25  29
HETATM   29  C   UNL     1      -4.326   3.150 -32.819  1.00  0.00    -0.005 A 
HETATM   30  C   UNL     1      -3.024   3.301 -32.319  1.00  0.00     0.015 A 
HETATM   31  C   UNL     1      -2.312   4.488 -32.520  1.00  0.00     0.020 A 
HETATM   32  C   UNL     1      -2.892   5.530 -33.238  1.00  0.00     0.011 A 
HETATM   33 BR   UNL     1      -1.923   7.128 -33.514  1.00  0.00    -0.051 Br
HETATM   34  C   UNL     1      -4.176   5.397 -33.757  1.00  0.00     0.020 A 
HETATM   35  C   UNL     1      -4.887   4.210 -33.548  1.00  0.00     0.015 A 
ENDBRANCH  25  29
BRANCH  27  36
HETATM   36  C   UNL     1      -5.752  -1.390 -33.602  1.00  0.00     0.058 A 
HETATM   37  C   UNL     1      -4.551  -2.095 -33.786  1.00  0.00     0.031 A 
HETATM   38  C   UNL     1      -4.555  -3.346 -34.404  1.00  0.00     0.002 A 
HETATM   39  C   UNL     1      -5.753  -3.902 -34.847  1.00  0.00     0.000 A 
HETATM   40  C   UNL     1      -6.949  -3.205 -34.675  1.00  0.00     0.002 A 
HETATM   41  C   UNL     1      -6.954  -1.952 -34.054  1.00  0.00     0.031 A 
ENDBRANCH  27  36
ENDBRANCH   2  24
TORSDOF 10
ENDMDL
MODEL 3
REMARK VINA RESULT:      -9.1      2.861      6.414
REMARK  10 active torsions:
REMARK  status: ('A' for Active; 'I' for Inactive)
REMARK    1  A    between atoms: N_2  and  C_4 
REMARK    2  A    between atoms: C_4  and  C_5 
REMARK    3  A    between atoms: C_5  and  C_6 
REMARK    4  A    between atoms: C_6  and  N_7 
REMARK       I    between atoms: N_7  and  C_8 
REMARK    5  A    between atoms: C_8  and  C_9 
REMARK    6  A    between atoms: C_9  and  N_10 
REMARK       I    between atoms: N_10  and  C_11 
REMARK    7  A    between atoms: C_11  and  C_12 
REMARK    8  A    between atoms: C_19  and  C_20 
REMARK    9  A    between atoms: C_21  and  C_22 
REMARK   10  A    between atoms: N_30  and  C_31 
ROOT
HETATM    1  C   UNL     1      -8.317   3.478 -34.235  1.00  0.00     0.104 C 
HETATM    2  C   UNL     1      -8.652   2.184 -34.072  1.00  0.00     0.050 C 
ENDROOT
BRANCH   1   3
HETATM    3  C   UNL     1      -9.448   4.456 -34.205  1.00  0.00     0.268 C 
HETATM    4  N   UNL     1     -10.213   4.407 -33.060  1.00  0.00    -0.356 N 
HETATM    5  H   UNL     1     -10.076   3.603 -32.451  1.00  0.00     0.162 HD
HETATM    6  O   UNL     1      -9.657   5.224 -35.136  1.00  0.00    -0.266 OA
BRANCH   4   7
HETATM    7  C   UNL     1     -11.436   5.172 -32.932  1.00  0.00     0.124 C 
BRANCH   7   8
HETATM    8  C   UNL     1     -12.577   4.334 -32.357  1.00  0.00     0.047 C 
BRANCH   8   9
HETATM    9  C   UNL     1     -13.247   3.467 -33.421  1.00  0.00     0.235 C 
BRANCH   9  10
HETATM   10  N   UNL     1     -13.247   2.005 -32.992  1.00  0.00    -0.079 N 
HETATM   11  C   UNL     1     -12.234   1.166 -33.725  1.00  0.00     0.269 C 
HETATM   12  H   UNL     1     -13.002   1.973 -31.993  1.00  0.00     0.278 HD
HETATM   13  C   UNL     1     -14.622   1.396 -33.101  1.00  0.00     0.269 C 
ENDBRANCH   9  10
ENDBRANCH   8   9
ENDBRANCH   7   8
ENDBRANCH   4   7
ENDBRANCH   1   3
BRANCH   1  14
HETATM   14  N   UNL     1      -7.034   3.985 -34.264  1.00  0.00    -0.318 N 
HETATM   15  C   UNL     1      -6.630   5.027 -33.443  1.00  0.00     0.256 C 
HETATM   16  O   UNL     1      -7.319   5.507 -32.547  1.00  0.00    -0.267 OA
HETATM   17  H   UNL     1      -6.299   3.339 -34.545  1.00  0.00     0.169 HD
BRANCH  15  18
HETATM   18  C   UNL     1      -5.222   5.472 -33.604  1.00  0.00     0.032 A 
HETATM   19  C   UNL     1      -4.604   6.287 -32.649  1.00  0.00     0.017 A 
HETATM   20  C   UNL     1      -3.271   6.666 -32.822  1.00  0.00     0.001 A 
HETATM   21  C   UNL     1      -2.558   6.235 -33.942  1.00  0.00     0.000 A 
HETATM   22  C   UNL     1      -3.171   5.415 -34.889  1.00  0.00     0.001 A 
HETATM   23  C   UNL     1      -4.500   5.026 -34.717  1.00  0.00     0.017 A 
ENDBRANCH  15  18
ENDBRANCH   1  14
BRANCH   2  24
HETATM   24  C   UNL     1      -7.770   1.133 -33.689  1.00  0.00     0.015 A 
HETATM   25  C   UNL     1      -6.878   1.069 -32.581  1.00  0.00     0.099 A 
HETATM   26  N   UNL     1      -6.236  -0.109 -32.577  1.00  0.00    -0.166 NA
HETATM   27  N   UNL     1      -6.666  -0.777 -33.678  1.00  0.00    -0.244 N 
HETATM   28  C   UNL     1      -7.638  -0.067 -34.345  1.00  0.00     0.132 A 
BRANCH  25  29
HETATM   29  C   UNL     1      -6.608   2.056 -31.527  1.00  0.00    -0.005 A 
HETATM   30  C   UNL     1      -7.620   2.533 -30.681  1.00  0.00     0.015 A 
HETATM   31  C   UNL     1      -7.341   3.479 -29.689  1.00  0.00     0.020 A 
HETATM   32  C   UNL     1      -6.039   3.945 -29.526  1.00  0.00     0.011 A 
HETATM   33 BR   UNL     1      -5.665   5.216 -28.178  1.00  0.00    -0.051 Br
HETATM   34  C   UNL     1      -5.015   3.474 -30.341  1.00  0.00     0.020 A 
HETATM   35  C   UNL     1      -5.301   2.534 -31.337  1.00  0.00     0.015 A 
ENDBRANCH  25  29
BRANCH  27  36
HETATM   36  C   UNL     1      -6.133  -2.055 -34.003  1.00  0.00     0.058 A 
HETATM   37  C   UNL     1      -6.984  -3.045 -34.521  1.00  0.00     0.031 A 
HETATM   38  C   UNL     1      -6.482  -4.304 -34.852  1.00  0.00     0.002 A 
HETATM   39  C   UNL     1      -5.132  -4.588 -34.664  1.00  0.00     0.000 A 
HETATM   40  C   UNL     1      -4.281  -3.614 -34.143  1.00  0.00     0.002 A 
HETATM   41  C   UNL     1      -4.776  -2.348 -33.811  1.00  0.00     0.031 A 
ENDBRANCH  27  36
ENDBRANCH   2  24
TORSDOF 10
ENDMDL
MODEL 4
REMARK VINA RESULT:      -9.1      3.408      7.809
REMARK  10 active torsions:
REMARK  status: ('A' for Active; 'I' for Inactive)
REMARK    1  A    between atoms: N_2  and  C_4 
REMARK    2  A    between atoms: C_4  and  C_5 
REMARK    3  A    between atoms: C_5  and  C_6 
REMARK    4  A    between atoms: C_6  and  N_7 
REMARK       I    between atoms: N_7  and  C_8 
REMARK    5  A    between atoms: C_8  and  C_9 
REMARK    6  A    between atoms: C_9  and  N_10 
REMARK       I    between atoms: N_10  and  C_11 
REMARK    7  A    between atoms: C_11  and  C_12 
REMARK    8  A    between atoms: C_19  and  C_20 
REMARK    9  A    between atoms: C_21  and  C_22 
REMARK   10  A    between atoms: N_30  and  C_31 
ROOT
HETATM    1  C   UNL     1      -5.010   0.792 -31.917  1.00  0.00     0.104 C 
HETATM    2  C   UNL     1      -6.297   0.623 -31.558  1.00  0.00     0.050 C 
ENDROOT
BRANCH   1   3
HETATM    3  C   UNL     1      -4.093  -0.354 -31.632  1.00  0.00     0.268 C 
HETATM    4  N   UNL     1      -4.198  -1.401 -32.521  1.00  0.00    -0.356 N 
HETATM    5  H   UNL     1      -5.001  -1.395 -33.145  1.00  0.00     0.162 HD
HETATM    6  O   UNL     1      -3.325  -0.339 -30.679  1.00  0.00    -0.266 OA
BRANCH   4   7
HETATM    7  C   UNL     1      -3.499  -2.652 -32.304  1.00  0.00     0.124 C 
BRANCH   7   8
HETATM    8  C   UNL     1      -3.714  -3.633 -33.455  1.00  0.00     0.047 C 
BRANCH   8   9
HETATM    9  C   UNL     1      -4.533  -3.020 -34.589  1.00  0.00     0.235 C 
BRANCH   9  10
HETATM   10  N   UNL     1      -6.000  -3.410 -34.456  1.00  0.00    -0.079 N 
HETATM   11  C   UNL     1      -6.417  -4.505 -35.402  1.00  0.00     0.269 C 
HETATM   12  H   UNL     1      -6.143  -3.765 -33.500  1.00  0.00     0.278 HD
HETATM   13  C   UNL     1      -6.906  -2.213 -34.595  1.00  0.00     0.269 C 
ENDBRANCH   9  10
ENDBRANCH   8   9
ENDBRANCH   7   8
ENDBRANCH   4   7
ENDBRANCH   1   3
BRANCH   1  14
HETATM   14  N   UNL     1      -4.508   1.844 -32.657  1.00  0.00    -0.318 N 
HETATM   15  C   UNL     1      -3.702   2.825 -32.099  1.00  0.00     0.256 C 
HETATM   16  O   UNL     1      -3.266   2.789 -30.951  1.00  0.00    -0.267 OA
HETATM   17  H   UNL     1      -4.361   1.669 -33.649  1.00  0.00     0.169 HD
BRANCH  15  18
HETATM   18  C   UNL     1      -3.255   3.900 -33.020  1.00  0.00     0.032 A 
HETATM   19  C   UNL     1      -4.056   4.320 -34.088  1.00  0.00     0.017 A 
HETATM   20  C   UNL     1      -3.614   5.351 -34.921  1.00  0.00     0.001 A 
HETATM   21  C   UNL     1      -2.379   5.958 -34.691  1.00  0.00     0.000 A 
HETATM   22  C   UNL     1      -1.585   5.546 -33.621  1.00  0.00     0.001 A 
HETATM   23  C   UNL     1      -2.025   4.524 -32.780  1.00  0.00     0.017 A 
ENDBRANCH  15  18
ENDBRANCH   1  14
BRANCH   2  24
HETATM   24  C   UNL     1      -7.408   1.370 -32.044  1.00  0.00     0.015 A 
HETATM   25  C   UNL     1      -7.694   2.757 -31.888  1.00  0.00     0.099 A 
HETATM   26  N   UNL     1      -8.839   3.061 -32.515  1.00  0.00    -0.166 NA
HETATM   27  N   UNL     1      -9.309   1.896 -33.031  1.00  0.00    -0.244 N 
HETATM   28  C   UNL     1      -8.431   0.860 -32.804  1.00  0.00     0.132 A 
BRANCH  25  29
HETATM   29  C   UNL     1      -6.942   3.803 -31.184  1.00  0.00    -0.005 A 
HETATM   30  C   UNL     1      -6.621   5.024 -31.796  1.00  0.00     0.015 A 
HETATM   31  C   UNL     1      -5.897   6.004 -31.109  1.00  0.00     0.020 A 
HETATM   32  C   UNL     1      -5.500   5.775 -29.794  1.00  0.00     0.011 A 
HETATM   33 BR   UNL     1      -4.530   7.105 -28.866  1.00  0.00    -0.051 Br
HETATM   34  C   UNL     1      -5.821   4.579 -29.160  1.00  0.00     0.020 A 
HETATM   35  C   UNL     1      -6.539   3.600 -29.854  1.00  0.00     0.015 A 
ENDBRANCH  25  29
BRANCH  27  36
HETATM   36  C   UNL     1     -10.552   1.859 -33.721  1.00  0.00     0.058 A 
HETATM   37  C   UNL     1     -11.444   0.801 -33.477  1.00  0.00     0.031 A 
HETATM   38  C   UNL     1     -12.672   0.748 -34.138  1.00  0.00     0.002 A 
HETATM   39  C   UNL     1     -13.017   1.742 -35.051  1.00  0.00     0.000 A 
HETATM   40  C   UNL     1     -12.134   2.791 -35.304  1.00  0.00     0.002 A 
HETATM   41  C   UNL     1     -10.903   2.854 -34.643  1.00  0.00     0.031 A 
ENDBRANCH  27  36
ENDBRANCH   2  24
TORSDOF 10
ENDMDL
MODEL 5
REMARK VINA RESULT:      -9.0      4.002      9.478
REMARK  10 active torsions:
REMARK  status: ('A' for Active; 'I' for Inactive)
REMARK    1  A    between atoms: N_2  and  C_4 
REMARK    2  A    between atoms: C_4  and  C_5 
REMARK    3  A    between atoms: C_5  and  C_6 
REMARK    4  A    between atoms: C_6  and  N_7 
REMARK       I    between atoms: N_7  and  C_8 
REMARK    5  A    between atoms: C_8  and  C_9 
REMARK    6  A    between atoms: C_9  and  N_10 
REMARK       I    between atoms: N_10  and  C_11 
REMARK    7  A    between atoms: C_11  and  C_12 
REMARK    8  A    between atoms: C_19  and  C_20 
REMARK    9  A    between atoms: C_21  and  C_22 
REMARK   10  A    between atoms: N_30  and  C_31 
ROOT
HETATM    1  C   UNL     1      -5.552   3.845 -33.574  1.00  0.00     0.104 C 
HETATM    2  C   UNL     1      -5.916   2.723 -34.224  1.00  0.00     0.050 C 
ENDROOT
BRANCH   1   3
HETATM    3  C   UNL     1      -4.368   4.570 -34.129  1.00  0.00     0.268 C 
HETATM    4  N   UNL     1      -3.192   4.346 -33.445  1.00  0.00    -0.356 N 
HETATM    5  H   UNL     1      -3.268   3.894 -32.537  1.00  0.00     0.162 HD
HETATM    6  O   UNL     1      -4.462   5.298 -35.109  1.00  0.00    -0.266 OA
BRANCH   4   7
HETATM    7  C   UNL     1      -1.986   5.088 -33.750  1.00  0.00     0.124 C 
BRANCH   7   8
HETATM    8  C   UNL     1      -1.095   5.260 -32.521  1.00  0.00     0.047 C 
BRANCH   8   9
HETATM    9  C   UNL     1      -1.903   5.299 -31.225  1.00  0.00     0.235 C 
BRANCH   9  10
HETATM   10  N   UNL     1      -0.976   5.464 -30.027  1.00  0.00    -0.079 N 
HETATM   11  C   UNL     1      -1.099   6.807 -29.355  1.00  0.00     0.269 C 
HETATM   12  H   UNL     1      -1.236   4.753 -29.330  1.00  0.00     0.278 HD
HETATM   13  C   UNL     1       0.459   5.182 -30.394  1.00  0.00     0.269 C 
ENDBRANCH   9  10
ENDBRANCH   8   9
ENDBRANCH   7   8
ENDBRANCH   4   7
ENDBRANCH   1   3
BRANCH   1  14
HETATM   14  N   UNL     1      -6.259   4.458 -32.559  1.00  0.00    -0.318 N 
HETATM   15  C   UNL     1      -5.972   4.239 -31.219  1.00  0.00     0.256 C 
HETATM   16  O   UNL     1      -5.009   3.593 -30.816  1.00  0.00    -0.267 OA
HETATM   17  H   UNL     1      -6.669   5.364 -32.776  1.00  0.00     0.169 HD
BRANCH  15  18
HETATM   18  C   UNL     1      -6.833   4.958 -30.246  1.00  0.00     0.032 A 
HETATM   19  C   UNL     1      -8.182   5.211 -30.519  1.00  0.00     0.017 A 
HETATM   20  C   UNL     1      -8.969   5.869 -29.570  1.00  0.00     0.001 A 
HETATM   21  C   UNL     1      -8.412   6.273 -28.356  1.00  0.00     0.000 A 
HETATM   22  C   UNL     1      -7.070   6.012 -28.079  1.00  0.00     0.001 A 
HETATM   23  C   UNL     1      -6.282   5.348 -29.019  1.00  0.00     0.017 A 
ENDBRANCH  15  18
ENDBRANCH   1  14
BRANCH   2  24
HETATM   24  C   UNL     1      -7.185   2.081 -34.141  1.00  0.00     0.015 A 
HETATM   25  C   UNL     1      -7.482   0.693 -34.036  1.00  0.00     0.099 A 
HETATM   26  N   UNL     1      -8.809   0.512 -33.970  1.00  0.00    -0.166 NA
HETATM   27  N   UNL     1      -9.364   1.748 -34.072  1.00  0.00    -0.244 N 
HETATM   28  C   UNL     1      -8.397   2.726 -34.125  1.00  0.00     0.132 A 
BRANCH  25  29
HETATM   29  C   UNL     1      -6.580  -0.466 -33.990  1.00  0.00    -0.005 A 
HETATM   30  C   UNL     1      -5.453  -0.495 -33.155  1.00  0.00     0.015 A 
HETATM   31  C   UNL     1      -4.604  -1.606 -33.133  1.00  0.00     0.020 A 
HETATM   32  C   UNL     1      -4.886  -2.708 -33.936  1.00  0.00     0.011 A 
HETATM   33 BR   UNL     1      -3.742  -4.211 -33.896  1.00  0.00    -0.051 Br
HETATM   34  C   UNL     1      -6.008  -2.710 -34.760  1.00  0.00     0.020 A 
HETATM   35  C   UNL     1      -6.850  -1.593 -34.784  1.00  0.00     0.015 A 
ENDBRANCH  25  29
BRANCH  27  36
HETATM   36  C   UNL     1     -10.777   1.907 -34.091  1.00  0.00     0.058 A 
HETATM   37  C   UNL     1     -11.595   0.858 -33.639  1.00  0.00     0.031 A 
HETATM   38  C   UNL     1     -12.983   0.994 -33.643  1.00  0.00     0.002 A 
HETATM   39  C   UNL     1     -13.568   2.172 -34.103  1.00  0.00     0.000 A 
HETATM   40  C   UNL     1     -12.764   3.215 -34.561  1.00  0.00     0.002 A 
HETATM   41  C   UNL     1     -11.371   3.088 -34.557  1.00  0.00     0.031 A 
ENDBRANCH  27  36
ENDBRANCH   2  24
TORSDOF 10
ENDMDL
MODEL 6
REMARK VINA RESULT:      -8.9      3.455      7.577
REMARK  10 active torsions:
REMARK  status: ('A' for Active; 'I' for Inactive)
REMARK    1  A    between atoms: N_2  and  C_4 
REMARK    2  A    between atoms: C_4  and  C_5 
REMARK    3  A    between atoms: C_5  and  C_6 
REMARK    4  A    between atoms: C_6  and  N_7 
REMARK       I    between atoms: N_7  and  C_8 
REMARK    5  A    between atoms: C_8  and  C_9 
REMARK    6  A    between atoms: C_9  and  N_10 
REMARK       I    between atoms: N_10  and  C_11 
REMARK    7  A    between atoms: C_11  and  C_12 
REMARK    8  A    between atoms: C_19  and  C_20 
REMARK    9  A    between atoms: C_21  and  C_22 
REMARK   10  A    between atoms: N_30  and  C_31 
ROOT
HETATM    1  C   UNL     1      -6.710   3.964 -30.894  1.00  0.00     0.104 C 
HETATM    2  C   UNL     1      -7.530   2.908 -31.051  1.00  0.00     0.050 C 
ENDROOT
BRANCH   1   3
HETATM    3  C   UNL     1      -6.737   4.622 -29.552  1.00  0.00     0.268 C 
HETATM    4  N   UNL     1      -5.497   4.970 -29.064  1.00  0.00    -0.356 N 
HETATM    5  H   UNL     1      -4.689   4.579 -29.542  1.00  0.00     0.162 HD
HETATM    6  O   UNL     1      -7.788   4.822 -28.956  1.00  0.00    -0.266 OA
BRANCH   4   7
HETATM    7  C   UNL     1      -5.326   5.472 -27.716  1.00  0.00     0.124 C 
BRANCH   7   8
HETATM    8  C   UNL     1      -4.698   6.865 -27.699  1.00  0.00     0.047 C 
BRANCH   8   9
HETATM    9  C   UNL     1      -3.522   6.954 -26.729  1.00  0.00     0.235 C 
BRANCH   9  10
HETATM   10  N   UNL     1      -2.217   6.629 -27.446  1.00  0.00    -0.079 N 
HETATM   11  C   UNL     1      -0.990   7.016 -26.663  1.00  0.00     0.269 C 
HETATM   12  H   UNL     1      -2.181   5.609 -27.581  1.00  0.00     0.278 HD
HETATM   13  C   UNL     1      -2.179   7.232 -28.827  1.00  0.00     0.269 C 
ENDBRANCH   9  10
ENDBRANCH   8   9
ENDBRANCH   7   8
ENDBRANCH   4   7
ENDBRANCH   1   3
BRANCH   1  14
HETATM   14  N   UNL     1      -5.749   4.383 -31.793  1.00  0.00    -0.318 N 
HETATM   15  C   UNL     1      -4.443   3.917 -31.752  1.00  0.00     0.256 C 
HETATM   16  O   UNL     1      -4.054   3.019 -31.011  1.00  0.00    -0.267 OA
HETATM   17  H   UNL     1      -6.082   4.670 -32.710  1.00  0.00     0.169 HD
BRANCH  15  18
HETATM   18  C   UNL     1      -3.523   4.475 -32.775  1.00  0.00     0.032 A 
HETATM   19  C   UNL     1      -3.992   4.876 -34.031  1.00  0.00     0.017 A 
HETATM   20  C   UNL     1      -3.101   5.419 -34.960  1.00  0.00     0.001 A 
HETATM   21  C   UNL     1      -1.750   5.560 -34.639  1.00  0.00     0.000 A 
HETATM   22  C   UNL     1      -1.285   5.169 -33.383  1.00  0.00     0.001 A 
HETATM   23  C   UNL     1      -2.171   4.634 -32.448  1.00  0.00     0.017 A 
ENDBRANCH  15  18
ENDBRANCH   1  14
BRANCH   2  24
HETATM   24  C   UNL     1      -7.423   1.906 -32.058  1.00  0.00     0.015 A 
HETATM   25  C   UNL     1      -8.176   1.755 -33.257  1.00  0.00     0.099 A 
HETATM   26  N   UNL     1      -7.746   0.681 -33.936  1.00  0.00    -0.166 NA
HETATM   27  N   UNL     1      -6.768   0.122 -33.178  1.00  0.00    -0.244 N 
HETATM   28  C   UNL     1      -6.514   0.876 -32.054  1.00  0.00     0.132 A 
BRANCH  25  29
HETATM   29  C   UNL     1      -9.271   2.574 -33.795  1.00  0.00    -0.005 A 
HETATM   30  C   UNL     1     -10.552   2.045 -34.013  1.00  0.00     0.015 A 
HETATM   31  C   UNL     1     -11.578   2.842 -34.533  1.00  0.00     0.020 A 
HETATM   32  C   UNL     1     -11.333   4.181 -34.824  1.00  0.00     0.011 A 
HETATM   33 BR   UNL     1     -12.724   5.257 -35.517  1.00  0.00    -0.051 Br
HETATM   34  C   UNL     1     -10.075   4.732 -34.599  1.00  0.00     0.020 A 
HETATM   35  C   UNL     1      -9.051   3.929 -34.086  1.00  0.00     0.015 A 
ENDBRANCH  25  29
BRANCH  27  36
HETATM   36  C   UNL     1      -6.131  -1.081 -33.590  1.00  0.00     0.058 A 
HETATM   37  C   UNL     1      -6.831  -1.986 -34.406  1.00  0.00     0.031 A 
HETATM   38  C   UNL     1      -6.225  -3.169 -34.829  1.00  0.00     0.002 A 
HETATM   39  C   UNL     1      -4.921  -3.463 -34.437  1.00  0.00     0.000 A 
HETATM   40  C   UNL     1      -4.222  -2.575 -33.621  1.00  0.00     0.002 A 
HETATM   41  C   UNL     1      -4.821  -1.384 -33.196  1.00  0.00     0.031 A 
ENDBRANCH  27  36
ENDBRANCH   2  24
TORSDOF 10
ENDMDL
MODEL 7
REMARK VINA RESULT:      -8.7      3.224      7.590
REMARK  10 active torsions:
REMARK  status: ('A' for Active; 'I' for Inactive)
REMARK    1  A    between atoms: N_2  and  C_4 
REMARK    2  A    between atoms: C_4  and  C_5 
REMARK    3  A    between atoms: C_5  and  C_6 
REMARK    4  A    between atoms: C_6  and  N_7 
REMARK       I    between atoms: N_7  and  C_8 
REMARK    5  A    between atoms: C_8  and  C_9 
REMARK    6  A    between atoms: C_9  and  N_10 
REMARK       I    between atoms: N_10  and  C_11 
REMARK    7  A    between atoms: C_11  and  C_12 
REMARK    8  A    between atoms: C_19  and  C_20 
REMARK    9  A    between atoms: C_21  and  C_22 
REMARK   10  A    between atoms: N_30  and  C_31 
ROOT
HETATM    1  C   UNL     1      -6.752   4.450 -33.891  1.00  0.00     0.104 C 
HETATM    2  C   UNL     1      -7.874   5.097 -33.521  1.00  0.00     0.050 C 
ENDROOT
BRANCH   1   3
HETATM    3  C   UNL     1      -5.490   5.250 -33.851  1.00  0.00     0.268 C 
HETATM    4  N   UNL     1      -4.571   4.911 -34.820  1.00  0.00    -0.356 N 
HETATM    5  H   UNL     1      -4.735   4.043 -35.325  1.00  0.00     0.162 HD
HETATM    6  O   UNL     1      -5.312   6.126 -33.015  1.00  0.00    -0.266 OA
BRANCH   4   7
HETATM    7  C   UNL     1      -3.237   5.474 -34.829  1.00  0.00     0.124 C 
BRANCH   7   8
HETATM    8  C   UNL     1      -2.236   4.586 -34.090  1.00  0.00     0.047 C 
BRANCH   8   9
HETATM    9  C   UNL     1      -1.495   5.346 -32.990  1.00  0.00     0.235 C 
BRANCH   9  10
HETATM   10  N   UNL     1      -1.940   4.858 -31.617  1.00  0.00    -0.079 N 
HETATM   11  C   UNL     1      -2.850   3.658 -31.673  1.00  0.00     0.269 C 
HETATM   12  H   UNL     1      -1.098   4.575 -31.097  1.00  0.00     0.278 HD
HETATM   13  C   UNL     1      -2.571   5.967 -30.813  1.00  0.00     0.269 C 
ENDBRANCH   9  10
ENDBRANCH   8   9
ENDBRANCH   7   8
ENDBRANCH   4   7
ENDBRANCH   1   3
BRANCH   1  14
HETATM   14  N   UNL     1      -6.645   3.097 -34.144  1.00  0.00    -0.318 N 
HETATM   15  C   UNL     1      -6.320   2.181 -33.153  1.00  0.00     0.256 C 
HETATM   16  O   UNL     1      -6.220   2.461 -31.961  1.00  0.00    -0.267 OA
HETATM   17  H   UNL     1      -7.211   2.733 -34.907  1.00  0.00     0.169 HD
BRANCH  15  18
HETATM   18  C   UNL     1      -6.226   0.764 -33.585  1.00  0.00     0.032 A 
HETATM   19  C   UNL     1      -5.275  -0.101 -33.033  1.00  0.00     0.017 A 
HETATM   20  C   UNL     1      -5.231  -1.435 -33.446  1.00  0.00     0.001 A 
HETATM   21  C   UNL     1      -6.130  -1.903 -34.407  1.00  0.00     0.000 A 
HETATM   22  C   UNL     1      -7.084  -1.042 -34.950  1.00  0.00     0.001 A 
HETATM   23  C   UNL     1      -7.139   0.289 -34.534  1.00  0.00     0.017 A 
ENDBRANCH  15  18
ENDBRANCH   1  14
BRANCH   2  24
HETATM   24  C   UNL     1      -9.097   4.489 -33.115  1.00  0.00     0.015 A 
HETATM   25  C   UNL     1      -9.873   4.728 -31.945  1.00  0.00     0.099 A 
HETATM   26  N   UNL     1     -10.965   3.950 -31.954  1.00  0.00    -0.166 NA
HETATM   27  N   UNL     1     -10.881   3.192 -33.077  1.00  0.00    -0.244 N 
HETATM   28  C   UNL     1      -9.781   3.536 -33.829  1.00  0.00     0.132 A 
BRANCH  25  29
HETATM   29  C   UNL     1      -9.640   5.655 -30.830  1.00  0.00    -0.005 A 
HETATM   30  C   UNL     1      -8.654   5.414 -29.860  1.00  0.00     0.015 A 
HETATM   31  C   UNL     1      -8.455   6.307 -28.802  1.00  0.00     0.020 A 
HETATM   32  C   UNL     1      -9.231   7.460 -28.714  1.00  0.00     0.011 A 
HETATM   33 BR   UNL     1      -8.951   8.668 -27.289  1.00  0.00    -0.051 Br
HETATM   34  C   UNL     1     -10.202   7.729 -29.673  1.00  0.00     0.020 A 
HETATM   35  C   UNL     1     -10.403   6.829 -30.725  1.00  0.00     0.015 A 
ENDBRANCH  25  29
BRANCH  27  36
HETATM   36  C   UNL     1     -11.868   2.209 -33.362  1.00  0.00     0.058 A 
HETATM   37  C   UNL     1     -11.489   0.859 -33.453  1.00  0.00     0.031 A 
HETATM   38  C   UNL     1     -12.441  -0.124 -33.726  1.00  0.00     0.002 A 
HETATM   39  C   UNL     1     -13.774   0.230 -33.917  1.00  0.00     0.000 A 
HETATM   40  C   UNL     1     -14.158   1.569 -33.836  1.00  0.00     0.002 A 
HETATM   41  C   UNL     1     -13.210   2.560 -33.559  1.00  0.00     0.031 A 
ENDBRANCH  27  36
ENDBRANCH   2  24
TORSDOF 10
ENDMDL
MODEL 8
REMARK VINA RESULT:      -8.4      3.016      3.778
REMARK  10 active torsions:
REMARK  status: ('A' for Active; 'I' for Inactive)
REMARK    1  A    between atoms: N_2  and  C_4 
REMARK    2  A    between atoms: C_4  and  C_5 
REMARK    3  A    between atoms: C_5  and  C_6 
REMARK    4  A    between atoms: C_6  and  N_7 
REMARK       I    between atoms: N_7  and  C_8 
REMARK    5  A    between atoms: C_8  and  C_9 
REMARK    6  A    between atoms: C_9  and  N_10 
REMARK       I    between atoms: N_10  and  C_11 
REMARK    7  A    between atoms: C_11  and  C_12 
REMARK    8  A    between atoms: C_19  and  C_20 
REMARK    9  A    between atoms: C_21  and  C_22 
REMARK   10  A    between atoms: N_30  and  C_31 
ROOT
HETATM    1  C   UNL     1      -8.775   3.301 -33.777  1.00  0.00     0.104 C 
HETATM    2  C   UNL     1      -8.529   4.524 -33.270  1.00  0.00     0.050 C 
ENDROOT
BRANCH   1   3
HETATM    3  C   UNL     1     -10.121   3.108 -34.399  1.00  0.00     0.268 C 
HETATM    4  N   UNL     1     -10.645   1.844 -34.240  1.00  0.00    -0.356 N 
HETATM    5  H   UNL     1     -10.010   1.121 -33.908  1.00  0.00     0.162 HD
HETATM    6  O   UNL     1     -10.687   4.013 -34.998  1.00  0.00    -0.266 OA
BRANCH   4   7
HETATM    7  C   UNL     1     -11.864   1.439 -34.910  1.00  0.00     0.124 C 
BRANCH   7   8
HETATM    8  C   UNL     1     -12.855   0.784 -33.949  1.00  0.00     0.047 C 
BRANCH   8   9
HETATM    9  C   UNL     1     -14.125   1.617 -33.777  1.00  0.00     0.235 C 
BRANCH   9  10
HETATM   10  N   UNL     1     -14.265   2.077 -32.332  1.00  0.00    -0.079 N 
HETATM   11  C   UNL     1     -15.696   2.196 -31.877  1.00  0.00     0.269 C 
HETATM   12  H   UNL     1     -13.815   1.371 -31.733  1.00  0.00     0.278 HD
HETATM   13  C   UNL     1     -13.521   3.366 -32.087  1.00  0.00     0.269 C 
ENDBRANCH   9  10
ENDBRANCH   8   9
ENDBRANCH   7   8
ENDBRANCH   4   7
ENDBRANCH   1   3
BRANCH   1  14
HETATM   14  N   UNL     1      -7.855   2.281 -33.913  1.00  0.00    -0.318 N 
HETATM   15  C   UNL     1      -7.716   1.276 -32.966  1.00  0.00     0.256 C 
HETATM   16  O   UNL     1      -8.460   1.130 -32.001  1.00  0.00    -0.267 OA
HETATM   17  H   UNL     1      -7.605   2.022 -34.865  1.00  0.00     0.169 HD
BRANCH  15  18
HETATM   18  C   UNL     1      -6.670   0.260 -33.248  1.00  0.00     0.032 A 
HETATM   19  C   UNL     1      -6.967  -0.909 -33.956  1.00  0.00     0.017 A 
HETATM   20  C   UNL     1      -5.952  -1.832 -34.223  1.00  0.00     0.001 A 
HETATM   21  C   UNL     1      -4.649  -1.589 -33.785  1.00  0.00     0.000 A 
HETATM   22  C   UNL     1      -4.352  -0.418 -33.088  1.00  0.00     0.001 A 
HETATM   23  C   UNL     1      -5.359   0.511 -32.826  1.00  0.00     0.017 A 
ENDBRANCH  15  18
ENDBRANCH   1  14
BRANCH   2  24
HETATM   24  C   UNL     1      -7.245   5.067 -32.980  1.00  0.00     0.015 A 
HETATM   25  C   UNL     1      -6.843   5.885 -31.885  1.00  0.00     0.099 A 
HETATM   26  N   UNL     1      -5.536   6.169 -31.981  1.00  0.00    -0.166 NA
HETATM   27  N   UNL     1      -5.107   5.588 -33.131  1.00  0.00    -0.244 N 
HETATM   28  C   UNL     1      -6.113   4.866 -33.732  1.00  0.00     0.132 A 
BRANCH  25  29
HETATM   29  C   UNL     1      -7.626   6.405 -30.756  1.00  0.00    -0.005 A 
HETATM   30  C   UNL     1      -8.554   7.446 -30.914  1.00  0.00     0.015 A 
HETATM   31  C   UNL     1      -9.283   7.929 -29.823  1.00  0.00     0.020 A 
HETATM   32  C   UNL     1      -9.102   7.362 -28.565  1.00  0.00     0.011 A 
HETATM   33 BR   UNL     1     -10.097   8.012 -27.095  1.00  0.00    -0.051 Br
HETATM   34  C   UNL     1      -8.201   6.317 -28.387  1.00  0.00     0.020 A 
HETATM   35  C   UNL     1      -7.468   5.842 -29.480  1.00  0.00     0.015 A 
ENDBRANCH  25  29
BRANCH  27  36
HETATM   36  C   UNL     1      -3.761   5.745 -33.562  1.00  0.00     0.058 A 
HETATM   37  C   UNL     1      -2.957   6.732 -32.967  1.00  0.00     0.031 A 
HETATM   38  C   UNL     1      -1.632   6.900 -33.370  1.00  0.00     0.002 A 
HETATM   39  C   UNL     1      -1.099   6.092 -34.371  1.00  0.00     0.000 A 
HETATM   40  C   UNL     1      -1.892   5.115 -34.973  1.00  0.00     0.002 A 
HETATM   41  C   UNL     1      -3.220   4.937 -34.572  1.00  0.00     0.031 A 
ENDBRANCH  27  36
ENDBRANCH   2  24
TORSDOF 10
ENDMDL
MODEL 9
REMARK VINA RESULT:      -8.4      3.205      6.614
REMARK  10 active torsions:
REMARK  status: ('A' for Active; 'I' for Inactive)
REMARK    1  A    between atoms: N_2  and  C_4 
REMARK    2  A    between atoms: C_4  and  C_5 
REMARK    3  A    between atoms: C_5  and  C_6 
REMARK    4  A    between atoms: C_6  and  N_7 
REMARK       I    between atoms: N_7  and  C_8 
REMARK    5  A    between atoms: C_8  and  C_9 
REMARK    6  A    between atoms: C_9  and  N_10 
REMARK       I    between atoms: N_10  and  C_11 
REMARK    7  A    between atoms: C_11  and  C_12 
REMARK    8  A    between atoms: C_19  and  C_20 
REMARK    9  A    between atoms: C_21  and  C_22 
REMARK   10  A    between atoms: N_30  and  C_31 
ROOT
HETATM    1  C   UNL     1      -6.514   3.752 -30.856  1.00  0.00     0.104 C 
HETATM    2  C   UNL     1      -7.201   2.595 -30.911  1.00  0.00     0.050 C 
ENDROOT
BRANCH   1   3
HETATM    3  C   UNL     1      -6.614   4.513 -29.573  1.00  0.00     0.268 C 
HETATM    4  N   UNL     1      -7.806   5.182 -29.400  1.00  0.00    -0.356 N 
HETATM    5  H   UNL     1      -8.406   5.269 -30.217  1.00  0.00     0.162 HD
HETATM    6  O   UNL     1      -5.698   4.526 -28.761  1.00  0.00    -0.266 OA
BRANCH   4   7
HETATM    7  C   UNL     1      -8.010   6.092 -28.291  1.00  0.00     0.124 C 
BRANCH   7   8
HETATM    8  C   UNL     1      -7.485   7.494 -28.598  1.00  0.00     0.047 C 
BRANCH   8   9
HETATM    9  C   UNL     1      -8.527   8.356 -29.310  1.00  0.00     0.235 C 
BRANCH   9  10
HETATM   10  N   UNL     1      -8.149   8.543 -30.774  1.00  0.00    -0.079 N 
HETATM   11  C   UNL     1      -8.983   7.717 -31.718  1.00  0.00     0.269 C 
HETATM   12  H   UNL     1      -8.308   9.531 -31.014  1.00  0.00     0.278 HD
HETATM   13  C   UNL     1      -6.680   8.292 -31.003  1.00  0.00     0.269 C 
ENDBRANCH   9  10
ENDBRANCH   8   9
ENDBRANCH   7   8
ENDBRANCH   4   7
ENDBRANCH   1   3
BRANCH   1  14
HETATM   14  N   UNL     1      -5.615   4.206 -31.800  1.00  0.00    -0.318 N 
HETATM   15  C   UNL     1      -4.273   3.856 -31.775  1.00  0.00     0.256 C 
HETATM   16  O   UNL     1      -3.789   3.033 -31.003  1.00  0.00    -0.267 OA
HETATM   17  H   UNL     1      -5.995   4.416 -32.721  1.00  0.00     0.169 HD
BRANCH  15  18
HETATM   18  C   UNL     1      -3.431   4.438 -32.849  1.00  0.00     0.032 A 
HETATM   19  C   UNL     1      -3.985   4.837 -34.071  1.00  0.00     0.017 A 
HETATM   20  C   UNL     1      -3.166   5.403 -35.050  1.00  0.00     0.001 A 
HETATM   21  C   UNL     1      -1.801   5.571 -34.813  1.00  0.00     0.000 A 
HETATM   22  C   UNL     1      -1.250   5.182 -33.592  1.00  0.00     0.001 A 
HETATM   23  C   UNL     1      -2.064   4.624 -32.607  1.00  0.00     0.017 A 
ENDBRANCH  15  18
ENDBRANCH   1  14
BRANCH   2  24
HETATM   24  C   UNL     1      -6.978   1.532 -31.833  1.00  0.00     0.015 A 
HETATM   25  C   UNL     1      -7.703   1.201 -33.014  1.00  0.00     0.099 A 
HETATM   26  N   UNL     1      -7.153   0.129 -33.603  1.00  0.00    -0.166 NA
HETATM   27  N   UNL     1      -6.125  -0.255 -32.804  1.00  0.00    -0.244 N 
HETATM   28  C   UNL     1      -5.962   0.611 -31.747  1.00  0.00     0.132 A 
BRANCH  25  29
HETATM   29  C   UNL     1      -8.877   1.848 -33.613  1.00  0.00    -0.005 A 
HETATM   30  C   UNL     1     -10.093   1.167 -33.781  1.00  0.00     0.015 A 
HETATM   31  C   UNL     1     -11.196   1.801 -34.362  1.00  0.00     0.020 A 
HETATM   32  C   UNL     1     -11.097   3.130 -34.765  1.00  0.00     0.011 A 
HETATM   33 BR   UNL     1     -12.593   3.985 -35.541  1.00  0.00    -0.051 Br
HETATM   34  C   UNL     1      -9.907   3.831 -34.593  1.00  0.00     0.020 A 
HETATM   35  C   UNL     1      -8.805   3.190 -34.019  1.00  0.00     0.015 A 
ENDBRANCH  25  29
BRANCH  27  36
HETATM   36  C   UNL     1      -5.358  -1.411 -33.118  1.00  0.00     0.058 A 
HETATM   37  C   UNL     1      -4.238  -1.730 -32.331  1.00  0.00     0.031 A 
HETATM   38  C   UNL     1      -3.474  -2.861 -32.617  1.00  0.00     0.002 A 
HETATM   39  C   UNL     1      -3.814  -3.680 -33.692  1.00  0.00     0.000 A 
HETATM   40  C   UNL     1      -4.919  -3.366 -34.483  1.00  0.00     0.002 A 
HETATM   41  C   UNL     1      -5.692  -2.236 -34.201  1.00  0.00     0.031 A 
ENDBRANCH  27  36
ENDBRANCH   2  24
TORSDOF 10
ENDMDL
MODEL 10
REMARK VINA RESULT:      -8.3      2.916      6.138
REMARK  10 active torsions:
REMARK  status: ('A' for Active; 'I' for Inactive)
REMARK    1  A    between atoms: N_2  and  C_4 
REMARK    2  A    between atoms: C_4  and  C_5 
REMARK    3  A    between atoms: C_5  and  C_6 
REMARK    4  A    between atoms: C_6  and  N_7 
REMARK       I    between atoms: N_7  and  C_8 
REMARK    5  A    between atoms: C_8  and  C_9 
REMARK    6  A    between atoms: C_9  and  N_10 
REMARK       I    between atoms: N_10  and  C_11 
REMARK    7  A    between atoms: C_11  and  C_12 
REMARK    8  A    between atoms: C_19  and  C_20 
REMARK    9  A    between atoms: C_21  and  C_22 
REMARK   10  A    between atoms: N_30  and  C_31 
ROOT
HETATM    1  C   UNL     1      -7.691   3.535 -31.347  1.00  0.00     0.104 C 
HETATM    2  C   UNL     1      -8.371   2.373 -31.361  1.00  0.00     0.050 C 
ENDROOT
BRANCH   1   3
HETATM    3  C   UNL     1      -7.917   4.413 -30.159  1.00  0.00     0.268 C 
HETATM    4  N   UNL     1      -8.888   5.374 -30.339  1.00  0.00    -0.356 N 
HETATM    5  H   UNL     1      -9.206   5.532 -31.292  1.00  0.00     0.162 HD
HETATM    6  O   UNL     1      -7.277   4.271 -29.125  1.00  0.00    -0.266 OA
BRANCH   4   7
HETATM    7  C   UNL     1      -9.124   6.406 -29.350  1.00  0.00     0.124 C 
BRANCH   7   8
HETATM    8  C   UNL     1      -9.673   7.686 -29.980  1.00  0.00     0.047 C 
BRANCH   8   9
HETATM    9  C   UNL     1     -11.124   7.949 -29.578  1.00  0.00     0.235 C 
BRANCH   9  10
HETATM   10  N   UNL     1     -12.067   7.537 -30.702  1.00  0.00    -0.079 N 
HETATM   11  C   UNL     1     -12.670   6.171 -30.508  1.00  0.00     0.269 C 
HETATM   12  H   UNL     1     -12.845   8.211 -30.720  1.00  0.00     0.278 HD
HETATM   13  C   UNL     1     -11.400   7.639 -32.050  1.00  0.00     0.269 C 
ENDBRANCH   9  10
ENDBRANCH   8   9
ENDBRANCH   7   8
ENDBRANCH   4   7
ENDBRANCH   1   3
BRANCH   1  14
HETATM   14  N   UNL     1      -6.701   3.903 -32.237  1.00  0.00    -0.318 N 
HETATM   15  C   UNL     1      -5.352   3.786 -31.935  1.00  0.00     0.256 C 
HETATM   16  O   UNL     1      -4.916   3.243 -30.924  1.00  0.00    -0.267 OA
HETATM   17  H   UNL     1      -6.936   3.841 -33.225  1.00  0.00     0.169 HD
BRANCH  15  18
HETATM   18  C   UNL     1      -4.410   4.240 -32.989  1.00  0.00     0.032 A 
HETATM   19  C   UNL     1      -4.874   4.753 -34.205  1.00  0.00     0.017 A 
HETATM   20  C   UNL     1      -3.959   5.194 -35.165  1.00  0.00     0.001 A 
HETATM   21  C   UNL     1      -2.588   5.123 -34.912  1.00  0.00     0.000 A 
HETATM   22  C   UNL     1      -2.126   4.621 -33.695  1.00  0.00     0.001 A 
HETATM   23  C   UNL     1      -3.035   4.188 -32.730  1.00  0.00     0.017 A 
ENDBRANCH  15  18
ENDBRANCH   1  14
BRANCH   2  24
HETATM   24  C   UNL     1      -8.060   1.229 -32.150  1.00  0.00     0.015 A 
HETATM   25  C   UNL     1      -8.916   0.453 -32.983  1.00  0.00     0.099 A 
HETATM   26  N   UNL     1      -8.219  -0.535 -33.562  1.00  0.00    -0.166 NA
HETATM   27  N   UNL     1      -6.952  -0.432 -33.087  1.00  0.00    -0.244 N 
HETATM   28  C   UNL     1      -6.814   0.664 -32.266  1.00  0.00     0.132 A 
BRANCH  25  29
HETATM   29  C   UNL     1     -10.351   0.601 -33.261  1.00  0.00    -0.005 A 
HETATM   30  C   UNL     1     -10.893   1.805 -33.736  1.00  0.00     0.015 A 
HETATM   31  C   UNL     1     -12.264   1.925 -33.987  1.00  0.00     0.020 A 
HETATM   32  C   UNL     1     -13.103   0.834 -33.780  1.00  0.00     0.011 A 
HETATM   33 BR   UNL     1     -14.953   0.998 -34.130  1.00  0.00    -0.051 Br
HETATM   34  C   UNL     1     -12.586  -0.376 -33.326  1.00  0.00     0.020 A 
HETATM   35  C   UNL     1     -11.216  -0.489 -33.069  1.00  0.00     0.015 A 
ENDBRANCH  25  29
BRANCH  27  36
HETATM   36  C   UNL     1      -5.958  -1.376 -33.467  1.00  0.00     0.058 A 
HETATM   37  C   UNL     1      -4.781  -1.481 -32.706  1.00  0.00     0.031 A 
HETATM   38  C   UNL     1      -3.795  -2.404 -33.056  1.00  0.00     0.002 A 
HETATM   39  C   UNL     1      -3.970  -3.223 -34.169  1.00  0.00     0.000 A 
HETATM   40  C   UNL     1      -5.131  -3.120 -34.934  1.00  0.00     0.002 A 
HETATM   41  C   UNL     1      -6.126  -2.200 -34.588  1.00  0.00     0.031 A 
ENDBRANCH  27  36
ENDBRANCH   2  24
TORSDOF 10
ENDMDL
