MODEL 1
REMARK VINA RESULT:      -9.3      0.000      0.000
REMARK  8 active torsions:
REMARK  status: ('A' for Active; 'I' for Inactive)
REMARK    1  A    between atoms: C_2  and  O_3 
REMARK    2  A    between atoms: O_3  and  C_4 
REMARK    3  A    between atoms: C_5  and  C_6 
REMARK    4  A    between atoms: C_6  and  N_7 
REMARK    5  A    between atoms: C_9  and  C_10 
REMARK    6  A    between atoms: C_10  and  C_11 
REMARK       I    between atoms: C_11  and  N_12 
REMARK    7  A    between atoms: N_12  and  C_13 
REMARK    8  A    between atoms: C_13  and  C_14 
ROOT
HETATM    1  N   UNL     1      -6.161   0.233 -33.077  1.00  0.00    -0.052 N 
HETATM    2  H   UNL     1      -5.291  -0.148 -32.679  1.00  0.00     0.281 HD
HETATM    3  C   UNL     1      -5.805   1.734 -33.079  1.00  0.00     0.288 C 
HETATM    4  C   UNL     1      -5.434   2.225 -31.663  1.00  0.00     0.249 C 
HETATM    5  O   UNL     1      -4.886   3.305 -31.468  1.00  0.00    -0.271 OA
HETATM    6  N   UNL     1      -5.664   1.362 -30.620  1.00  0.00    -0.358 N 
HETATM    7  C   UNL     1      -6.651   0.287 -30.627  1.00  0.00     0.150 C 
HETATM    8  C   UNL     1      -7.143  -0.177 -32.011  1.00  0.00     0.256 C 
HETATM    9  H   UNL     1      -5.424   1.766 -29.718  1.00  0.00     0.162 HD
ENDROOT
BRANCH   3  10
HETATM   10  C   UNL     1      -6.764   2.707 -33.766  1.00  0.00     0.145 C 
BRANCH  10  11
HETATM   11  C   UNL     1      -6.158   4.041 -34.125  1.00  0.00     0.220 C 
HETATM   12  N   UNL     1      -4.850   3.977 -34.528  1.00  0.00    -0.355 N 
HETATM   13  H   UNL     1      -4.315   3.123 -34.414  1.00  0.00     0.162 HD
HETATM   14  O   UNL     1      -6.794   5.089 -34.081  1.00  0.00    -0.274 OA
BRANCH  12  15
HETATM   15  C   UNL     1      -4.131   5.132 -35.015  1.00  0.00     0.179 C 
BRANCH  15  16
HETATM   16  C   UNL     1      -3.058   5.462 -34.053  1.00  0.00     0.028 A 
HETATM   17  N   UNL     1      -2.704   4.612 -33.031  1.00  0.00    -0.357 N 
HETATM   18  H   UNL     1      -3.112   3.701 -32.866  1.00  0.00     0.166 HD
HETATM   19  C   UNL     1      -1.731   5.183 -32.244  1.00  0.00     0.043 A 
HETATM   20  C   UNL     1      -1.455   6.442 -32.781  1.00  0.00    -0.005 A 
HETATM   21  C   UNL     1      -1.090   4.692 -31.099  1.00  0.00     0.033 A 
HETATM   22  C   UNL     1      -2.286   6.600 -33.923  1.00  0.00     0.040 A 
HETATM   23  C   UNL     1      -0.502   7.258 -32.147  1.00  0.00     0.056 A 
HETATM   24  C   UNL     1       0.136   6.777 -31.005  1.00  0.00     0.117 A 
HETATM   25  C   UNL     1      -0.144   5.519 -30.486  1.00  0.00     0.044 A 
HETATM   26  F   UNL     1       1.041   7.550 -30.390  1.00  0.00    -0.206 F 
ENDBRANCH  15  16
ENDBRANCH  12  15
ENDBRANCH  10  11
ENDBRANCH   3  10
BRANCH   1  27
HETATM   27  C   UNL     1      -6.216  -0.511 -34.390  1.00  0.00     0.277 C 
BRANCH  27  28
HETATM   28  C   UNL     1      -5.901  -1.982 -34.463  1.00  0.00     0.001 A 
HETATM   29  C   UNL     1      -4.652  -2.430 -33.980  1.00  0.00     0.076 A 
HETATM   30  C   UNL     1      -4.288  -3.776 -34.069  1.00  0.00     0.037 A 
HETATM   31  C   UNL     1      -5.192  -4.711 -34.565  1.00  0.00     0.003 A 
HETATM   32  C   UNL     1      -6.464  -4.304 -34.950  1.00  0.00     0.001 A 
HETATM   33  C   UNL     1      -6.821  -2.953 -34.886  1.00  0.00     0.012 A 
BRANCH  29  34
HETATM   34  O   UNL     1      -3.828  -1.474 -33.439  1.00  0.00    -0.351 OA
BRANCH  34  35
HETATM   35  C   UNL     1      -3.411  -1.721 -32.088  1.00  0.00     0.171 C 
HETATM   36  C   UNL     1      -2.770  -0.452 -31.559  1.00  0.00     0.034 C 
ENDBRANCH  34  35
ENDBRANCH  29  34
ENDBRANCH  27  28
ENDBRANCH   1  27
TORSDOF 8
ENDMDL
MODEL 2
REMARK VINA RESULT:      -8.9      4.622      7.090
REMARK  8 active torsions:
REMARK  status: ('A' for Active; 'I' for Inactive)
REMARK    1  A    between atoms: C_2  and  O_3 
REMARK    2  A    between atoms: O_3  and  C_4 
REMARK    3  A    between atoms: C_5  and  C_6 
REMARK    4  A    between atoms: C_6  and  N_7 
REMARK    5  A    between atoms: C_9  and  C_10 
REMARK    6  A    between atoms: C_10  and  C_11 
REMARK       I    between atoms: C_11  and  N_12 
REMARK    7  A    between atoms: N_12  and  C_13 
REMARK    8  A    between atoms: C_13  and  C_14 
ROOT
HETATM    1  N   UNL     1      -7.029  -0.137 -33.338  1.00  0.00    -0.052 N 
HETATM    2  H   UNL     1      -7.126  -0.959 -32.726  1.00  0.00     0.281 HD
HETATM    3  C   UNL     1      -6.235   0.792 -32.396  1.00  0.00     0.288 C 
HETATM    4  C   UNL     1      -6.987   1.020 -31.067  1.00  0.00     0.249 C 
HETATM    5  O   UNL     1      -6.443   1.515 -30.085  1.00  0.00    -0.271 OA
HETATM    6  N   UNL     1      -8.280   0.567 -30.994  1.00  0.00    -0.358 N 
HETATM    7  C   UNL     1      -9.163   0.367 -32.139  1.00  0.00     0.150 C 
HETATM    8  C   UNL     1      -8.478   0.239 -33.512  1.00  0.00     0.256 C 
HETATM    9  H   UNL     1      -8.719   0.781 -30.101  1.00  0.00     0.162 HD
ENDROOT
BRANCH   3  10
HETATM   10  C   UNL     1      -5.696   2.109 -32.959  1.00  0.00     0.145 C 
BRANCH  10  11
HETATM   11  C   UNL     1      -6.648   3.275 -32.854  1.00  0.00     0.220 C 
HETATM   12  N   UNL     1      -7.540   3.370 -33.889  1.00  0.00    -0.355 N 
HETATM   13  H   UNL     1      -7.430   2.802 -34.722  1.00  0.00     0.162 HD
HETATM   14  O   UNL     1      -6.635   4.054 -31.906  1.00  0.00    -0.274 OA
BRANCH  12  15
HETATM   15  C   UNL     1      -8.599   4.353 -33.911  1.00  0.00     0.179 C 
BRANCH  15  16
HETATM   16  C   UNL     1      -9.897   3.655 -33.792  1.00  0.00     0.028 A 
HETATM   17  N   UNL     1     -10.365   2.810 -34.771  1.00  0.00    -0.357 N 
HETATM   18  H   UNL     1      -9.870   2.574 -35.622  1.00  0.00     0.166 HD
HETATM   19  C   UNL     1     -11.620   2.346 -34.448  1.00  0.00     0.043 A 
HETATM   20  C   UNL     1     -11.964   2.915 -33.221  1.00  0.00    -0.005 A 
HETATM   21  C   UNL     1     -12.474   1.485 -35.149  1.00  0.00     0.033 A 
HETATM   22  C   UNL     1     -10.869   3.726 -32.814  1.00  0.00     0.040 A 
HETATM   23  C   UNL     1     -13.221   2.622 -32.664  1.00  0.00     0.056 A 
HETATM   24  C   UNL     1     -14.078   1.770 -33.359  1.00  0.00     0.117 A 
HETATM   25  C   UNL     1     -13.718   1.206 -34.576  1.00  0.00     0.044 A 
HETATM   26  F   UNL     1     -15.281   1.491 -32.839  1.00  0.00    -0.206 F 
ENDBRANCH  15  16
ENDBRANCH  12  15
ENDBRANCH  10  11
ENDBRANCH   3  10
BRANCH   1  27
HETATM   27  C   UNL     1      -6.328  -0.754 -34.525  1.00  0.00     0.277 C 
BRANCH  27  28
HETATM   28  C   UNL     1      -5.911  -2.201 -34.513  1.00  0.00     0.001 A 
HETATM   29  C   UNL     1      -4.654  -2.537 -33.963  1.00  0.00     0.076 A 
HETATM   30  C   UNL     1      -4.195  -3.857 -33.972  1.00  0.00     0.037 A 
HETATM   31  C   UNL     1      -5.014  -4.875 -34.453  1.00  0.00     0.003 A 
HETATM   32  C   UNL     1      -6.294  -4.577 -34.904  1.00  0.00     0.001 A 
HETATM   33  C   UNL     1      -6.745  -3.253 -34.919  1.00  0.00     0.012 A 
BRANCH  29  34
HETATM   34  O   UNL     1      -3.919  -1.501 -33.441  1.00  0.00    -0.351 OA
BRANCH  34  35
HETATM   35  C   UNL     1      -3.454  -1.699 -32.098  1.00  0.00     0.171 C 
HETATM   36  C   UNL     1      -2.885  -0.382 -31.603  1.00  0.00     0.034 C 
ENDBRANCH  34  35
ENDBRANCH  29  34
ENDBRANCH  27  28
ENDBRANCH   1  27
TORSDOF 8
ENDMDL
MODEL 3
REMARK VINA RESULT:      -8.8      2.622      3.777
REMARK  8 active torsions:
REMARK  status: ('A' for Active; 'I' for Inactive)
REMARK    1  A    between atoms: C_2  and  O_3 
REMARK    2  A    between atoms: O_3  and  C_4 
REMARK    3  A    between atoms: C_5  and  C_6 
REMARK    4  A    between atoms: C_6  and  N_7 
REMARK    5  A    between atoms: C_9  and  C_10 
REMARK    6  A    between atoms: C_10  and  C_11 
REMARK       I    between atoms: C_11  and  N_12 
REMARK    7  A    between atoms: N_12  and  C_13 
REMARK    8  A    between atoms: C_13  and  C_14 
ROOT
HETATM    1  N   UNL     1      -8.212   1.448 -34.273  1.00  0.00    -0.052 N 
HETATM    2  H   UNL     1      -8.628   1.193 -35.180  1.00  0.00     0.281 HD
HETATM    3  C   UNL     1      -9.012   0.503 -33.351  1.00  0.00     0.288 C 
HETATM    4  C   UNL     1     -10.532   0.737 -33.491  1.00  0.00     0.249 C 
HETATM    5  O   UNL     1     -11.358  -0.054 -33.048  1.00  0.00    -0.271 OA
HETATM    6  N   UNL     1     -10.933   1.833 -34.212  1.00  0.00    -0.358 N 
HETATM    7  C   UNL     1     -10.135   3.037 -34.418  1.00  0.00     0.150 C 
HETATM    8  C   UNL     1      -8.618   2.896 -34.189  1.00  0.00     0.256 C 
HETATM    9  H   UNL     1     -11.945   1.938 -34.234  1.00  0.00     0.162 HD
ENDROOT
BRANCH   3  10
HETATM   10  C   UNL     1      -8.602   0.403 -31.881  1.00  0.00     0.145 C 
BRANCH  10  11
HETATM   11  C   UNL     1      -8.312   1.727 -31.217  1.00  0.00     0.220 C 
HETATM   12  N   UNL     1      -6.978   2.000 -31.060  1.00  0.00    -0.355 N 
HETATM   13  H   UNL     1      -6.281   1.282 -31.222  1.00  0.00     0.162 HD
HETATM   14  O   UNL     1      -9.199   2.500 -30.872  1.00  0.00    -0.274 OA
BRANCH  12  15
HETATM   15  C   UNL     1      -6.501   3.263 -30.546  1.00  0.00     0.179 C 
BRANCH  15  16
HETATM   16  C   UNL     1      -5.306   3.668 -31.317  1.00  0.00     0.028 A 
HETATM   17  N   UNL     1      -4.092   3.901 -30.715  1.00  0.00    -0.357 N 
HETATM   18  H   UNL     1      -3.903   3.794 -29.727  1.00  0.00     0.166 HD
HETATM   19  C   UNL     1      -3.168   4.329 -31.642  1.00  0.00     0.043 A 
HETATM   20  C   UNL     1      -3.817   4.371 -32.877  1.00  0.00    -0.005 A 
HETATM   21  C   UNL     1      -1.825   4.692 -31.479  1.00  0.00     0.033 A 
HETATM   22  C   UNL     1      -5.155   3.942 -32.662  1.00  0.00     0.040 A 
HETATM   23  C   UNL     1      -3.100   4.802 -34.007  1.00  0.00     0.056 A 
HETATM   24  C   UNL     1      -1.764   5.169 -33.851  1.00  0.00     0.117 A 
HETATM   25  C   UNL     1      -1.131   5.116 -32.615  1.00  0.00     0.044 A 
HETATM   26  F   UNL     1      -1.075   5.588 -34.921  1.00  0.00    -0.206 F 
ENDBRANCH  15  16
ENDBRANCH  12  15
ENDBRANCH  10  11
ENDBRANCH   3  10
BRANCH   1  27
HETATM   27  C   UNL     1      -6.755   1.152 -34.542  1.00  0.00     0.277 C 
BRANCH  27  28
HETATM   28  C   UNL     1      -6.217  -0.251 -34.442  1.00  0.00     0.001 A 
HETATM   29  C   UNL     1      -5.198  -0.517 -33.502  1.00  0.00     0.076 A 
HETATM   30  C   UNL     1      -4.626  -1.789 -33.404  1.00  0.00     0.037 A 
HETATM   31  C   UNL     1      -5.117  -2.835 -34.180  1.00  0.00     0.003 A 
HETATM   32  C   UNL     1      -6.188  -2.615 -35.037  1.00  0.00     0.001 A 
HETATM   33  C   UNL     1      -6.744  -1.337 -35.156  1.00  0.00     0.012 A 
BRANCH  29  34
HETATM   34  O   UNL     1      -4.800   0.536 -32.716  1.00  0.00    -0.351 OA
BRANCH  34  35
HETATM   35  C   UNL     1      -3.387   0.623 -32.481  1.00  0.00     0.171 C 
HETATM   36  C   UNL     1      -3.151   0.451 -30.992  1.00  0.00     0.034 C 
ENDBRANCH  34  35
ENDBRANCH  29  34
ENDBRANCH  27  28
ENDBRANCH   1  27
TORSDOF 8
ENDMDL
MODEL 4
REMARK VINA RESULT:      -8.6      3.036      7.964
REMARK  8 active torsions:
REMARK  status: ('A' for Active; 'I' for Inactive)
REMARK    1  A    between atoms: C_2  and  O_3 
REMARK    2  A    between atoms: O_3  and  C_4 
REMARK    3  A    between atoms: C_5  and  C_6 
REMARK    4  A    between atoms: C_6  and  N_7 
REMARK    5  A    between atoms: C_9  and  C_10 
REMARK    6  A    between atoms: C_10  and  C_11 
REMARK       I    between atoms: C_11  and  N_12 
REMARK    7  A    between atoms: N_12  and  C_13 
REMARK    8  A    between atoms: C_13  and  C_14 
ROOT
HETATM    1  N   UNL     1      -3.979   2.943 -31.039  1.00  0.00    -0.052 N 
HETATM    2  H   UNL     1      -3.432   2.675 -30.208  1.00  0.00     0.281 HD
HETATM    3  C   UNL     1      -5.387   2.528 -30.562  1.00  0.00     0.288 C 
HETATM    4  C   UNL     1      -5.431   1.035 -30.173  1.00  0.00     0.249 C 
HETATM    5  O   UNL     1      -6.365   0.551 -29.541  1.00  0.00    -0.271 OA
HETATM    6  N   UNL     1      -4.334   0.273 -30.488  1.00  0.00    -0.358 N 
HETATM    7  C   UNL     1      -3.388   0.571 -31.559  1.00  0.00     0.150 C 
HETATM    8  C   UNL     1      -3.371   2.025 -32.067  1.00  0.00     0.256 C 
HETATM    9  H   UNL     1      -4.450  -0.704 -30.229  1.00  0.00     0.162 HD
ENDROOT
BRANCH   3  10
HETATM   10  C   UNL     1      -6.588   2.909 -31.428  1.00  0.00     0.145 C 
BRANCH  10  11
HETATM   11  C   UNL     1      -6.573   2.321 -32.818  1.00  0.00     0.220 C 
HETATM   12  N   UNL     1      -7.360   1.210 -32.970  1.00  0.00    -0.355 N 
HETATM   13  H   UNL     1      -7.762   0.746 -32.163  1.00  0.00     0.162 HD
HETATM   14  O   UNL     1      -5.927   2.816 -33.737  1.00  0.00    -0.274 OA
BRANCH  12  15
HETATM   15  C   UNL     1      -7.560   0.572 -34.251  1.00  0.00     0.179 C 
BRANCH  15  16
HETATM   16  C   UNL     1      -6.750  -0.664 -34.297  1.00  0.00     0.028 A 
HETATM   17  N   UNL     1      -7.264  -1.859 -34.743  1.00  0.00    -0.357 N 
HETATM   18  H   UNL     1      -8.203  -1.993 -35.095  1.00  0.00     0.166 HD
HETATM   19  C   UNL     1      -6.329  -2.862 -34.620  1.00  0.00     0.043 A 
HETATM   20  C   UNL     1      -5.180  -2.286 -34.076  1.00  0.00    -0.005 A 
HETATM   21  C   UNL     1      -6.418  -4.224 -34.933  1.00  0.00     0.033 A 
HETATM   22  C   UNL     1      -5.453  -0.904 -33.889  1.00  0.00     0.040 A 
HETATM   23  C   UNL     1      -4.065  -3.104 -33.823  1.00  0.00     0.056 A 
HETATM   24  C   UNL     1      -4.148  -4.461 -34.127  1.00  0.00     0.117 A 
HETATM   25  C   UNL     1      -5.297  -5.018 -34.675  1.00  0.00     0.044 A 
HETATM   26  F   UNL     1      -3.093  -5.250 -33.882  1.00  0.00    -0.206 F 
ENDBRANCH  15  16
ENDBRANCH  12  15
ENDBRANCH  10  11
ENDBRANCH   3  10
BRANCH   1  27
HETATM   27  C   UNL     1      -3.638   4.411 -31.135  1.00  0.00     0.277 C 
BRANCH  27  28
HETATM   28  C   UNL     1      -2.902   4.960 -32.329  1.00  0.00     0.001 A 
HETATM   29  C   UNL     1      -1.504   5.130 -32.240  1.00  0.00     0.076 A 
HETATM   30  C   UNL     1      -0.779   5.684 -33.300  1.00  0.00     0.037 A 
HETATM   31  C   UNL     1      -1.422   5.999 -34.493  1.00  0.00     0.003 A 
HETATM   32  C   UNL     1      -2.780   5.743 -34.635  1.00  0.00     0.001 A 
HETATM   33  C   UNL     1      -3.512   5.214 -33.567  1.00  0.00     0.012 A 
BRANCH  29  34
HETATM   34  O   UNL     1      -0.914   4.739 -31.064  1.00  0.00    -0.351 OA
BRANCH  34  35
HETATM   35  C   UNL     1       0.395   5.280 -30.828  1.00  0.00     0.171 C 
HETATM   36  C   UNL     1       0.276   6.325 -29.734  1.00  0.00     0.034 C 
ENDBRANCH  34  35
ENDBRANCH  29  34
ENDBRANCH  27  28
ENDBRANCH   1  27
TORSDOF 8
ENDMDL
MODEL 5
REMARK VINA RESULT:      -8.4      1.705      2.225
REMARK  8 active torsions:
REMARK  status: ('A' for Active; 'I' for Inactive)
REMARK    1  A    between atoms: C_2  and  O_3 
REMARK    2  A    between atoms: O_3  and  C_4 
REMARK    3  A    between atoms: C_5  and  C_6 
REMARK    4  A    between atoms: C_6  and  N_7 
REMARK    5  A    between atoms: C_9  and  C_10 
REMARK    6  A    between atoms: C_10  and  C_11 
REMARK       I    between atoms: C_11  and  N_12 
REMARK    7  A    between atoms: N_12  and  C_13 
REMARK    8  A    between atoms: C_13  and  C_14 
ROOT
HETATM    1  N   UNL     1      -6.573   1.427 -32.799  1.00  0.00    -0.052 N 
HETATM    2  H   UNL     1      -6.565   0.603 -32.182  1.00  0.00     0.281 HD
HETATM    3  C   UNL     1      -5.566   2.321 -32.043  1.00  0.00     0.288 C 
HETATM    4  C   UNL     1      -6.011   2.559 -30.585  1.00  0.00     0.249 C 
HETATM    5  O   UNL     1      -5.255   3.026 -29.738  1.00  0.00    -0.271 OA
HETATM    6  N   UNL     1      -7.274   2.147 -30.240  1.00  0.00    -0.358 N 
HETATM    7  C   UNL     1      -8.386   1.987 -31.172  1.00  0.00     0.150 C 
HETATM    8  C   UNL     1      -8.012   1.851 -32.660  1.00  0.00     0.256 C 
HETATM    9  H   UNL     1      -7.506   2.366 -29.274  1.00  0.00     0.162 HD
ENDROOT
BRANCH   3  10
HETATM   10  C   UNL     1      -5.115   3.625 -32.703  1.00  0.00     0.145 C 
BRANCH  10  11
HETATM   11  C   UNL     1      -3.628   3.727 -32.943  1.00  0.00     0.220 C 
HETATM   12  N   UNL     1      -3.214   4.949 -33.404  1.00  0.00    -0.355 N 
HETATM   13  H   UNL     1      -3.887   5.640 -33.715  1.00  0.00     0.162 HD
HETATM   14  O   UNL     1      -2.858   2.800 -32.718  1.00  0.00    -0.274 OA
BRANCH  12  15
HETATM   15  C   UNL     1      -1.818   5.275 -33.588  1.00  0.00     0.179 C 
BRANCH  15  16
HETATM   16  C   UNL     1      -1.283   5.804 -32.315  1.00  0.00     0.028 A 
HETATM   17  N   UNL     1      -0.434   5.072 -31.518  1.00  0.00    -0.357 N 
HETATM   18  H   UNL     1      -0.087   4.146 -31.734  1.00  0.00     0.166 HD
HETATM   19  C   UNL     1      -0.139   5.764 -30.365  1.00  0.00     0.043 A 
HETATM   20  C   UNL     1      -0.824   6.978 -30.429  1.00  0.00    -0.005 A 
HETATM   21  C   UNL     1       0.663   5.403 -29.275  1.00  0.00     0.033 A 
HETATM   22  C   UNL     1      -1.529   6.996 -31.663  1.00  0.00     0.040 A 
HETATM   23  C   UNL     1      -0.715   7.878 -29.354  1.00  0.00     0.056 A 
HETATM   24  C   UNL     1       0.078   7.523 -28.264  1.00  0.00     0.117 A 
HETATM   25  C   UNL     1       0.759   6.313 -28.218  1.00  0.00     0.044 A 
HETATM   26  F   UNL     1       0.183   8.371 -27.232  1.00  0.00    -0.206 F 
ENDBRANCH  15  16
ENDBRANCH  12  15
ENDBRANCH  10  11
ENDBRANCH   3  10
BRANCH   1  27
HETATM   27  C   UNL     1      -6.160   0.800 -34.109  1.00  0.00     0.277 C 
BRANCH  27  28
HETATM   28  C   UNL     1      -5.972  -0.690 -34.230  1.00  0.00     0.001 A 
HETATM   29  C   UNL     1      -4.738  -1.249 -33.835  1.00  0.00     0.076 A 
HETATM   30  C   UNL     1      -4.492  -2.618 -33.974  1.00  0.00     0.037 A 
HETATM   31  C   UNL     1      -5.499  -3.464 -34.432  1.00  0.00     0.003 A 
HETATM   32  C   UNL     1      -6.753  -2.945 -34.729  1.00  0.00     0.001 A 
HETATM   33  C   UNL     1      -6.993  -1.572 -34.615  1.00  0.00     0.012 A 
BRANCH  29  34
HETATM   34  O   UNL     1      -3.806  -0.378 -33.328  1.00  0.00    -0.351 OA
BRANCH  34  35
HETATM   35  C   UNL     1      -2.964  -0.917 -32.298  1.00  0.00     0.171 C 
HETATM   36  C   UNL     1      -3.119  -0.045 -31.066  1.00  0.00     0.034 C 
ENDBRANCH  34  35
ENDBRANCH  29  34
ENDBRANCH  27  28
ENDBRANCH   1  27
TORSDOF 8
ENDMDL
MODEL 6
REMARK VINA RESULT:      -8.4      2.216      3.170
REMARK  8 active torsions:
REMARK  status: ('A' for Active; 'I' for Inactive)
REMARK    1  A    between atoms: C_2  and  O_3 
REMARK    2  A    between atoms: O_3  and  C_4 
REMARK    3  A    between atoms: C_5  and  C_6 
REMARK    4  A    between atoms: C_6  and  N_7 
REMARK    5  A    between atoms: C_9  and  C_10 
REMARK    6  A    between atoms: C_10  and  C_11 
REMARK       I    between atoms: C_11  and  N_12 
REMARK    7  A    between atoms: N_12  and  C_13 
REMARK    8  A    between atoms: C_13  and  C_14 
ROOT
HETATM    1  N   UNL     1      -6.287   3.246 -32.194  1.00  0.00    -0.052 N 
HETATM    2  H   UNL     1      -6.096   2.441 -31.582  1.00  0.00     0.281 HD
HETATM    3  C   UNL     1      -4.898   3.406 -32.847  1.00  0.00     0.288 C 
HETATM    4  C   UNL     1      -3.798   3.608 -31.783  1.00  0.00     0.249 C 
HETATM    5  O   UNL     1      -2.604   3.511 -32.050  1.00  0.00    -0.271 OA
HETATM    6  N   UNL     1      -4.207   3.820 -30.490  1.00  0.00    -0.358 N 
HETATM    7  C   UNL     1      -5.504   4.367 -30.102  1.00  0.00     0.150 C 
HETATM    8  C   UNL     1      -6.619   4.293 -31.163  1.00  0.00     0.256 C 
HETATM    9  H   UNL     1      -3.429   3.975 -29.854  1.00  0.00     0.162 HD
ENDROOT
BRANCH   3  10
HETATM   10  C   UNL     1      -4.746   4.406 -33.995  1.00  0.00     0.145 C 
BRANCH  10  11
HETATM   11  C   UNL     1      -4.046   5.690 -33.623  1.00  0.00     0.220 C 
HETATM   12  N   UNL     1      -2.735   5.753 -34.016  1.00  0.00    -0.355 N 
HETATM   13  H   UNL     1      -2.259   4.928 -34.363  1.00  0.00     0.162 HD
HETATM   14  O   UNL     1      -4.615   6.607 -33.039  1.00  0.00    -0.274 OA
BRANCH  12  15
HETATM   15  C   UNL     1      -1.932   6.942 -33.847  1.00  0.00     0.179 C 
BRANCH  15  16
HETATM   16  C   UNL     1      -1.235   6.862 -32.545  1.00  0.00     0.028 A 
HETATM   17  N   UNL     1      -0.691   5.689 -32.077  1.00  0.00    -0.357 N 
HETATM   18  H   UNL     1      -0.693   4.808 -32.576  1.00  0.00     0.166 HD
HETATM   19  C   UNL     1      -0.163   5.869 -30.819  1.00  0.00     0.043 A 
HETATM   20  C   UNL     1      -0.378   7.204 -30.472  1.00  0.00    -0.005 A 
HETATM   21  C   UNL     1       0.470   4.958 -29.965  1.00  0.00     0.033 A 
HETATM   22  C   UNL     1      -1.042   7.820 -31.569  1.00  0.00     0.040 A 
HETATM   23  C   UNL     1       0.049   7.656 -29.211  1.00  0.00     0.056 A 
HETATM   24  C   UNL     1       0.675   6.753 -28.354  1.00  0.00     0.117 A 
HETATM   25  C   UNL     1       0.888   5.429 -28.717  1.00  0.00     0.044 A 
HETATM   26  F   UNL     1       1.079   7.173 -27.148  1.00  0.00    -0.206 F 
ENDBRANCH  15  16
ENDBRANCH  12  15
ENDBRANCH  10  11
ENDBRANCH   3  10
BRANCH   1  27
HETATM   27  C   UNL     1      -7.429   2.703 -33.020  1.00  0.00     0.277 C 
BRANCH  27  28
HETATM   28  C   UNL     1      -7.366   1.323 -33.620  1.00  0.00     0.001 A 
HETATM   29  C   UNL     1      -7.106   0.228 -32.767  1.00  0.00     0.076 A 
HETATM   30  C   UNL     1      -6.986  -1.068 -33.278  1.00  0.00     0.037 A 
HETATM   31  C   UNL     1      -7.204  -1.305 -34.632  1.00  0.00     0.003 A 
HETATM   32  C   UNL     1      -7.561  -0.255 -35.468  1.00  0.00     0.001 A 
HETATM   33  C   UNL     1      -7.656   1.046 -34.964  1.00  0.00     0.012 A 
BRANCH  29  34
HETATM   34  O   UNL     1      -6.967   0.513 -31.431  1.00  0.00    -0.351 OA
BRANCH  34  35
HETATM   35  C   UNL     1      -6.100  -0.371 -30.706  1.00  0.00     0.171 C 
HETATM   36  C   UNL     1      -4.703   0.221 -30.733  1.00  0.00     0.034 C 
ENDBRANCH  34  35
ENDBRANCH  29  34
ENDBRANCH  27  28
ENDBRANCH   1  27
TORSDOF 8
ENDMDL
MODEL 7
REMARK VINA RESULT:      -8.4      3.502      9.018
REMARK  8 active torsions:
REMARK  status: ('A' for Active; 'I' for Inactive)
REMARK    1  A    between atoms: C_2  and  O_3 
REMARK    2  A    between atoms: O_3  and  C_4 
REMARK    3  A    between atoms: C_5  and  C_6 
REMARK    4  A    between atoms: C_6  and  N_7 
REMARK    5  A    between atoms: C_9  and  C_10 
REMARK    6  A    between atoms: C_10  and  C_11 
REMARK       I    between atoms: C_11  and  N_12 
REMARK    7  A    between atoms: N_12  and  C_13 
REMARK    8  A    between atoms: C_13  and  C_14 
ROOT
HETATM    1  N   UNL     1      -2.958   6.474 -32.347  1.00  0.00    -0.052 N 
HETATM    2  H   UNL     1      -3.388   7.316 -32.756  1.00  0.00     0.281 HD
HETATM    3  C   UNL     1      -3.266   5.460 -33.469  1.00  0.00     0.288 C 
HETATM    4  C   UNL     1      -4.781   5.379 -33.753  1.00  0.00     0.249 C 
HETATM    5  O   UNL     1      -5.231   4.833 -34.755  1.00  0.00    -0.271 OA
HETATM    6  N   UNL     1      -5.618   6.022 -32.875  1.00  0.00    -0.358 N 
HETATM    7  C   UNL     1      -5.299   6.324 -31.483  1.00  0.00     0.150 C 
HETATM    8  C   UNL     1      -3.804   6.315 -31.111  1.00  0.00     0.256 C 
HETATM    9  H   UNL     1      -6.600   5.898 -33.109  1.00  0.00     0.162 HD
ENDROOT
BRANCH   3  10
HETATM   10  C   UNL     1      -2.646   4.064 -33.377  1.00  0.00     0.145 C 
BRANCH  10  11
HETATM   11  C   UNL     1      -3.190   3.207 -32.260  1.00  0.00     0.220 C 
HETATM   12  N   UNL     1      -4.426   2.672 -32.510  1.00  0.00    -0.355 N 
HETATM   13  H   UNL     1      -4.975   2.985 -33.303  1.00  0.00     0.162 HD
HETATM   14  O   UNL     1      -2.563   2.992 -31.228  1.00  0.00    -0.274 OA
BRANCH  12  15
HETATM   15  C   UNL     1      -5.062   1.738 -31.609  1.00  0.00     0.179 C 
BRANCH  15  16
HETATM   16  C   UNL     1      -5.325   0.479 -32.339  1.00  0.00     0.028 A 
HETATM   17  N   UNL     1      -4.340  -0.455 -32.563  1.00  0.00    -0.357 N 
HETATM   18  H   UNL     1      -3.385  -0.383 -32.237  1.00  0.00     0.166 HD
HETATM   19  C   UNL     1      -4.827  -1.497 -33.319  1.00  0.00     0.043 A 
HETATM   20  C   UNL     1      -6.168  -1.217 -33.587  1.00  0.00    -0.005 A 
HETATM   21  C   UNL     1      -4.184  -2.648 -33.793  1.00  0.00     0.033 A 
HETATM   22  C   UNL     1      -6.471   0.020 -32.957  1.00  0.00     0.040 A 
HETATM   23  C   UNL     1      -6.907  -2.120 -34.372  1.00  0.00     0.056 A 
HETATM   24  C   UNL     1      -6.272  -3.264 -34.851  1.00  0.00     0.117 A 
HETATM   25  C   UNL     1      -4.938  -3.532 -34.570  1.00  0.00     0.044 A 
HETATM   26  F   UNL     1      -6.966  -4.127 -35.606  1.00  0.00    -0.206 F 
ENDBRANCH  15  16
ENDBRANCH  12  15
ENDBRANCH  10  11
ENDBRANCH   3  10
BRANCH   1  27
HETATM   27  C   UNL     1      -1.538   6.951 -32.157  1.00  0.00     0.277 C 
BRANCH  27  28
HETATM   28  C   UNL     1      -0.739   6.546 -30.946  1.00  0.00     0.001 A 
HETATM   29  C   UNL     1      -0.687   7.429 -29.846  1.00  0.00     0.076 A 
HETATM   30  C   UNL     1       0.081   7.127 -28.717  1.00  0.00     0.037 A 
HETATM   31  C   UNL     1       0.741   5.904 -28.632  1.00  0.00     0.003 A 
HETATM   32  C   UNL     1       0.618   4.980 -29.661  1.00  0.00     0.001 A 
HETATM   33  C   UNL     1      -0.129   5.291 -30.802  1.00  0.00     0.012 A 
BRANCH  29  34
HETATM   34  O   UNL     1      -1.412   8.590 -29.958  1.00  0.00    -0.351 OA
BRANCH  34  35
HETATM   35  C   UNL     1      -2.093   9.001 -28.764  1.00  0.00     0.171 C 
HETATM   36  C   UNL     1      -3.442   9.568 -29.168  1.00  0.00     0.034 C 
ENDBRANCH  34  35
ENDBRANCH  29  34
ENDBRANCH  27  28
ENDBRANCH   1  27
TORSDOF 8
ENDMDL
MODEL 8
REMARK VINA RESULT:      -8.3      3.989      7.630
REMARK  8 active torsions:
REMARK  status: ('A' for Active; 'I' for Inactive)
REMARK    1  A    between atoms: C_2  and  O_3 
REMARK    2  A    between atoms: O_3  and  C_4 
REMARK    3  A    between atoms: C_5  and  C_6 
REMARK    4  A    between atoms: C_6  and  N_7 
REMARK    5  A    between atoms: C_9  and  C_10 
REMARK    6  A    between atoms: C_10  and  C_11 
REMARK       I    between atoms: C_11  and  N_12 
REMARK    7  A    between atoms: N_12  and  C_13 
REMARK    8  A    between atoms: C_13  and  C_14 
ROOT
HETATM    1  N   UNL     1      -6.565   3.848 -32.986  1.00  0.00    -0.052 N 
HETATM    2  H   UNL     1      -7.508   4.060 -32.632  1.00  0.00     0.281 HD
HETATM    3  C   UNL     1      -5.826   3.649 -31.646  1.00  0.00     0.288 C 
HETATM    4  C   UNL     1      -5.948   4.898 -30.747  1.00  0.00     0.249 C 
HETATM    5  O   UNL     1      -5.656   4.877 -29.556  1.00  0.00    -0.271 OA
HETATM    6  N   UNL     1      -6.482   6.028 -31.314  1.00  0.00    -0.358 N 
HETATM    7  C   UNL     1      -6.472   6.333 -32.741  1.00  0.00     0.150 C 
HETATM    8  C   UNL     1      -6.247   5.141 -33.691  1.00  0.00     0.256 C 
HETATM    9  H   UNL     1      -6.502   6.816 -30.671  1.00  0.00     0.162 HD
ENDROOT
BRANCH   3  10
HETATM   10  C   UNL     1      -4.388   3.131 -31.679  1.00  0.00     0.145 C 
BRANCH  10  11
HETATM   11  C   UNL     1      -4.212   1.727 -31.153  1.00  0.00     0.220 C 
HETATM   12  N   UNL     1      -3.271   0.988 -31.821  1.00  0.00    -0.355 N 
HETATM   13  H   UNL     1      -2.876   1.320 -32.694  1.00  0.00     0.162 HD
HETATM   14  O   UNL     1      -4.843   1.298 -30.193  1.00  0.00    -0.274 OA
BRANCH  12  15
HETATM   15  C   UNL     1      -2.884  -0.338 -31.397  1.00  0.00     0.179 C 
BRANCH  15  16
HETATM   16  C   UNL     1      -3.606  -1.329 -32.224  1.00  0.00     0.028 A 
HETATM   17  N   UNL     1      -3.182  -2.633 -32.339  1.00  0.00    -0.357 N 
HETATM   18  H   UNL     1      -2.380  -3.028 -31.863  1.00  0.00     0.166 HD
HETATM   19  C   UNL     1      -3.985  -3.326 -33.216  1.00  0.00     0.043 A 
HETATM   20  C   UNL     1      -4.954  -2.433 -33.676  1.00  0.00    -0.005 A 
HETATM   21  C   UNL     1      -3.919  -4.658 -33.642  1.00  0.00     0.033 A 
HETATM   22  C   UNL     1      -4.712  -1.186 -33.037  1.00  0.00     0.040 A 
HETATM   23  C   UNL     1      -5.901  -2.882 -34.613  1.00  0.00     0.056 A 
HETATM   24  C   UNL     1      -5.838  -4.206 -35.046  1.00  0.00     0.117 A 
HETATM   25  C   UNL     1      -4.871  -5.084 -34.573  1.00  0.00     0.044 A 
HETATM   26  F   UNL     1      -6.732  -4.641 -35.944  1.00  0.00    -0.206 F 
ENDBRANCH  15  16
ENDBRANCH  12  15
ENDBRANCH  10  11
ENDBRANCH   3  10
BRANCH   1  27
HETATM   27  C   UNL     1      -6.857   2.644 -33.850  1.00  0.00     0.277 C 
BRANCH  27  28
HETATM   28  C   UNL     1      -8.058   1.773 -33.588  1.00  0.00     0.001 A 
HETATM   29  C   UNL     1      -9.344   2.316 -33.801  1.00  0.00     0.076 A 
HETATM   30  C   UNL     1     -10.493   1.570 -33.525  1.00  0.00     0.037 A 
HETATM   31  C   UNL     1     -10.381   0.245 -33.112  1.00  0.00     0.003 A 
HETATM   32  C   UNL     1      -9.125  -0.337 -32.996  1.00  0.00     0.001 A 
HETATM   33  C   UNL     1      -7.973   0.416 -33.247  1.00  0.00     0.012 A 
BRANCH  29  34
HETATM   34  O   UNL     1      -9.393   3.605 -34.273  1.00  0.00    -0.351 OA
BRANCH  34  35
HETATM   35  C   UNL     1     -10.394   4.438 -33.669  1.00  0.00     0.171 C 
HETATM   36  C   UNL     1      -9.885   4.860 -32.303  1.00  0.00     0.034 C 
ENDBRANCH  34  35
ENDBRANCH  29  34
ENDBRANCH  27  28
ENDBRANCH   1  27
TORSDOF 8
ENDMDL
MODEL 9
REMARK VINA RESULT:      -8.3      3.432      9.360
REMARK  8 active torsions:
REMARK  status: ('A' for Active; 'I' for Inactive)
REMARK    1  A    between atoms: C_2  and  O_3 
REMARK    2  A    between atoms: O_3  and  C_4 
REMARK    3  A    between atoms: C_5  and  C_6 
REMARK    4  A    between atoms: C_6  and  N_7 
REMARK    5  A    between atoms: C_9  and  C_10 
REMARK    6  A    between atoms: C_10  and  C_11 
REMARK       I    between atoms: C_11  and  N_12 
REMARK    7  A    between atoms: N_12  and  C_13 
REMARK    8  A    between atoms: C_13  and  C_14 
ROOT
HETATM    1  N   UNL     1      -2.278   6.545 -31.165  1.00  0.00    -0.052 N 
HETATM    2  H   UNL     1      -1.311   6.200 -31.084  1.00  0.00     0.281 HD
HETATM    3  C   UNL     1      -2.999   5.214 -31.468  1.00  0.00     0.288 C 
HETATM    4  C   UNL     1      -2.414   4.532 -32.724  1.00  0.00     0.249 C 
HETATM    5  O   UNL     1      -2.659   3.364 -33.007  1.00  0.00    -0.271 OA
HETATM    6  N   UNL     1      -1.530   5.262 -33.479  1.00  0.00    -0.358 N 
HETATM    7  C   UNL     1      -1.474   6.719 -33.525  1.00  0.00     0.150 C 
HETATM    8  C   UNL     1      -2.136   7.464 -32.350  1.00  0.00     0.256 C 
HETATM    9  H   UNL     1      -1.212   4.759 -34.304  1.00  0.00     0.162 HD
ENDROOT
BRANCH   3  10
HETATM   10  C   UNL     1      -4.528   5.207 -31.498  1.00  0.00     0.145 C 
BRANCH  10  11
HETATM   11  C   UNL     1      -5.170   4.153 -30.630  1.00  0.00     0.220 C 
HETATM   12  N   UNL     1      -5.354   2.946 -31.251  1.00  0.00    -0.355 N 
HETATM   13  H   UNL     1      -5.226   2.854 -32.253  1.00  0.00     0.162 HD
HETATM   14  O   UNL     1      -5.475   4.358 -29.460  1.00  0.00    -0.274 OA
BRANCH  12  15
HETATM   15  C   UNL     1      -5.853   1.783 -30.552  1.00  0.00     0.179 C 
BRANCH  15  16
HETATM   16  C   UNL     1      -5.879   0.641 -31.491  1.00  0.00     0.028 A 
HETATM   17  N   UNL     1      -4.737  -0.039 -31.848  1.00  0.00    -0.357 N 
HETATM   18  H   UNL     1      -3.810   0.156 -31.492  1.00  0.00     0.166 HD
HETATM   19  C   UNL     1      -5.025  -1.009 -32.781  1.00  0.00     0.043 A 
HETATM   20  C   UNL     1      -6.398  -0.945 -33.028  1.00  0.00    -0.005 A 
HETATM   21  C   UNL     1      -4.181  -1.919 -33.429  1.00  0.00     0.033 A 
HETATM   22  C   UNL     1      -6.924   0.086 -32.203  1.00  0.00     0.040 A 
HETATM   23  C   UNL     1      -6.960  -1.823 -33.971  1.00  0.00     0.056 A 
HETATM   24  C   UNL     1      -6.124  -2.728 -34.623  1.00  0.00     0.117 A 
HETATM   25  C   UNL     1      -4.761  -2.784 -34.361  1.00  0.00     0.044 A 
HETATM   26  F   UNL     1      -6.650  -3.564 -35.528  1.00  0.00    -0.206 F 
ENDBRANCH  15  16
ENDBRANCH  12  15
ENDBRANCH  10  11
ENDBRANCH   3  10
BRANCH   1  27
HETATM   27  C   UNL     1      -2.460   7.187 -29.810  1.00  0.00     0.277 C 
BRANCH  27  28
HETATM   28  C   UNL     1      -1.274   7.651 -29.006  1.00  0.00     0.001 A 
HETATM   29  C   UNL     1      -0.237   6.730 -28.740  1.00  0.00     0.076 A 
HETATM   30  C   UNL     1       0.863   7.092 -27.957  1.00  0.00     0.037 A 
HETATM   31  C   UNL     1       0.987   8.399 -27.495  1.00  0.00     0.003 A 
HETATM   32  C   UNL     1       0.027   9.345 -27.832  1.00  0.00     0.001 A 
HETATM   33  C   UNL     1      -1.086   8.978 -28.594  1.00  0.00     0.012 A 
BRANCH  29  34
HETATM   34  O   UNL     1      -0.381   5.475 -29.279  1.00  0.00    -0.351 OA
BRANCH  34  35
HETATM   35  C   UNL     1       0.846   4.818 -29.632  1.00  0.00     0.171 C 
HETATM   36  C   UNL     1       1.117   5.096 -31.099  1.00  0.00     0.034 C 
ENDBRANCH  34  35
ENDBRANCH  29  34
ENDBRANCH  27  28
ENDBRANCH   1  27
TORSDOF 8
ENDMDL
MODEL 10
REMARK VINA RESULT:      -8.2      3.384      8.645
REMARK  8 active torsions:
REMARK  status: ('A' for Active; 'I' for Inactive)
REMARK    1  A    between atoms: C_2  and  O_3 
REMARK    2  A    between atoms: O_3  and  C_4 
REMARK    3  A    between atoms: C_5  and  C_6 
REMARK    4  A    between atoms: C_6  and  N_7 
REMARK    5  A    between atoms: C_9  and  C_10 
REMARK    6  A    between atoms: C_10  and  C_11 
REMARK       I    between atoms: C_11  and  N_12 
REMARK    7  A    between atoms: N_12  and  C_13 
REMARK    8  A    between atoms: C_13  and  C_14 
ROOT
HETATM    1  N   UNL     1      -4.475   5.332 -31.740  1.00  0.00    -0.052 N 
HETATM    2  H   UNL     1      -4.127   5.962 -32.476  1.00  0.00     0.281 HD
HETATM    3  C   UNL     1      -5.563   4.584 -32.538  1.00  0.00     0.288 C 
HETATM    4  C   UNL     1      -6.595   5.565 -33.136  1.00  0.00     0.249 C 
HETATM    5  O   UNL     1      -7.396   5.225 -34.000  1.00  0.00    -0.271 OA
HETATM    6  N   UNL     1      -6.530   6.872 -32.722  1.00  0.00    -0.358 N 
HETATM    7  C   UNL     1      -5.961   7.321 -31.455  1.00  0.00     0.150 C 
HETATM    8  C   UNL     1      -5.004   6.339 -30.752  1.00  0.00     0.256 C 
HETATM    9  H   UNL     1      -7.259   7.449 -33.134  1.00  0.00     0.162 HD
ENDROOT
BRANCH   3  10
HETATM   10  C   UNL     1      -6.255   3.389 -31.880  1.00  0.00     0.145 C 
BRANCH  10  11
HETATM   11  C   UNL     1      -5.357   2.202 -31.629  1.00  0.00     0.220 C 
HETATM   12  N   UNL     1      -4.631   1.803 -32.720  1.00  0.00    -0.355 N 
HETATM   13  H   UNL     1      -4.833   2.176 -33.641  1.00  0.00     0.162 HD
HETATM   14  O   UNL     1      -5.270   1.661 -30.531  1.00  0.00    -0.274 OA
BRANCH  12  15
HETATM   15  C   UNL     1      -3.637   0.756 -32.648  1.00  0.00     0.179 C 
BRANCH  15  16
HETATM   16  C   UNL     1      -4.239  -0.503 -33.138  1.00  0.00     0.028 A 
HETATM   17  N   UNL     1      -3.580  -1.708 -33.057  1.00  0.00    -0.357 N 
HETATM   18  H   UNL     1      -2.666  -1.844 -32.644  1.00  0.00     0.166 HD
HETATM   19  C   UNL     1      -4.326  -2.706 -33.642  1.00  0.00     0.043 A 
HETATM   20  C   UNL     1      -5.501  -2.116 -34.113  1.00  0.00    -0.005 A 
HETATM   21  C   UNL     1      -4.047  -4.069 -33.801  1.00  0.00     0.033 A 
HETATM   22  C   UNL     1      -5.439  -0.736 -33.780  1.00  0.00     0.040 A 
HETATM   23  C   UNL     1      -6.442  -2.918 -34.782  1.00  0.00     0.056 A 
HETATM   24  C   UNL     1      -6.168  -4.274 -34.948  1.00  0.00     0.117 A 
HETATM   25  C   UNL     1      -4.997  -4.847 -34.467  1.00  0.00     0.044 A 
HETATM   26  F   UNL     1      -7.056  -5.045 -35.591  1.00  0.00    -0.206 F 
ENDBRANCH  15  16
ENDBRANCH  12  15
ENDBRANCH  10  11
ENDBRANCH   3  10
BRANCH   1  27
HETATM   27  C   UNL     1      -3.203   4.604 -31.372  1.00  0.00     0.277 C 
BRANCH  27  28
HETATM   28  C   UNL     1      -1.884   5.328 -31.317  1.00  0.00     0.001 A 
HETATM   29  C   UNL     1      -1.602   6.295 -32.307  1.00  0.00     0.076 A 
HETATM   30  C   UNL     1      -0.373   6.959 -32.333  1.00  0.00     0.037 A 
HETATM   31  C   UNL     1       0.563   6.733 -31.327  1.00  0.00     0.003 A 
HETATM   32  C   UNL     1       0.262   5.861 -30.288  1.00  0.00     0.001 A 
HETATM   33  C   UNL     1      -0.957   5.176 -30.274  1.00  0.00     0.012 A 
BRANCH  29  34
HETATM   34  O   UNL     1      -2.589   6.526 -33.233  1.00  0.00    -0.351 OA
BRANCH  34  35
HETATM   35  C   UNL     1      -2.240   6.205 -34.588  1.00  0.00     0.171 C 
HETATM   36  C   UNL     1      -3.293   5.255 -35.128  1.00  0.00     0.034 C 
ENDBRANCH  34  35
ENDBRANCH  29  34
ENDBRANCH  27  28
ENDBRANCH   1  27
TORSDOF 8
ENDMDL
