MODEL 1
REMARK VINA RESULT:      -8.7      0.000      0.000
REMARK  9 active torsions:
REMARK  status: ('A' for Active; 'I' for Inactive)
REMARK    1  A    between atoms: C_4  and  C_5 
REMARK    2  A    between atoms: C_8  and  C_9 
REMARK       I    between atoms: C_9  and  N_10 
REMARK    3  A    between atoms: N_10  and  C_11 
REMARK    4  A    between atoms: N_10  and  C_26 
REMARK    5  A    between atoms: C_11  and  C_12 
REMARK    6  A    between atoms: C_11  and  C_21 
REMARK       I    between atoms: C_12  and  N_13 
REMARK    7  A    between atoms: N_13  and  C_14 
REMARK    8  A    between atoms: C_14  and  C_15 
REMARK    9  A    between atoms: C_26  and  C_27 
ROOT
HETATM    1  C   UNL     1      -5.150   2.248 -30.652  1.00  0.00     0.271 C 
HETATM    2  N   UNL     1      -5.035   3.541 -31.176  1.00  0.00    -0.324 N 
HETATM    3  O   UNL     1      -5.703   2.053 -29.568  1.00  0.00    -0.266 OA
ENDROOT
BRANCH   2   4
HETATM    4  C   UNL     1      -5.341   4.710 -30.315  1.00  0.00     0.220 C 
BRANCH   4   5
HETATM    5  C   UNL     1      -4.501   5.991 -30.618  1.00  0.00     0.245 C 
HETATM    6  N   UNL     1      -3.186   5.970 -30.211  1.00  0.00    -0.357 N 
HETATM    7  H   UNL     1      -2.789   5.048 -30.030  1.00  0.00     0.162 HD
HETATM    8  O   UNL     1      -4.962   6.926 -31.275  1.00  0.00    -0.271 OA
BRANCH   6   9
HETATM    9  C   UNL     1      -2.244   7.031 -30.518  1.00  0.00     0.154 C 
BRANCH   9  10
HETATM   10  C   UNL     1      -0.798   6.713 -30.126  1.00  0.00     0.139 C 
HETATM   11  O   UNL     1      -0.604   6.823 -28.700  1.00  0.00    -0.384 OA
HETATM   12  C   UNL     1       0.386   5.859 -28.310  1.00  0.00     0.168 C 
HETATM   13  C   UNL     1       0.776   5.076 -29.549  1.00  0.00     0.029 C 
HETATM   14  C   UNL     1      -0.408   5.283 -30.459  1.00  0.00     0.035 C 
ENDBRANCH   9  10
ENDBRANCH   6   9
ENDBRANCH   4   5
BRANCH   4  15
HETATM   15  C   UNL     1      -6.826   5.045 -30.207  1.00  0.00     0.014 A 
HETATM   16  S   UNL     1      -7.467   5.861 -28.829  1.00  0.00    -0.104 SA
HETATM   17  C   UNL     1      -9.043   5.899 -29.479  1.00  0.00     0.050 A 
HETATM   18  C   UNL     1      -9.094   5.344 -30.735  1.00  0.00     0.008 A 
HETATM   19  C   UNL     1      -7.823   4.860 -31.155  1.00  0.00     0.017 A 
ENDBRANCH   4  15
ENDBRANCH   2   4
BRANCH   2  20
HETATM   20  C   UNL     1      -5.253   3.756 -32.609  1.00  0.00     0.173 C 
BRANCH  20  21
HETATM   21  C   UNL     1      -4.004   4.224 -33.310  1.00  0.00     0.000 A 
HETATM   22  S   UNL     1      -4.178   5.176 -34.733  1.00  0.00    -0.105 SA
HETATM   23  C   UNL     1      -2.488   5.310 -34.940  1.00  0.00     0.050 A 
HETATM   24  C   UNL     1      -1.795   4.656 -33.948  1.00  0.00     0.008 A 
HETATM   25  C   UNL     1      -2.668   4.039 -33.006  1.00  0.00     0.017 A 
ENDBRANCH  20  21
ENDBRANCH   2  20
BRANCH   1  26
HETATM   26  C   UNL     1      -4.635   1.144 -31.434  1.00  0.00     0.101 A 
HETATM   27  N   UNL     1      -5.388   0.194 -32.088  1.00  0.00    -0.351 N 
HETATM   28  C   UNL     1      -4.586  -0.701 -32.764  1.00  0.00     0.043 A 
HETATM   29  H   UNL     1      -6.399   0.179 -32.102  1.00  0.00     0.166 HD
HETATM   30  C   UNL     1      -3.283  -0.279 -32.563  1.00  0.00     0.033 A 
HETATM   31  C   UNL     1      -3.315   0.879 -31.753  1.00  0.00     0.037 A 
BRANCH  28  32
HETATM   32  C   UNL     1      -5.113  -1.820 -33.553  1.00  0.00    -0.009 A 
HETATM   33  C   UNL     1      -6.442  -1.806 -34.000  1.00  0.00     0.013 A 
HETATM   34  C   UNL     1      -6.956  -2.863 -34.756  1.00  0.00     0.001 A 
HETATM   35  C   UNL     1      -6.146  -3.950 -35.076  1.00  0.00     0.000 A 
HETATM   36  C   UNL     1      -4.823  -3.978 -34.642  1.00  0.00     0.001 A 
HETATM   37  C   UNL     1      -4.310  -2.920 -33.885  1.00  0.00     0.013 A 
ENDBRANCH  28  32
ENDBRANCH   1  26
TORSDOF 9
ENDMDL
MODEL 2
REMARK VINA RESULT:      -8.7      2.429      3.670
REMARK  9 active torsions:
REMARK  status: ('A' for Active; 'I' for Inactive)
REMARK    1  A    between atoms: C_4  and  C_5 
REMARK    2  A    between atoms: C_8  and  C_9 
REMARK       I    between atoms: C_9  and  N_10 
REMARK    3  A    between atoms: N_10  and  C_11 
REMARK    4  A    between atoms: N_10  and  C_26 
REMARK    5  A    between atoms: C_11  and  C_12 
REMARK    6  A    between atoms: C_11  and  C_21 
REMARK       I    between atoms: C_12  and  N_13 
REMARK    7  A    between atoms: N_13  and  C_14 
REMARK    8  A    between atoms: C_14  and  C_15 
REMARK    9  A    between atoms: C_26  and  C_27 
ROOT
HETATM    1  C   UNL     1      -4.253   2.290 -32.350  1.00  0.00     0.271 C 
HETATM    2  N   UNL     1      -5.543   2.826 -32.431  1.00  0.00    -0.324 N 
HETATM    3  O   UNL     1      -3.269   3.025 -32.243  1.00  0.00    -0.266 OA
ENDROOT
BRANCH   2   4
HETATM    4  C   UNL     1      -5.719   4.283 -32.655  1.00  0.00     0.220 C 
BRANCH   4   5
HETATM    5  C   UNL     1      -4.843   4.886 -33.797  1.00  0.00     0.245 C 
HETATM    6  N   UNL     1      -3.816   5.716 -33.408  1.00  0.00    -0.357 N 
HETATM    7  H   UNL     1      -3.520   5.634 -32.434  1.00  0.00     0.162 HD
HETATM    8  O   UNL     1      -4.999   4.555 -34.974  1.00  0.00    -0.271 OA
BRANCH   6   9
HETATM    9  C   UNL     1      -2.843   6.264 -34.336  1.00  0.00     0.154 C 
BRANCH   9  10
HETATM   10  C   UNL     1      -1.634   6.914 -33.658  1.00  0.00     0.139 C 
HETATM   11  O   UNL     1      -2.017   8.091 -32.916  1.00  0.00    -0.384 OA
HETATM   12  C   UNL     1      -1.151   8.200 -31.776  1.00  0.00     0.168 C 
HETATM   13  C   UNL     1      -0.228   6.997 -31.785  1.00  0.00     0.029 C 
HETATM   14  C   UNL     1      -0.985   6.004 -32.630  1.00  0.00     0.035 C 
ENDBRANCH   9  10
ENDBRANCH   6   9
ENDBRANCH   4   5
BRANCH   4  15
HETATM   15  C   UNL     1      -7.171   4.731 -32.786  1.00  0.00     0.014 A 
HETATM   16  S   UNL     1      -8.030   5.406 -31.451  1.00  0.00    -0.104 SA
HETATM   17  C   UNL     1      -9.435   5.673 -32.380  1.00  0.00     0.050 A 
HETATM   18  C   UNL     1      -9.263   5.301 -33.691  1.00  0.00     0.008 A 
HETATM   19  C   UNL     1      -7.964   4.766 -33.926  1.00  0.00     0.017 A 
ENDBRANCH   4  15
ENDBRANCH   2   4
BRANCH   2  20
HETATM   20  C   UNL     1      -6.637   2.177 -31.703  1.00  0.00     0.173 C 
BRANCH  20  21
HETATM   21  C   UNL     1      -7.678   1.608 -32.631  1.00  0.00     0.000 A 
HETATM   22  S   UNL     1      -9.310   1.553 -32.086  1.00  0.00    -0.105 SA
HETATM   23  C   UNL     1      -9.851   0.845 -33.544  1.00  0.00     0.050 A 
HETATM   24  C   UNL     1      -8.822   0.658 -34.437  1.00  0.00     0.008 A 
HETATM   25  C   UNL     1      -7.575   1.106 -33.915  1.00  0.00     0.017 A 
ENDBRANCH  20  21
ENDBRANCH   2  20
BRANCH   1  26
HETATM   26  C   UNL     1      -4.108   0.849 -32.357  1.00  0.00     0.101 A 
HETATM   27  N   UNL     1      -4.757  -0.026 -33.198  1.00  0.00    -0.351 N 
HETATM   28  C   UNL     1      -4.371  -1.329 -32.958  1.00  0.00     0.043 A 
HETATM   29  H   UNL     1      -5.405   0.253 -33.923  1.00  0.00     0.166 HD
HETATM   30  C   UNL     1      -3.415  -1.269 -31.959  1.00  0.00     0.033 A 
HETATM   31  C   UNL     1      -3.237   0.086 -31.599  1.00  0.00     0.037 A 
BRANCH  28  32
HETATM   32  C   UNL     1      -4.896  -2.476 -33.706  1.00  0.00    -0.009 A 
HETATM   33  C   UNL     1      -4.157  -3.665 -33.789  1.00  0.00     0.013 A 
HETATM   34  C   UNL     1      -4.647  -4.767 -34.494  1.00  0.00     0.001 A 
HETATM   35  C   UNL     1      -5.886  -4.696 -35.126  1.00  0.00     0.000 A 
HETATM   36  C   UNL     1      -6.634  -3.523 -35.051  1.00  0.00     0.001 A 
HETATM   37  C   UNL     1      -6.142  -2.421 -34.346  1.00  0.00     0.013 A 
ENDBRANCH  28  32
ENDBRANCH   1  26
TORSDOF 9
ENDMDL
MODEL 3
REMARK VINA RESULT:      -8.5      2.280      3.446
REMARK  9 active torsions:
REMARK  status: ('A' for Active; 'I' for Inactive)
REMARK    1  A    between atoms: C_4  and  C_5 
REMARK    2  A    between atoms: C_8  and  C_9 
REMARK       I    between atoms: C_9  and  N_10 
REMARK    3  A    between atoms: N_10  and  C_11 
REMARK    4  A    between atoms: N_10  and  C_26 
REMARK    5  A    between atoms: C_11  and  C_12 
REMARK    6  A    between atoms: C_11  and  C_21 
REMARK       I    between atoms: C_12  and  N_13 
REMARK    7  A    between atoms: N_13  and  C_14 
REMARK    8  A    between atoms: C_14  and  C_15 
REMARK    9  A    between atoms: C_26  and  C_27 
ROOT
HETATM    1  C   UNL     1      -5.224   2.553 -32.695  1.00  0.00     0.271 C 
HETATM    2  N   UNL     1      -6.149   3.177 -31.850  1.00  0.00    -0.324 N 
HETATM    3  O   UNL     1      -4.046   2.914 -32.719  1.00  0.00    -0.266 OA
ENDROOT
BRANCH   2   4
HETATM    4  C   UNL     1      -5.783   4.446 -31.173  1.00  0.00     0.220 C 
BRANCH   4   5
HETATM    5  C   UNL     1      -5.090   5.506 -32.087  1.00  0.00     0.245 C 
HETATM    6  N   UNL     1      -3.803   5.856 -31.749  1.00  0.00    -0.357 N 
HETATM    7  H   UNL     1      -3.306   5.203 -31.143  1.00  0.00     0.162 HD
HETATM    8  O   UNL     1      -5.630   5.927 -33.111  1.00  0.00    -0.271 OA
BRANCH   6   9
HETATM    9  C   UNL     1      -2.982   6.738 -32.559  1.00  0.00     0.154 C 
BRANCH   9  10
HETATM   10  C   UNL     1      -1.478   6.483 -32.430  1.00  0.00     0.139 C 
HETATM   11  O   UNL     1      -0.847   7.476 -31.595  1.00  0.00    -0.384 OA
HETATM   12  C   UNL     1       0.245   6.848 -30.903  1.00  0.00     0.168 C 
HETATM   13  C   UNL     1       0.246   5.381 -31.288  1.00  0.00     0.029 C 
HETATM   14  C   UNL     1      -1.170   5.158 -31.754  1.00  0.00     0.035 C 
ENDBRANCH   9  10
ENDBRANCH   6   9
ENDBRANCH   4   5
BRANCH   4  15
HETATM   15  C   UNL     1      -6.911   5.078 -30.363  1.00  0.00     0.014 A 
HETATM   16  S   UNL     1      -6.824   5.205 -28.645  1.00  0.00    -0.104 SA
HETATM   17  C   UNL     1      -8.321   6.015 -28.544  1.00  0.00     0.050 A 
HETATM   18  C   UNL     1      -8.873   6.231 -29.783  1.00  0.00     0.008 A 
HETATM   19  C   UNL     1      -8.063   5.699 -30.827  1.00  0.00     0.017 A 
ENDBRANCH   4  15
ENDBRANCH   2   4
BRANCH   2  20
HETATM   20  C   UNL     1      -7.136   2.360 -31.138  1.00  0.00     0.173 C 
BRANCH  20  21
HETATM   21  C   UNL     1      -8.401   2.173 -31.934  1.00  0.00     0.000 A 
HETATM   22  S   UNL     1      -9.117   0.609 -31.967  1.00  0.00    -0.105 SA
HETATM   23  C   UNL     1     -10.391   1.133 -32.976  1.00  0.00     0.050 A 
HETATM   24  C   UNL     1     -10.291   2.470 -33.280  1.00  0.00     0.008 A 
HETATM   25  C   UNL     1      -9.150   3.070 -32.672  1.00  0.00     0.017 A 
ENDBRANCH  20  21
ENDBRANCH   2  20
BRANCH   1  26
HETATM   26  C   UNL     1      -5.679   1.447 -33.511  1.00  0.00     0.101 A 
HETATM   27  N   UNL     1      -5.303   0.130 -33.373  1.00  0.00    -0.351 N 
HETATM   28  C   UNL     1      -5.944  -0.673 -34.294  1.00  0.00     0.043 A 
HETATM   29  H   UNL     1      -4.668  -0.211 -32.663  1.00  0.00     0.166 HD
HETATM   30  C   UNL     1      -6.785   0.161 -35.012  1.00  0.00     0.033 A 
HETATM   31  C   UNL     1      -6.635   1.475 -34.512  1.00  0.00     0.037 A 
BRANCH  28  32
HETATM   32  C   UNL     1      -5.740  -2.123 -34.381  1.00  0.00    -0.009 A 
HETATM   33  C   UNL     1      -6.792  -2.962 -34.775  1.00  0.00     0.013 A 
HETATM   34  C   UNL     1      -6.611  -4.345 -34.866  1.00  0.00     0.001 A 
HETATM   35  C   UNL     1      -5.374  -4.907 -34.564  1.00  0.00     0.000 A 
HETATM   36  C   UNL     1      -4.318  -4.087 -34.173  1.00  0.00     0.001 A 
HETATM   37  C   UNL     1      -4.500  -2.704 -34.082  1.00  0.00     0.013 A 
ENDBRANCH  28  32
ENDBRANCH   1  26
TORSDOF 9
ENDMDL
MODEL 4
REMARK VINA RESULT:      -8.4      2.597      4.316
REMARK  9 active torsions:
REMARK  status: ('A' for Active; 'I' for Inactive)
REMARK    1  A    between atoms: C_4  and  C_5 
REMARK    2  A    between atoms: C_8  and  C_9 
REMARK       I    between atoms: C_9  and  N_10 
REMARK    3  A    between atoms: N_10  and  C_11 
REMARK    4  A    between atoms: N_10  and  C_26 
REMARK    5  A    between atoms: C_11  and  C_12 
REMARK    6  A    between atoms: C_11  and  C_21 
REMARK       I    between atoms: C_12  and  N_13 
REMARK    7  A    between atoms: N_13  and  C_14 
REMARK    8  A    between atoms: C_14  and  C_15 
REMARK    9  A    between atoms: C_26  and  C_27 
ROOT
HETATM    1  C   UNL     1      -6.284   2.466 -32.721  1.00  0.00     0.271 C 
HETATM    2  N   UNL     1      -7.350   2.758 -31.862  1.00  0.00    -0.324 N 
HETATM    3  O   UNL     1      -5.248   3.132 -32.692  1.00  0.00    -0.266 OA
ENDROOT
BRANCH   2   4
HETATM    4  C   UNL     1      -7.347   4.031 -31.098  1.00  0.00     0.220 C 
BRANCH   4   5
HETATM    5  C   UNL     1      -5.945   4.495 -30.593  1.00  0.00     0.245 C 
HETATM    6  N   UNL     1      -5.375   5.557 -31.258  1.00  0.00    -0.357 N 
HETATM    7  H   UNL     1      -6.014   6.137 -31.803  1.00  0.00     0.162 HD
HETATM    8  O   UNL     1      -5.424   4.003 -29.590  1.00  0.00    -0.271 OA
BRANCH   6   9
HETATM    9  C   UNL     1      -4.133   6.181 -30.841  1.00  0.00     0.154 C 
BRANCH   9  10
HETATM   10  C   UNL     1      -3.002   6.062 -31.866  1.00  0.00     0.139 C 
HETATM   11  O   UNL     1      -2.406   4.748 -31.841  1.00  0.00    -0.384 OA
HETATM   12  C   UNL     1      -1.975   4.429 -33.174  1.00  0.00     0.168 C 
HETATM   13  C   UNL     1      -2.381   5.581 -34.074  1.00  0.00     0.029 C 
HETATM   14  C   UNL     1      -3.491   6.237 -33.293  1.00  0.00     0.035 C 
ENDBRANCH   9  10
ENDBRANCH   6   9
ENDBRANCH   4   5
BRANCH   4  15
HETATM   15  C   UNL     1      -8.089   5.178 -31.778  1.00  0.00     0.014 A 
HETATM   16  S   UNL     1      -8.809   6.451 -30.864  1.00  0.00    -0.104 SA
HETATM   17  C   UNL     1      -9.329   7.276 -32.263  1.00  0.00     0.050 A 
HETATM   18  C   UNL     1      -8.937   6.635 -33.413  1.00  0.00     0.008 A 
HETATM   19  C   UNL     1      -8.222   5.435 -33.136  1.00  0.00     0.017 A 
ENDBRANCH   4  15
ENDBRANCH   2   4
BRANCH   2  20
HETATM   20  C   UNL     1      -8.084   1.660 -31.228  1.00  0.00     0.173 C 
BRANCH  20  21
HETATM   21  C   UNL     1      -9.265   1.215 -32.052  1.00  0.00     0.000 A 
HETATM   22  S   UNL     1     -10.307   2.423 -32.697  1.00  0.00    -0.105 SA
HETATM   23  C   UNL     1     -11.317   1.262 -33.438  1.00  0.00     0.050 A 
HETATM   24  C   UNL     1     -10.875  -0.021 -33.214  1.00  0.00     0.008 A 
HETATM   25  C   UNL     1      -9.689  -0.047 -32.425  1.00  0.00     0.017 A 
ENDBRANCH  20  21
ENDBRANCH   2  20
BRANCH   1  26
HETATM   26  C   UNL     1      -6.416   1.335 -33.616  1.00  0.00     0.101 A 
HETATM   27  N   UNL     1      -5.932   0.065 -33.394  1.00  0.00    -0.351 N 
HETATM   28  C   UNL     1      -6.255  -0.781 -34.434  1.00  0.00     0.043 A 
HETATM   29  H   UNL     1      -5.437  -0.219 -32.559  1.00  0.00     0.166 HD
HETATM   30  C   UNL     1      -7.003  -0.030 -35.324  1.00  0.00     0.033 A 
HETATM   31  C   UNL     1      -7.120   1.280 -34.806  1.00  0.00     0.037 A 
BRANCH  28  32
HETATM   32  C   UNL     1      -5.873  -2.198 -34.469  1.00  0.00    -0.009 A 
HETATM   33  C   UNL     1      -4.563  -2.585 -34.153  1.00  0.00     0.013 A 
HETATM   34  C   UNL     1      -4.187  -3.930 -34.179  1.00  0.00     0.001 A 
HETATM   35  C   UNL     1      -5.118  -4.908 -34.520  1.00  0.00     0.000 A 
HETATM   36  C   UNL     1      -6.424  -4.540 -34.834  1.00  0.00     0.001 A 
HETATM   37  C   UNL     1      -6.799  -3.194 -34.809  1.00  0.00     0.013 A 
ENDBRANCH  28  32
ENDBRANCH   1  26
TORSDOF 9
ENDMDL
MODEL 5
REMARK VINA RESULT:      -8.3      3.018      5.685
REMARK  9 active torsions:
REMARK  status: ('A' for Active; 'I' for Inactive)
REMARK    1  A    between atoms: C_4  and  C_5 
REMARK    2  A    between atoms: C_8  and  C_9 
REMARK       I    between atoms: C_9  and  N_10 
REMARK    3  A    between atoms: N_10  and  C_11 
REMARK    4  A    between atoms: N_10  and  C_26 
REMARK    5  A    between atoms: C_11  and  C_12 
REMARK    6  A    between atoms: C_11  and  C_21 
REMARK       I    between atoms: C_12  and  N_13 
REMARK    7  A    between atoms: N_13  and  C_14 
REMARK    8  A    between atoms: C_14  and  C_15 
REMARK    9  A    between atoms: C_26  and  C_27 
ROOT
HETATM    1  C   UNL     1      -3.786   2.005 -32.064  1.00  0.00     0.271 C 
HETATM    2  N   UNL     1      -5.042   2.615 -32.152  1.00  0.00    -0.324 N 
HETATM    3  O   UNL     1      -2.769   2.677 -31.883  1.00  0.00    -0.266 OA
ENDROOT
BRANCH   2   4
HETATM    4  C   UNL     1      -5.133   4.090 -32.293  1.00  0.00     0.220 C 
BRANCH   4   5
HETATM    5  C   UNL     1      -6.206   4.591 -33.310  1.00  0.00     0.245 C 
HETATM    6  N   UNL     1      -7.452   4.872 -32.796  1.00  0.00    -0.357 N 
HETATM    7  H   UNL     1      -7.495   5.024 -31.788  1.00  0.00     0.162 HD
HETATM    8  O   UNL     1      -5.924   4.820 -34.488  1.00  0.00    -0.271 OA
BRANCH   6   9
HETATM    9  C   UNL     1      -8.523   5.453 -33.585  1.00  0.00     0.154 C 
BRANCH   9  10
HETATM   10  C   UNL     1      -9.430   4.422 -34.261  1.00  0.00     0.139 C 
HETATM   11  O   UNL     1     -10.360   3.843 -33.321  1.00  0.00    -0.384 OA
HETATM   12  C   UNL     1     -11.574   3.540 -34.025  1.00  0.00     0.168 C 
HETATM   13  C   UNL     1     -11.403   4.010 -35.457  1.00  0.00     0.029 C 
HETATM   14  C   UNL     1     -10.305   5.036 -35.340  1.00  0.00     0.035 C 
ENDBRANCH   9  10
ENDBRANCH   6   9
ENDBRANCH   4   5
BRANCH   4  15
HETATM   15  C   UNL     1      -5.239   4.846 -30.972  1.00  0.00     0.014 A 
HETATM   16  S   UNL     1      -4.908   6.536 -30.873  1.00  0.00    -0.104 SA
HETATM   17  C   UNL     1      -5.287   6.599 -29.212  1.00  0.00     0.050 A 
HETATM   18  C   UNL     1      -5.698   5.379 -28.731  1.00  0.00     0.008 A 
HETATM   19  C   UNL     1      -5.676   4.375 -29.741  1.00  0.00     0.017 A 
ENDBRANCH   4  15
ENDBRANCH   2   4
BRANCH   2  20
HETATM   20  C   UNL     1      -6.194   1.986 -31.497  1.00  0.00     0.173 C 
BRANCH  20  21
HETATM   21  C   UNL     1      -7.196   1.461 -32.492  1.00  0.00     0.000 A 
HETATM   22  S   UNL     1      -8.710   0.896 -31.899  1.00  0.00    -0.105 SA
HETATM   23  C   UNL     1      -9.258   0.495 -33.466  1.00  0.00     0.050 A 
HETATM   24  C   UNL     1      -8.321   0.788 -34.430  1.00  0.00     0.008 A 
HETATM   25  C   UNL     1      -7.139   1.353 -33.869  1.00  0.00     0.017 A 
ENDBRANCH  20  21
ENDBRANCH   2  20
BRANCH   1  26
HETATM   26  C   UNL     1      -3.717   0.562 -32.152  1.00  0.00     0.101 A 
HETATM   27  N   UNL     1      -4.439  -0.233 -33.015  1.00  0.00    -0.351 N 
HETATM   28  C   UNL     1      -4.114  -1.564 -32.859  1.00  0.00     0.043 A 
HETATM   29  H   UNL     1      -5.093   0.119 -33.702  1.00  0.00     0.166 HD
HETATM   30  C   UNL     1      -3.125  -1.608 -31.891  1.00  0.00     0.033 A 
HETATM   31  C   UNL     1      -2.864  -0.286 -31.466  1.00  0.00     0.037 A 
BRANCH  28  32
HETATM   32  C   UNL     1      -4.723  -2.641 -33.648  1.00  0.00    -0.009 A 
HETATM   33  C   UNL     1      -5.946  -2.434 -34.302  1.00  0.00     0.013 A 
HETATM   34  C   UNL     1      -6.534  -3.449 -35.060  1.00  0.00     0.001 A 
HETATM   35  C   UNL     1      -5.906  -4.686 -35.177  1.00  0.00     0.000 A 
HETATM   36  C   UNL     1      -4.690  -4.907 -34.535  1.00  0.00     0.001 A 
HETATM   37  C   UNL     1      -4.102  -3.891 -33.776  1.00  0.00     0.013 A 
ENDBRANCH  28  32
ENDBRANCH   1  26
TORSDOF 9
ENDMDL
MODEL 6
REMARK VINA RESULT:      -8.3      2.143      2.818
REMARK  9 active torsions:
REMARK  status: ('A' for Active; 'I' for Inactive)
REMARK    1  A    between atoms: C_4  and  C_5 
REMARK    2  A    between atoms: C_8  and  C_9 
REMARK       I    between atoms: C_9  and  N_10 
REMARK    3  A    between atoms: N_10  and  C_11 
REMARK    4  A    between atoms: N_10  and  C_26 
REMARK    5  A    between atoms: C_11  and  C_12 
REMARK    6  A    between atoms: C_11  and  C_21 
REMARK       I    between atoms: C_12  and  N_13 
REMARK    7  A    between atoms: N_13  and  C_14 
REMARK    8  A    between atoms: C_14  and  C_15 
REMARK    9  A    between atoms: C_26  and  C_27 
ROOT
HETATM    1  C   UNL     1      -5.249   4.484 -30.161  1.00  0.00     0.271 C 
HETATM    2  N   UNL     1      -5.156   5.788 -30.660  1.00  0.00    -0.324 N 
HETATM    3  O   UNL     1      -5.669   4.271 -29.023  1.00  0.00    -0.266 OA
ENDROOT
BRANCH   2   4
HETATM    4  C   UNL     1      -5.311   6.939 -29.736  1.00  0.00     0.220 C 
BRANCH   4   5
HETATM    5  C   UNL     1      -4.092   7.201 -28.797  1.00  0.00     0.245 C 
HETATM    6  N   UNL     1      -2.862   6.796 -29.264  1.00  0.00    -0.357 N 
HETATM    7  H   UNL     1      -2.794   6.646 -30.271  1.00  0.00     0.162 HD
HETATM    8  O   UNL     1      -4.212   7.826 -27.742  1.00  0.00    -0.271 OA
BRANCH   6   9
HETATM    9  C   UNL     1      -1.619   7.069 -28.565  1.00  0.00     0.154 C 
BRANCH   9  10
HETATM   10  C   UNL     1      -0.367   6.617 -29.322  1.00  0.00     0.139 C 
HETATM   11  O   UNL     1       0.412   5.689 -28.540  1.00  0.00    -0.384 OA
HETATM   12  C   UNL     1       1.045   4.768 -29.443  1.00  0.00     0.168 C 
HETATM   13  C   UNL     1       0.582   5.111 -30.846  1.00  0.00     0.029 C 
HETATM   14  C   UNL     1      -0.701   5.863 -30.598  1.00  0.00     0.035 C 
ENDBRANCH   9  10
ENDBRANCH   6   9
ENDBRANCH   4   5
BRANCH   4  15
HETATM   15  C   UNL     1      -5.770   8.230 -30.407  1.00  0.00     0.014 A 
HETATM   16  S   UNL     1      -7.444   8.622 -30.556  1.00  0.00    -0.104 SA
HETATM   17  C   UNL     1      -7.114  10.121 -31.298  1.00  0.00     0.050 A 
HETATM   18  C   UNL     1      -5.764  10.357 -31.402  1.00  0.00     0.008 A 
HETATM   19  C   UNL     1      -4.994   9.276 -30.887  1.00  0.00     0.017 A 
ENDBRANCH   4  15
ENDBRANCH   2   4
BRANCH   2  20
HETATM   20  C   UNL     1      -5.543   6.055 -32.049  1.00  0.00     0.173 C 
BRANCH  20  21
HETATM   21  C   UNL     1      -4.368   5.992 -32.989  1.00  0.00     0.000 A 
HETATM   22  S   UNL     1      -4.511   5.025 -34.406  1.00  0.00    -0.105 SA
HETATM   23  C   UNL     1      -2.930   5.414 -34.921  1.00  0.00     0.050 A 
HETATM   24  C   UNL     1      -2.300   6.268 -34.047  1.00  0.00     0.008 A 
HETATM   25  C   UNL     1      -3.131   6.608 -32.941  1.00  0.00     0.017 A 
ENDBRANCH  20  21
ENDBRANCH   2  20
BRANCH   1  26
HETATM   26  C   UNL     1      -4.875   3.389 -31.032  1.00  0.00     0.101 A 
HETATM   27  N   UNL     1      -5.737   2.614 -31.776  1.00  0.00    -0.351 N 
HETATM   28  C   UNL     1      -5.051   1.676 -32.519  1.00  0.00     0.043 A 
HETATM   29  H   UNL     1      -6.739   2.743 -31.804  1.00  0.00     0.166 HD
HETATM   30  C   UNL     1      -3.707   1.892 -32.266  1.00  0.00     0.033 A 
HETATM   31  C   UNL     1      -3.597   2.969 -31.357  1.00  0.00     0.037 A 
BRANCH  28  32
HETATM   32  C   UNL     1      -5.710   0.714 -33.410  1.00  0.00    -0.009 A 
HETATM   33  C   UNL     1      -5.408  -0.652 -33.322  1.00  0.00     0.013 A 
HETATM   34  C   UNL     1      -6.031  -1.580 -34.161  1.00  0.00     0.001 A 
HETATM   35  C   UNL     1      -6.966  -1.153 -35.100  1.00  0.00     0.000 A 
HETATM   36  C   UNL     1      -7.279   0.201 -35.198  1.00  0.00     0.001 A 
HETATM   37  C   UNL     1      -6.655   1.128 -34.358  1.00  0.00     0.013 A 
ENDBRANCH  28  32
ENDBRANCH   1  26
TORSDOF 9
ENDMDL
MODEL 7
REMARK VINA RESULT:      -8.2      2.544      5.137
REMARK  9 active torsions:
REMARK  status: ('A' for Active; 'I' for Inactive)
REMARK    1  A    between atoms: C_4  and  C_5 
REMARK    2  A    between atoms: C_8  and  C_9 
REMARK       I    between atoms: C_9  and  N_10 
REMARK    3  A    between atoms: N_10  and  C_11 
REMARK    4  A    between atoms: N_10  and  C_26 
REMARK    5  A    between atoms: C_11  and  C_12 
REMARK    6  A    between atoms: C_11  and  C_21 
REMARK       I    between atoms: C_12  and  N_13 
REMARK    7  A    between atoms: N_13  and  C_14 
REMARK    8  A    between atoms: C_14  and  C_15 
REMARK    9  A    between atoms: C_26  and  C_27 
ROOT
HETATM    1  C   UNL     1      -6.408   2.538 -32.097  1.00  0.00     0.271 C 
HETATM    2  N   UNL     1      -5.833   3.754 -32.483  1.00  0.00    -0.324 N 
HETATM    3  O   UNL     1      -7.535   2.502 -31.599  1.00  0.00    -0.266 OA
ENDROOT
BRANCH   2   4
HETATM    4  C   UNL     1      -6.461   5.030 -32.055  1.00  0.00     0.220 C 
BRANCH   4   5
HETATM    5  C   UNL     1      -8.005   5.110 -32.270  1.00  0.00     0.245 C 
HETATM    6  N   UNL     1      -8.464   4.810 -33.533  1.00  0.00    -0.357 N 
HETATM    7  H   UNL     1      -7.825   4.280 -34.126  1.00  0.00     0.162 HD
HETATM    8  O   UNL     1      -8.777   5.330 -31.335  1.00  0.00    -0.271 OA
BRANCH   6   9
HETATM    9  C   UNL     1      -9.874   4.727 -33.865  1.00  0.00     0.154 C 
BRANCH   9  10
HETATM   10  C   UNL     1     -10.347   3.316 -34.227  1.00  0.00     0.139 C 
HETATM   11  O   UNL     1      -9.232   2.446 -34.514  1.00  0.00    -0.384 OA
HETATM   12  C   UNL     1      -9.586   1.117 -34.098  1.00  0.00     0.168 C 
HETATM   13  C   UNL     1     -10.964   1.186 -33.469  1.00  0.00     0.029 C 
HETATM   14  C   UNL     1     -11.081   2.639 -33.082  1.00  0.00     0.035 C 
ENDBRANCH   9  10
ENDBRANCH   6   9
ENDBRANCH   4   5
BRANCH   4  15
HETATM   15  C   UNL     1      -6.081   5.480 -30.648  1.00  0.00     0.014 A 
HETATM   16  S   UNL     1      -5.853   7.147 -30.267  1.00  0.00    -0.104 SA
HETATM   17  C   UNL     1      -5.542   6.816 -28.623  1.00  0.00     0.050 A 
HETATM   18  C   UNL     1      -5.644   5.476 -28.340  1.00  0.00     0.008 A 
HETATM   19  C   UNL     1      -5.959   4.710 -29.499  1.00  0.00     0.017 A 
ENDBRANCH   4  15
ENDBRANCH   2   4
BRANCH   2  20
HETATM   20  C   UNL     1      -5.082   3.827 -33.739  1.00  0.00     0.173 C 
BRANCH  20  21
HETATM   21  C   UNL     1      -3.706   4.410 -33.546  1.00  0.00     0.000 A 
HETATM   22  S   UNL     1      -3.058   5.396 -34.798  1.00  0.00    -0.105 SA
HETATM   23  C   UNL     1      -1.606   5.661 -33.939  1.00  0.00     0.050 A 
HETATM   24  C   UNL     1      -1.606   5.027 -32.719  1.00  0.00     0.008 A 
HETATM   25  C   UNL     1      -2.819   4.315 -32.490  1.00  0.00     0.017 A 
ENDBRANCH  20  21
ENDBRANCH   2  20
BRANCH   1  26
HETATM   26  C   UNL     1      -5.660   1.321 -32.334  1.00  0.00     0.101 A 
HETATM   27  N   UNL     1      -6.117   0.206 -33.001  1.00  0.00    -0.351 N 
HETATM   28  C   UNL     1      -5.142  -0.766 -33.076  1.00  0.00     0.043 A 
HETATM   29  H   UNL     1      -7.036   0.127 -33.416  1.00  0.00     0.166 HD
HETATM   30  C   UNL     1      -4.018  -0.231 -32.470  1.00  0.00     0.033 A 
HETATM   31  C   UNL     1      -4.334   1.073 -32.027  1.00  0.00     0.037 A 
BRANCH  28  32
HETATM   32  C   UNL     1      -5.344  -2.062 -33.734  1.00  0.00    -0.009 A 
HETATM   33  C   UNL     1      -6.588  -2.384 -34.294  1.00  0.00     0.013 A 
HETATM   34  C   UNL     1      -6.793  -3.613 -34.928  1.00  0.00     0.001 A 
HETATM   35  C   UNL     1      -5.754  -4.537 -35.010  1.00  0.00     0.000 A 
HETATM   36  C   UNL     1      -4.511  -4.230 -34.460  1.00  0.00     0.001 A 
HETATM   37  C   UNL     1      -4.308  -3.001 -33.827  1.00  0.00     0.013 A 
ENDBRANCH  28  32
ENDBRANCH   1  26
TORSDOF 9
ENDMDL
MODEL 8
REMARK VINA RESULT:      -8.2      1.841      3.860
REMARK  9 active torsions:
REMARK  status: ('A' for Active; 'I' for Inactive)
REMARK    1  A    between atoms: C_4  and  C_5 
REMARK    2  A    between atoms: C_8  and  C_9 
REMARK       I    between atoms: C_9  and  N_10 
REMARK    3  A    between atoms: N_10  and  C_11 
REMARK    4  A    between atoms: N_10  and  C_26 
REMARK    5  A    between atoms: C_11  and  C_12 
REMARK    6  A    between atoms: C_11  and  C_21 
REMARK       I    between atoms: C_12  and  N_13 
REMARK    7  A    between atoms: N_13  and  C_14 
REMARK    8  A    between atoms: C_14  and  C_15 
REMARK    9  A    between atoms: C_26  and  C_27 
ROOT
HETATM    1  C   UNL     1      -3.867   3.331 -31.650  1.00  0.00     0.271 C 
HETATM    2  N   UNL     1      -4.819   4.329 -31.885  1.00  0.00    -0.324 N 
HETATM    3  O   UNL     1      -2.683   3.619 -31.463  1.00  0.00    -0.266 OA
ENDROOT
BRANCH   2   4
HETATM    4  C   UNL     1      -4.372   5.715 -32.175  1.00  0.00     0.220 C 
BRANCH   4   5
HETATM    5  C   UNL     1      -4.272   6.650 -30.929  1.00  0.00     0.245 C 
HETATM    6  N   UNL     1      -3.410   6.250 -29.932  1.00  0.00    -0.357 N 
HETATM    7  H   UNL     1      -2.701   5.568 -30.202  1.00  0.00     0.162 HD
HETATM    8  O   UNL     1      -4.853   7.736 -30.887  1.00  0.00    -0.271 OA
BRANCH   6   9
HETATM    9  C   UNL     1      -3.117   7.062 -28.765  1.00  0.00     0.154 C 
BRANCH   9  10
HETATM   10  C   UNL     1      -1.621   7.231 -28.484  1.00  0.00     0.139 C 
HETATM   11  O   UNL     1      -1.293   6.843 -27.134  1.00  0.00    -0.384 OA
HETATM   12  C   UNL     1       0.035   6.294 -27.139  1.00  0.00     0.168 C 
HETATM   13  C   UNL     1       0.523   6.291 -28.574  1.00  0.00     0.029 C 
HETATM   14  C   UNL     1      -0.761   6.339 -29.362  1.00  0.00     0.035 C 
ENDBRANCH   9  10
ENDBRANCH   6   9
ENDBRANCH   4   5
BRANCH   4  15
HETATM   15  C   UNL     1      -3.111   5.807 -33.029  1.00  0.00     0.014 A 
HETATM   16  S   UNL     1      -3.028   5.081 -34.592  1.00  0.00    -0.104 SA
HETATM   17  C   UNL     1      -1.446   5.654 -34.867  1.00  0.00     0.050 A 
HETATM   18  C   UNL     1      -0.987   6.418 -33.821  1.00  0.00     0.008 A 
HETATM   19  C   UNL     1      -1.943   6.511 -32.770  1.00  0.00     0.017 A 
ENDBRANCH   4  15
ENDBRANCH   2   4
BRANCH   2  20
HETATM   20  C   UNL     1      -6.139   4.225 -31.256  1.00  0.00     0.173 C 
BRANCH  20  21
HETATM   21  C   UNL     1      -7.077   3.348 -32.044  1.00  0.00     0.000 A 
HETATM   22  S   UNL     1      -7.151   3.562 -33.750  1.00  0.00    -0.105 SA
HETATM   23  C   UNL     1      -8.322   2.331 -33.928  1.00  0.00     0.050 A 
HETATM   24  C   UNL     1      -8.651   1.756 -32.723  1.00  0.00     0.008 A 
HETATM   25  C   UNL     1      -7.927   2.334 -31.641  1.00  0.00     0.017 A 
ENDBRANCH  20  21
ENDBRANCH   2  20
BRANCH   1  26
HETATM   26  C   UNL     1      -4.316   1.956 -31.593  1.00  0.00     0.101 A 
HETATM   27  N   UNL     1      -4.565   1.139 -32.673  1.00  0.00    -0.351 N 
HETATM   28  C   UNL     1      -4.952  -0.121 -32.269  1.00  0.00     0.043 A 
HETATM   29  H   UNL     1      -4.443   1.417 -33.638  1.00  0.00     0.166 HD
HETATM   30  C   UNL     1      -4.906  -0.113 -30.885  1.00  0.00     0.033 A 
HETATM   31  C   UNL     1      -4.492   1.172 -30.466  1.00  0.00     0.037 A 
BRANCH  28  32
HETATM   32  C   UNL     1      -5.279  -1.204 -33.204  1.00  0.00    -0.009 A 
HETATM   33  C   UNL     1      -4.294  -2.122 -33.596  1.00  0.00     0.013 A 
HETATM   34  C   UNL     1      -4.592  -3.160 -34.482  1.00  0.00     0.001 A 
HETATM   35  C   UNL     1      -5.882  -3.295 -34.988  1.00  0.00     0.000 A 
HETATM   36  C   UNL     1      -6.873  -2.393 -34.607  1.00  0.00     0.001 A 
HETATM   37  C   UNL     1      -6.573  -1.354 -33.721  1.00  0.00     0.013 A 
ENDBRANCH  28  32
ENDBRANCH   1  26
TORSDOF 9
ENDMDL
MODEL 9
REMARK VINA RESULT:      -8.1      3.218      8.675
REMARK  9 active torsions:
REMARK  status: ('A' for Active; 'I' for Inactive)
REMARK    1  A    between atoms: C_4  and  C_5 
REMARK    2  A    between atoms: C_8  and  C_9 
REMARK       I    between atoms: C_9  and  N_10 
REMARK    3  A    between atoms: N_10  and  C_11 
REMARK    4  A    between atoms: N_10  and  C_26 
REMARK    5  A    between atoms: C_11  and  C_12 
REMARK    6  A    between atoms: C_11  and  C_21 
REMARK       I    between atoms: C_12  and  N_13 
REMARK    7  A    between atoms: N_13  and  C_14 
REMARK    8  A    between atoms: C_14  and  C_15 
REMARK    9  A    between atoms: C_26  and  C_27 
ROOT
HETATM    1  C   UNL     1      -5.863   4.621 -30.578  1.00  0.00     0.271 C 
HETATM    2  N   UNL     1      -5.762   3.668 -31.598  1.00  0.00    -0.324 N 
HETATM    3  O   UNL     1      -6.698   4.499 -29.680  1.00  0.00    -0.266 OA
ENDROOT
BRANCH   2   4
HETATM    4  C   UNL     1      -6.829   2.647 -31.755  1.00  0.00     0.220 C 
BRANCH   4   5
HETATM    5  C   UNL     1      -8.136   3.158 -32.438  1.00  0.00     0.245 C 
HETATM    6  N   UNL     1      -9.310   2.568 -32.031  1.00  0.00    -0.357 N 
HETATM    7  H   UNL     1      -9.278   2.083 -31.133  1.00  0.00     0.162 HD
HETATM    8  O   UNL     1      -8.126   4.109 -33.223  1.00  0.00    -0.271 OA
BRANCH   6   9
HETATM    9  C   UNL     1     -10.618   3.007 -32.482  1.00  0.00     0.154 C 
BRANCH   9  10
HETATM   10  C   UNL     1     -11.120   2.284 -33.735  1.00  0.00     0.139 C 
HETATM   11  O   UNL     1     -12.315   1.523 -33.460  1.00  0.00    -0.384 OA
HETATM   12  C   UNL     1     -13.126   1.525 -34.646  1.00  0.00     0.168 C 
HETATM   13  C   UNL     1     -12.422   2.379 -35.681  1.00  0.00     0.029 C 
HETATM   14  C   UNL     1     -11.521   3.247 -34.839  1.00  0.00     0.035 C 
ENDBRANCH   9  10
ENDBRANCH   6   9
ENDBRANCH   4   5
BRANCH   4  15
HETATM   15  C   UNL     1      -6.362   1.337 -32.383  1.00  0.00     0.014 A 
HETATM   16  S   UNL     1      -5.955  -0.031 -31.413  1.00  0.00    -0.104 SA
HETATM   17  C   UNL     1      -5.627  -1.004 -32.775  1.00  0.00     0.050 A 
HETATM   18  C   UNL     1      -5.854  -0.335 -33.953  1.00  0.00     0.008 A 
HETATM   19  C   UNL     1      -6.281   1.006 -33.729  1.00  0.00     0.017 A 
ENDBRANCH   4  15
ENDBRANCH   2   4
BRANCH   2  20
HETATM   20  C   UNL     1      -4.436   3.252 -32.064  1.00  0.00     0.173 C 
BRANCH  20  21
HETATM   21  C   UNL     1      -3.964   4.067 -33.239  1.00  0.00     0.000 A 
HETATM   22  S   UNL     1      -2.303   4.510 -33.307  1.00  0.00    -0.105 SA
HETATM   23  C   UNL     1      -2.509   5.344 -34.783  1.00  0.00     0.050 A 
HETATM   24  C   UNL     1      -3.808   5.285 -35.230  1.00  0.00     0.008 A 
HETATM   25  C   UNL     1      -4.642   4.542 -34.347  1.00  0.00     0.017 A 
ENDBRANCH  20  21
ENDBRANCH   2  20
BRANCH   1  26
HETATM   26  C   UNL     1      -4.934   5.732 -30.584  1.00  0.00     0.101 A 
HETATM   27  N   UNL     1      -3.725   5.781 -29.928  1.00  0.00    -0.351 N 
HETATM   28  C   UNL     1      -3.075   6.973 -30.166  1.00  0.00     0.043 A 
HETATM   29  H   UNL     1      -3.345   5.024 -29.374  1.00  0.00     0.166 HD
HETATM   30  C   UNL     1      -3.883   7.686 -31.035  1.00  0.00     0.033 A 
HETATM   31  C   UNL     1      -5.029   6.906 -31.310  1.00  0.00     0.037 A 
BRANCH  28  32
HETATM   32  C   UNL     1      -1.763   7.304 -29.599  1.00  0.00    -0.009 A 
HETATM   33  C   UNL     1      -0.593   6.783 -30.170  1.00  0.00     0.013 A 
HETATM   34  C   UNL     1       0.663   7.093 -29.643  1.00  0.00     0.001 A 
HETATM   35  C   UNL     1       0.767   7.931 -28.536  1.00  0.00     0.000 A 
HETATM   36  C   UNL     1      -0.385   8.459 -27.958  1.00  0.00     0.001 A 
HETATM   37  C   UNL     1      -1.641   8.148 -28.486  1.00  0.00     0.013 A 
ENDBRANCH  28  32
ENDBRANCH   1  26
TORSDOF 9
ENDMDL
MODEL 10
REMARK VINA RESULT:      -8.1      2.254      8.156
REMARK  9 active torsions:
REMARK  status: ('A' for Active; 'I' for Inactive)
REMARK    1  A    between atoms: C_4  and  C_5 
REMARK    2  A    between atoms: C_8  and  C_9 
REMARK       I    between atoms: C_9  and  N_10 
REMARK    3  A    between atoms: N_10  and  C_11 
REMARK    4  A    between atoms: N_10  and  C_26 
REMARK    5  A    between atoms: C_11  and  C_12 
REMARK    6  A    between atoms: C_11  and  C_21 
REMARK       I    between atoms: C_12  and  N_13 
REMARK    7  A    between atoms: N_13  and  C_14 
REMARK    8  A    between atoms: C_14  and  C_15 
REMARK    9  A    between atoms: C_26  and  C_27 
ROOT
HETATM    1  C   UNL     1      -2.712   4.488 -32.160  1.00  0.00     0.271 C 
HETATM    2  N   UNL     1      -4.064   4.821 -32.018  1.00  0.00    -0.324 N 
HETATM    3  O   UNL     1      -2.373   3.460 -32.749  1.00  0.00    -0.266 OA
ENDROOT
BRANCH   2   4
HETATM    4  C   UNL     1      -5.104   3.812 -32.339  1.00  0.00     0.220 C 
BRANCH   4   5
HETATM    5  C   UNL     1      -4.825   2.378 -31.789  1.00  0.00     0.245 C 
HETATM    6  N   UNL     1      -4.716   1.374 -32.725  1.00  0.00    -0.357 N 
HETATM    7  H   UNL     1      -4.523   1.675 -33.681  1.00  0.00     0.162 HD
HETATM    8  O   UNL     1      -4.613   2.174 -30.592  1.00  0.00    -0.271 OA
BRANCH   6   9
HETATM    9  C   UNL     1      -4.346   0.012 -32.388  1.00  0.00     0.154 C 
BRANCH   9  10
HETATM   10  C   UNL     1      -4.376  -0.954 -33.575  1.00  0.00     0.139 C 
HETATM   11  O   UNL     1      -3.915  -2.268 -33.196  1.00  0.00    -0.384 OA
HETATM   12  C   UNL     1      -4.628  -3.234 -33.984  1.00  0.00     0.168 C 
HETATM   13  C   UNL     1      -5.620  -2.479 -34.848  1.00  0.00     0.029 C 
HETATM   14  C   UNL     1      -5.782  -1.176 -34.106  1.00  0.00     0.035 C 
ENDBRANCH   9  10
ENDBRANCH   6   9
ENDBRANCH   4   5
BRANCH   4  15
HETATM   15  C   UNL     1      -6.530   4.251 -32.019  1.00  0.00     0.014 A 
HETATM   16  S   UNL     1      -7.652   4.648 -33.268  1.00  0.00    -0.104 SA
HETATM   17  C   UNL     1      -8.912   4.945 -32.159  1.00  0.00     0.050 A 
HETATM   18  C   UNL     1      -8.522   4.713 -30.862  1.00  0.00     0.008 A 
HETATM   19  C   UNL     1      -7.158   4.310 -30.782  1.00  0.00     0.017 A 
ENDBRANCH   4  15
ENDBRANCH   2   4
BRANCH   2  20
HETATM   20  C   UNL     1      -4.483   6.215 -32.189  1.00  0.00     0.173 C 
BRANCH  20  21
HETATM   21  C   UNL     1      -4.376   7.002 -30.909  1.00  0.00     0.000 A 
HETATM   22  S   UNL     1      -3.729   8.595 -30.986  1.00  0.00    -0.105 SA
HETATM   23  C   UNL     1      -3.905   8.828 -29.303  1.00  0.00     0.050 A 
HETATM   24  C   UNL     1      -4.451   7.727 -28.686  1.00  0.00     0.008 A 
HETATM   25  C   UNL     1      -4.731   6.681 -29.612  1.00  0.00     0.017 A 
ENDBRANCH  20  21
ENDBRANCH   2  20
BRANCH   1  26
HETATM   26  C   UNL     1      -1.722   5.404 -31.632  1.00  0.00     0.101 A 
HETATM   27  N   UNL     1      -1.429   5.600 -30.301  1.00  0.00    -0.351 N 
HETATM   28  C   UNL     1      -0.415   6.522 -30.144  1.00  0.00     0.043 A 
HETATM   29  H   UNL     1      -1.872   5.104 -29.540  1.00  0.00     0.166 HD
HETATM   30  C   UNL     1      -0.028   6.891 -31.421  1.00  0.00     0.033 A 
HETATM   31  C   UNL     1      -0.827   6.182 -32.346  1.00  0.00     0.037 A 
BRANCH  28  32
HETATM   32  C   UNL     1       0.111   6.928 -28.835  1.00  0.00    -0.009 A 
HETATM   33  C   UNL     1       0.992   8.013 -28.733  1.00  0.00     0.013 A 
HETATM   34  C   UNL     1       1.497   8.413 -27.493  1.00  0.00     0.001 A 
HETATM   35  C   UNL     1       1.125   7.732 -26.336  1.00  0.00     0.000 A 
HETATM   36  C   UNL     1       0.248   6.653 -26.421  1.00  0.00     0.001 A 
HETATM   37  C   UNL     1      -0.256   6.254 -27.662  1.00  0.00     0.013 A 
ENDBRANCH  28  32
ENDBRANCH   1  26
TORSDOF 9
ENDMDL
