MODEL 1
REMARK VINA RESULT:      -7.9      0.000      0.000
REMARK  4 active torsions:
REMARK  status: ('A' for Active; 'I' for Inactive)
REMARK    1  A    between atoms: C_5  and  N_6 
REMARK       I    between atoms: N_6  and  C_7 
REMARK    2  A    between atoms: C_7  and  C_8 
REMARK    3  A    between atoms: C_12  and  O_13 
REMARK    4  A    between atoms: C_19  and  C_20 
ROOT
HETATM    1  C   UNL     1      -6.590  -1.784 -33.845  1.00  0.00     0.015 C 
HETATM    2  C   UNL     1      -7.177  -0.360 -33.815  1.00  0.00    -0.040 C 
HETATM    3  C   UNL     1      -6.718   0.363 -35.095  1.00  0.00     0.015 C 
HETATM    4  C   UNL     1      -6.685   0.351 -32.533  1.00  0.00     0.039 C 
HETATM    5  C   UNL     1      -7.286   1.752 -32.308  1.00  0.00     0.122 C 
HETATM    6  C   UNL     1      -8.738   1.825 -32.680  1.00  0.00     0.007 A 
HETATM    7  C   UNL     1      -9.402   0.833 -33.378  1.00  0.00     0.047 A 
HETATM    8  N   UNL     1     -10.713   0.918 -33.693  1.00  0.00    -0.237 NA
HETATM    9  C   UNL     1     -11.382   2.029 -33.325  1.00  0.00     0.133 A 
HETATM   10  N   UNL     1     -10.820   3.040 -32.640  1.00  0.00    -0.244 NA
HETATM   11  C   UNL     1      -9.513   2.917 -32.337  1.00  0.00     0.130 A 
HETATM   12  C   UNL     1      -8.717  -0.452 -33.769  1.00  0.00     0.069 C 
ENDROOT
BRANCH   5  13
HETATM   13  N   UNL     1      -6.524   2.775 -33.009  1.00  0.00    -0.347 N 
HETATM   14  C   UNL     1      -5.500   3.456 -32.394  1.00  0.00     0.270 C 
HETATM   15  O   UNL     1      -5.238   3.320 -31.204  1.00  0.00    -0.266 OA
HETATM   16  H   UNL     1      -6.662   2.886 -34.003  1.00  0.00     0.163 HD
BRANCH  14  17
HETATM   17  C   UNL     1      -4.742   4.333 -33.243  1.00  0.00     0.122 A 
HETATM   18  N   UNL     1      -5.010   4.428 -34.589  1.00  0.00    -0.270 N 
HETATM   19  H   UNL     1      -5.724   3.918 -35.103  1.00  0.00     0.189 HD
HETATM   20  N   UNL     1      -4.224   5.304 -35.246  1.00  0.00    -0.149 NA
HETATM   21  C   UNL     1      -3.447   5.759 -34.277  1.00  0.00     0.183 A 
HETATM   22  C   UNL     1      -3.697   5.212 -33.019  1.00  0.00     0.096 A 
BRANCH  21  23
HETATM   23  O   UNL     1      -2.550   6.668 -34.642  1.00  0.00    -0.344 OA
HETATM   24  H   UNL     1      -2.538   7.308 -33.909  1.00  0.00     0.219 HD
ENDBRANCH  21  23
ENDBRANCH  14  17
ENDBRANCH   5  13
BRANCH   9  25
HETATM   25  C   UNL     1     -12.882   2.092 -33.604  1.00  0.00     0.011 C 
HETATM   26  C   UNL     1     -13.090   2.698 -35.002  1.00  0.00     0.023 C 
HETATM   27  C   UNL     1     -13.508   0.685 -33.560  1.00  0.00     0.023 C 
HETATM   28  C   UNL     1     -13.606   2.966 -32.561  1.00  0.00     0.023 C 
ENDBRANCH   9  25
TORSDOF 4
ENDMDL
MODEL 2
REMARK VINA RESULT:      -7.9      3.530      7.703
REMARK  4 active torsions:
REMARK  status: ('A' for Active; 'I' for Inactive)
REMARK    1  A    between atoms: C_5  and  N_6 
REMARK       I    between atoms: N_6  and  C_7 
REMARK    2  A    between atoms: C_7  and  C_8 
REMARK    3  A    between atoms: C_12  and  O_13 
REMARK    4  A    between atoms: C_19  and  C_20 
ROOT
HETATM    1  C   UNL     1      -8.768   2.687 -33.646  1.00  0.00     0.015 C 
HETATM    2  C   UNL     1      -7.270   2.334 -33.563  1.00  0.00    -0.040 C 
HETATM    3  C   UNL     1      -6.914   1.506 -34.812  1.00  0.00     0.015 C 
HETATM    4  C   UNL     1      -7.018   1.553 -32.252  1.00  0.00     0.039 C 
HETATM    5  C   UNL     1      -5.536   1.230 -31.976  1.00  0.00     0.122 C 
HETATM    6  C   UNL     1      -4.619   2.357 -32.350  1.00  0.00     0.007 A 
HETATM    7  C   UNL     1      -5.017   3.457 -33.089  1.00  0.00     0.047 A 
HETATM    8  N   UNL     1      -4.173   4.463 -33.406  1.00  0.00    -0.237 NA
HETATM    9  C   UNL     1      -2.892   4.369 -32.998  1.00  0.00     0.133 A 
HETATM   10  N   UNL     1      -2.419   3.340 -32.271  1.00  0.00    -0.244 NA
HETATM   11  C   UNL     1      -3.291   2.359 -31.969  1.00  0.00     0.130 A 
HETATM   12  C   UNL     1      -6.448   3.640 -33.527  1.00  0.00     0.069 C 
ENDROOT
BRANCH   5  13
HETATM   13  N   UNL     1      -5.131  -0.003 -32.633  1.00  0.00    -0.347 N 
HETATM   14  C   UNL     1      -4.315  -0.917 -32.009  1.00  0.00     0.270 C 
HETATM   15  O   UNL     1      -3.802  -0.704 -30.915  1.00  0.00    -0.266 OA
HETATM   16  H   UNL     1      -5.568  -0.252 -33.509  1.00  0.00     0.163 HD
BRANCH  14  17
HETATM   17  C   UNL     1      -4.111  -2.151 -32.715  1.00  0.00     0.122 A 
HETATM   18  N   UNL     1      -4.717  -2.384 -33.929  1.00  0.00    -0.270 N 
HETATM   19  H   UNL     1      -5.339  -1.754 -34.427  1.00  0.00     0.189 HD
HETATM   20  N   UNL     1      -4.415  -3.580 -34.472  1.00  0.00    -0.149 NA
HETATM   21  C   UNL     1      -3.604  -4.100 -33.566  1.00  0.00     0.183 A 
HETATM   22  C   UNL     1      -3.369  -3.289 -32.456  1.00  0.00     0.096 A 
BRANCH  21  23
HETATM   23  O   UNL     1      -3.132  -5.309 -33.846  1.00  0.00    -0.344 OA
HETATM   24  H   UNL     1      -3.925  -5.863 -33.957  1.00  0.00     0.219 HD
ENDBRANCH  21  23
ENDBRANCH  14  17
ENDBRANCH   5  13
BRANCH   9  25
HETATM   25  C   UNL     1      -1.958   5.543 -33.280  1.00  0.00     0.011 C 
HETATM   26  C   UNL     1      -0.769   5.461 -32.308  1.00  0.00     0.023 C 
HETATM   27  C   UNL     1      -1.435   5.492 -34.729  1.00  0.00     0.023 C 
HETATM   28  C   UNL     1      -2.680   6.890 -33.084  1.00  0.00     0.023 C 
ENDBRANCH   9  25
TORSDOF 4
ENDMDL
MODEL 3
REMARK VINA RESULT:      -7.5      1.711      1.789
REMARK  4 active torsions:
REMARK  status: ('A' for Active; 'I' for Inactive)
REMARK    1  A    between atoms: C_5  and  N_6 
REMARK       I    between atoms: N_6  and  C_7 
REMARK    2  A    between atoms: C_7  and  C_8 
REMARK    3  A    between atoms: C_12  and  O_13 
REMARK    4  A    between atoms: C_19  and  C_20 
ROOT
HETATM    1  C   UNL     1      -6.883  -1.990 -34.073  1.00  0.00     0.015 C 
HETATM    2  C   UNL     1      -7.155  -0.528 -33.666  1.00  0.00    -0.040 C 
HETATM    3  C   UNL     1      -6.389   0.381 -34.645  1.00  0.00     0.015 C 
HETATM    4  C   UNL     1      -6.696  -0.330 -32.202  1.00  0.00     0.039 C 
HETATM    5  C   UNL     1      -7.012   1.061 -31.617  1.00  0.00     0.122 C 
HETATM    6  C   UNL     1      -8.354   1.578 -32.046  1.00  0.00     0.007 A 
HETATM    7  C   UNL     1      -9.115   1.000 -33.046  1.00  0.00     0.047 A 
HETATM    8  N   UNL     1     -10.325   1.480 -33.407  1.00  0.00    -0.237 NA
HETATM    9  C   UNL     1     -10.787   2.577 -32.775  1.00  0.00     0.133 A 
HETATM   10  N   UNL     1     -10.118   3.200 -31.787  1.00  0.00    -0.244 NA
HETATM   11  C   UNL     1      -8.919   2.690 -31.450  1.00  0.00     0.130 A 
HETATM   12  C   UNL     1      -8.672  -0.257 -33.750  1.00  0.00     0.069 C 
ENDROOT
BRANCH   5  13
HETATM   13  N   UNL     1      -5.965   2.021 -31.936  1.00  0.00    -0.347 N 
HETATM   14  C   UNL     1      -5.176   2.576 -30.957  1.00  0.00     0.270 C 
HETATM   15  O   UNL     1      -5.371   2.380 -29.762  1.00  0.00    -0.266 OA
HETATM   16  H   UNL     1      -5.727   2.174 -32.906  1.00  0.00     0.163 HD
BRANCH  14  17
HETATM   17  C   UNL     1      -4.093   3.396 -31.425  1.00  0.00     0.122 A 
HETATM   18  N   UNL     1      -3.693   4.513 -30.728  1.00  0.00    -0.270 N 
HETATM   19  H   UNL     1      -4.096   4.864 -29.863  1.00  0.00     0.189 HD
HETATM   20  N   UNL     1      -2.655   5.167 -31.286  1.00  0.00    -0.149 NA
HETATM   21  C   UNL     1      -2.411   4.434 -32.360  1.00  0.00     0.183 A 
HETATM   22  C   UNL     1      -3.250   3.332 -32.520  1.00  0.00     0.096 A 
BRANCH  21  23
HETATM   23  O   UNL     1      -1.406   4.851 -33.121  1.00  0.00    -0.344 OA
HETATM   24  H   UNL     1      -0.605   4.577 -32.641  1.00  0.00     0.219 HD
ENDBRANCH  21  23
ENDBRANCH  14  17
ENDBRANCH   5  13
BRANCH   9  25
HETATM   25  C   UNL     1     -12.189   3.071 -33.120  1.00  0.00     0.011 C 
HETATM   26  C   UNL     1     -12.087   4.012 -34.333  1.00  0.00     0.023 C 
HETATM   27  C   UNL     1     -13.117   1.891 -33.468  1.00  0.00     0.023 C 
HETATM   28  C   UNL     1     -12.817   3.837 -31.939  1.00  0.00     0.023 C 
ENDBRANCH   9  25
TORSDOF 4
ENDMDL
MODEL 4
REMARK VINA RESULT:      -7.4      3.338      5.582
REMARK  4 active torsions:
REMARK  status: ('A' for Active; 'I' for Inactive)
REMARK    1  A    between atoms: C_5  and  N_6 
REMARK       I    between atoms: N_6  and  C_7 
REMARK    2  A    between atoms: C_7  and  C_8 
REMARK    3  A    between atoms: C_12  and  O_13 
REMARK    4  A    between atoms: C_19  and  C_20 
ROOT
HETATM    1  C   UNL     1      -5.769   2.211 -29.854  1.00  0.00     0.015 C 
HETATM    2  C   UNL     1      -6.599   1.476 -30.924  1.00  0.00    -0.040 C 
HETATM    3  C   UNL     1      -6.846   0.041 -30.423  1.00  0.00     0.015 C 
HETATM    4  C   UNL     1      -5.819   1.504 -32.260  1.00  0.00     0.039 C 
HETATM    5  C   UNL     1      -6.582   0.904 -33.457  1.00  0.00     0.122 C 
HETATM    6  C   UNL     1      -8.042   1.254 -33.448  1.00  0.00     0.007 A 
HETATM    7  C   UNL     1      -8.685   1.831 -32.369  1.00  0.00     0.047 A 
HETATM    8  N   UNL     1      -9.999   2.145 -32.389  1.00  0.00    -0.237 NA
HETATM    9  C   UNL     1     -10.702   1.860 -33.503  1.00  0.00     0.133 A 
HETATM   10  N   UNL     1     -10.158   1.305 -34.601  1.00  0.00    -0.244 NA
HETATM   11  C   UNL     1      -8.845   1.013 -34.546  1.00  0.00     0.130 A 
HETATM   12  C   UNL     1      -7.939   2.219 -31.118  1.00  0.00     0.069 C 
ENDROOT
BRANCH   5  13
HETATM   13  N   UNL     1      -6.400  -0.538 -33.533  1.00  0.00    -0.347 N 
HETATM   14  C   UNL     1      -6.307  -1.188 -34.741  1.00  0.00     0.270 C 
HETATM   15  O   UNL     1      -6.473  -0.616 -35.813  1.00  0.00    -0.266 OA
HETATM   16  H   UNL     1      -6.201  -1.047 -32.684  1.00  0.00     0.163 HD
BRANCH  14  17
HETATM   17  C   UNL     1      -5.985  -2.586 -34.669  1.00  0.00     0.122 A 
HETATM   18  N   UNL     1      -6.919  -3.548 -34.980  1.00  0.00    -0.270 N 
HETATM   19  H   UNL     1      -7.879  -3.389 -35.273  1.00  0.00     0.189 HD
HETATM   20  N   UNL     1      -6.461  -4.811 -34.879  1.00  0.00    -0.149 NA
HETATM   21  C   UNL     1      -5.212  -4.624 -34.490  1.00  0.00     0.183 A 
HETATM   22  C   UNL     1      -4.841  -3.288 -34.334  1.00  0.00     0.096 A 
BRANCH  21  23
HETATM   23  O   UNL     1      -4.496  -5.727 -34.310  1.00  0.00    -0.344 OA
HETATM   24  H   UNL     1      -5.098  -6.339 -33.851  1.00  0.00     0.219 HD
ENDBRANCH  21  23
ENDBRANCH  14  17
ENDBRANCH   5  13
BRANCH   9  25
HETATM   25  C   UNL     1     -12.166   2.291 -33.561  1.00  0.00     0.011 C 
HETATM   26  C   UNL     1     -12.439   3.241 -32.384  1.00  0.00     0.023 C 
HETATM   27  C   UNL     1     -12.471   3.018 -34.885  1.00  0.00     0.023 C 
HETATM   28  C   UNL     1     -13.108   1.075 -33.460  1.00  0.00     0.023 C 
ENDBRANCH   9  25
TORSDOF 4
ENDMDL
MODEL 5
REMARK VINA RESULT:      -7.3      1.164      1.542
REMARK  4 active torsions:
REMARK  status: ('A' for Active; 'I' for Inactive)
REMARK    1  A    between atoms: C_5  and  N_6 
REMARK       I    between atoms: N_6  and  C_7 
REMARK    2  A    between atoms: C_7  and  C_8 
REMARK    3  A    between atoms: C_12  and  O_13 
REMARK    4  A    between atoms: C_19  and  C_20 
ROOT
HETATM    1  C   UNL     1      -5.968  -0.754 -31.551  1.00  0.00     0.015 C 
HETATM    2  C   UNL     1      -6.608   0.507 -32.165  1.00  0.00    -0.040 C 
HETATM    3  C   UNL     1      -5.901   0.785 -33.505  1.00  0.00     0.015 C 
HETATM    4  C   UNL     1      -6.452   1.677 -31.167  1.00  0.00     0.039 C 
HETATM    5  C   UNL     1      -7.149   2.982 -31.598  1.00  0.00     0.122 C 
HETATM    6  C   UNL     1      -8.480   2.740 -32.248  1.00  0.00     0.007 A 
HETATM    7  C   UNL     1      -8.923   1.492 -32.646  1.00  0.00     0.047 A 
HETATM    8  N   UNL     1     -10.131   1.299 -33.221  1.00  0.00    -0.237 NA
HETATM    9  C   UNL     1     -10.914   2.376 -33.428  1.00  0.00     0.133 A 
HETATM   10  N   UNL     1     -10.567   3.625 -33.069  1.00  0.00    -0.244 NA
HETATM   11  C   UNL     1      -9.359   3.778 -32.492  1.00  0.00     0.130 A 
HETATM   12  C   UNL     1      -8.112   0.247 -32.392  1.00  0.00     0.069 C 
ENDROOT
BRANCH   5  13
HETATM   13  N   UNL     1      -6.292   3.780 -32.463  1.00  0.00    -0.347 N 
HETATM   14  C   UNL     1      -5.366   4.655 -31.948  1.00  0.00     0.270 C 
HETATM   15  O   UNL     1      -5.277   4.891 -30.748  1.00  0.00    -0.266 OA
HETATM   16  H   UNL     1      -6.286   3.584 -33.454  1.00  0.00     0.163 HD
BRANCH  14  17
HETATM   17  C   UNL     1      -4.492   5.270 -32.909  1.00  0.00     0.122 A 
HETATM   18  N   UNL     1      -4.579   4.963 -34.247  1.00  0.00    -0.270 N 
HETATM   19  H   UNL     1      -5.224   4.307 -34.679  1.00  0.00     0.189 HD
HETATM   20  N   UNL     1      -3.703   5.633 -35.023  1.00  0.00    -0.149 NA
HETATM   21  C   UNL     1      -3.055   6.370 -34.136  1.00  0.00     0.183 A 
HETATM   22  C   UNL     1      -3.476   6.205 -32.817  1.00  0.00     0.096 A 
BRANCH  21  23
HETATM   23  O   UNL     1      -2.108   7.159 -34.629  1.00  0.00    -0.344 OA
HETATM   24  H   UNL     1      -2.589   7.926 -34.988  1.00  0.00     0.219 HD
ENDBRANCH  21  23
ENDBRANCH  14  17
ENDBRANCH   5  13
BRANCH   9  25
HETATM   25  C   UNL     1     -12.312   2.152 -33.999  1.00  0.00     0.011 C 
HETATM   26  C   UNL     1     -12.700   0.682 -33.767  1.00  0.00     0.023 C 
HETATM   27  C   UNL     1     -13.340   3.066 -33.306  1.00  0.00     0.023 C 
HETATM   28  C   UNL     1     -12.351   2.453 -35.510  1.00  0.00     0.023 C 
ENDBRANCH   9  25
TORSDOF 4
ENDMDL
MODEL 6
REMARK VINA RESULT:      -7.3      2.397      3.217
REMARK  4 active torsions:
REMARK  status: ('A' for Active; 'I' for Inactive)
REMARK    1  A    between atoms: C_5  and  N_6 
REMARK       I    between atoms: N_6  and  C_7 
REMARK    2  A    between atoms: C_7  and  C_8 
REMARK    3  A    between atoms: C_12  and  O_13 
REMARK    4  A    between atoms: C_19  and  C_20 
ROOT
HETATM    1  C   UNL     1      -3.194  -2.025 -31.727  1.00  0.00     0.015 C 
HETATM    2  C   UNL     1      -3.884  -0.706 -32.125  1.00  0.00    -0.040 C 
HETATM    3  C   UNL     1      -3.321  -0.276 -33.493  1.00  0.00     0.015 C 
HETATM    4  C   UNL     1      -3.613   0.346 -31.024  1.00  0.00     0.039 C 
HETATM    5  C   UNL     1      -4.341   1.689 -31.231  1.00  0.00     0.122 C 
HETATM    6  C   UNL     1      -5.736   1.516 -31.758  1.00  0.00     0.007 A 
HETATM    7  C   UNL     1      -6.229   0.319 -32.243  1.00  0.00     0.047 A 
HETATM    8  N   UNL     1      -7.492   0.187 -32.704  1.00  0.00    -0.237 NA
HETATM    9  C   UNL     1      -8.284   1.278 -32.705  1.00  0.00     0.133 A 
HETATM   10  N   UNL     1      -7.890   2.480 -32.248  1.00  0.00    -0.244 NA
HETATM   11  C   UNL     1      -6.627   2.572 -31.790  1.00  0.00     0.130 A 
HETATM   12  C   UNL     1      -5.406  -0.944 -32.217  1.00  0.00     0.069 C 
ENDROOT
BRANCH   5  13
HETATM   13  N   UNL     1      -3.574   2.582 -32.088  1.00  0.00    -0.347 N 
HETATM   14  C   UNL     1      -3.389   3.905 -31.765  1.00  0.00     0.270 C 
HETATM   15  O   UNL     1      -3.938   4.433 -30.804  1.00  0.00    -0.266 OA
HETATM   16  H   UNL     1      -3.057   2.186 -32.860  1.00  0.00     0.163 HD
BRANCH  14  17
HETATM   17  C   UNL     1      -2.496   4.633 -32.623  1.00  0.00     0.122 A 
HETATM   18  N   UNL     1      -1.706   5.647 -32.132  1.00  0.00    -0.270 N 
HETATM   19  H   UNL     1      -1.671   5.977 -31.171  1.00  0.00     0.189 HD
HETATM   20  N   UNL     1      -0.912   6.222 -33.056  1.00  0.00    -0.149 NA
HETATM   21  C   UNL     1      -1.224   5.546 -34.150  1.00  0.00     0.183 A 
HETATM   22  C   UNL     1      -2.190   4.556 -33.970  1.00  0.00     0.096 A 
BRANCH  21  23
HETATM   23  O   UNL     1      -0.574   5.904 -35.250  1.00  0.00    -0.344 OA
HETATM   24  H   UNL     1      -1.252   6.317 -35.813  1.00  0.00     0.219 HD
ENDBRANCH  21  23
ENDBRANCH  14  17
ENDBRANCH   5  13
BRANCH   9  25
HETATM   25  C   UNL     1      -9.737   1.114 -33.145  1.00  0.00     0.011 C 
HETATM   26  C   UNL     1      -9.794   1.219 -34.678  1.00  0.00     0.023 C 
HETATM   27  C   UNL     1     -10.291  -0.256 -32.708  1.00  0.00     0.023 C 
HETATM   28  C   UNL     1     -10.632   2.207 -32.529  1.00  0.00     0.023 C 
ENDBRANCH   9  25
TORSDOF 4
ENDMDL
MODEL 7
REMARK VINA RESULT:      -7.2      4.718      7.588
REMARK  4 active torsions:
REMARK  status: ('A' for Active; 'I' for Inactive)
REMARK    1  A    between atoms: C_5  and  N_6 
REMARK       I    between atoms: N_6  and  C_7 
REMARK    2  A    between atoms: C_7  and  C_8 
REMARK    3  A    between atoms: C_12  and  O_13 
REMARK    4  A    between atoms: C_19  and  C_20 
ROOT
HETATM    1  C   UNL     1      -6.716   7.408 -30.551  1.00  0.00     0.015 C 
HETATM    2  C   UNL     1      -5.602   6.353 -30.403  1.00  0.00    -0.040 C 
HETATM    3  C   UNL     1      -5.300   6.199 -28.901  1.00  0.00     0.015 C 
HETATM    4  C   UNL     1      -4.366   6.823 -31.204  1.00  0.00     0.039 C 
HETATM    5  C   UNL     1      -3.206   5.809 -31.242  1.00  0.00     0.122 C 
HETATM    6  C   UNL     1      -3.680   4.392 -31.384  1.00  0.00     0.007 A 
HETATM    7  C   UNL     1      -5.002   4.008 -31.242  1.00  0.00     0.047 A 
HETATM    8  N   UNL     1      -5.405   2.726 -31.383  1.00  0.00    -0.237 NA
HETATM    9  C   UNL     1      -4.470   1.793 -31.651  1.00  0.00     0.133 A 
HETATM   10  N   UNL     1      -3.165   2.076 -31.810  1.00  0.00    -0.244 NA
HETATM   11  C   UNL     1      -2.801   3.365 -31.669  1.00  0.00     0.130 A 
HETATM   12  C   UNL     1      -6.096   5.015 -30.994  1.00  0.00     0.069 C 
ENDROOT
BRANCH   5  13
HETATM   13  N   UNL     1      -2.341   5.948 -30.080  1.00  0.00    -0.347 N 
HETATM   14  C   UNL     1      -1.037   6.365 -30.200  1.00  0.00     0.270 C 
HETATM   15  O   UNL     1      -0.498   6.543 -31.287  1.00  0.00    -0.266 OA
HETATM   16  H   UNL     1      -2.750   5.868 -29.160  1.00  0.00     0.163 HD
BRANCH  14  17
HETATM   17  C   UNL     1      -0.343   6.595 -28.963  1.00  0.00     0.122 A 
HETATM   18  N   UNL     1      -0.743   5.981 -27.798  1.00  0.00    -0.270 N 
HETATM   19  H   UNL     1      -1.525   5.341 -27.687  1.00  0.00     0.189 HD
HETATM   20  N   UNL     1       0.017   6.285 -26.728  1.00  0.00    -0.149 NA
HETATM   21  C   UNL     1       0.908   7.114 -27.246  1.00  0.00     0.183 A 
HETATM   22  C   UNL     1       0.755   7.359 -28.610  1.00  0.00     0.096 A 
BRANCH  21  23
HETATM   23  O   UNL     1       1.814   7.584 -26.398  1.00  0.00    -0.344 OA
HETATM   24  H   UNL     1       1.394   8.365 -25.998  1.00  0.00     0.219 HD
ENDBRANCH  21  23
ENDBRANCH  14  17
ENDBRANCH   5  13
BRANCH   9  25
HETATM   25  C   UNL     1      -4.933   0.359 -31.895  1.00  0.00     0.011 C 
HETATM   26  C   UNL     1      -3.754  -0.586 -31.608  1.00  0.00     0.023 C 
HETATM   27  C   UNL     1      -6.112  -0.002 -30.970  1.00  0.00     0.023 C 
HETATM   28  C   UNL     1      -5.395   0.163 -33.352  1.00  0.00     0.023 C 
ENDBRANCH   9  25
TORSDOF 4
ENDMDL
MODEL 8
REMARK VINA RESULT:      -7.2      4.070      9.238
REMARK  4 active torsions:
REMARK  status: ('A' for Active; 'I' for Inactive)
REMARK    1  A    between atoms: C_5  and  N_6 
REMARK       I    between atoms: N_6  and  C_7 
REMARK    2  A    between atoms: C_7  and  C_8 
REMARK    3  A    between atoms: C_12  and  O_13 
REMARK    4  A    between atoms: C_19  and  C_20 
ROOT
HETATM    1  C   UNL     1      -1.739   5.099 -34.818  1.00  0.00     0.015 C 
HETATM    2  C   UNL     1      -2.330   5.197 -33.398  1.00  0.00    -0.040 C 
HETATM    3  C   UNL     1      -2.605   3.764 -32.904  1.00  0.00     0.015 C 
HETATM    4  C   UNL     1      -3.617   6.053 -33.456  1.00  0.00     0.039 C 
HETATM    5  C   UNL     1      -4.259   6.335 -32.083  1.00  0.00     0.122 C 
HETATM    6  C   UNL     1      -3.242   6.604 -31.013  1.00  0.00     0.007 A 
HETATM    7  C   UNL     1      -1.886   6.380 -31.169  1.00  0.00     0.047 A 
HETATM    8  N   UNL     1      -0.989   6.640 -30.192  1.00  0.00    -0.237 NA
HETATM    9  C   UNL     1      -1.450   7.115 -29.019  1.00  0.00     0.133 A 
HETATM   10  N   UNL     1      -2.750   7.368 -28.780  1.00  0.00    -0.244 NA
HETATM   11  C   UNL     1      -3.613   7.104 -29.779  1.00  0.00     0.130 A 
HETATM   12  C   UNL     1      -1.310   5.899 -32.476  1.00  0.00     0.069 C 
ENDROOT
BRANCH   5  13
HETATM   13  N   UNL     1      -5.152   5.257 -31.684  1.00  0.00    -0.347 N 
HETATM   14  C   UNL     1      -6.476   5.248 -32.052  1.00  0.00     0.270 C 
HETATM   15  O   UNL     1      -7.004   6.184 -32.642  1.00  0.00    -0.266 OA
HETATM   16  H   UNL     1      -4.757   4.437 -31.247  1.00  0.00     0.163 HD
BRANCH  14  17
HETATM   17  C   UNL     1      -7.206   4.057 -31.712  1.00  0.00     0.122 A 
HETATM   18  N   UNL     1      -6.612   2.817 -31.773  1.00  0.00    -0.270 N 
HETATM   19  H   UNL     1      -5.656   2.616 -32.052  1.00  0.00     0.189 HD
HETATM   20  N   UNL     1      -7.421   1.802 -31.409  1.00  0.00    -0.149 NA
HETATM   21  C   UNL     1      -8.546   2.434 -31.120  1.00  0.00     0.183 A 
HETATM   22  C   UNL     1      -8.499   3.818 -31.282  1.00  0.00     0.096 A 
BRANCH  21  23
HETATM   23  O   UNL     1      -9.548   1.663 -30.716  1.00  0.00    -0.344 OA
HETATM   24  H   UNL     1      -9.211   0.755 -30.805  1.00  0.00     0.219 HD
ENDBRANCH  21  23
ENDBRANCH  14  17
ENDBRANCH   5  13
BRANCH   9  25
HETATM   25  C   UNL     1      -0.433   7.489 -27.943  1.00  0.00     0.011 C 
HETATM   26  C   UNL     1       0.900   7.825 -28.633  1.00  0.00     0.023 C 
HETATM   27  C   UNL     1      -0.912   8.712 -27.138  1.00  0.00     0.023 C 
HETATM   28  C   UNL     1      -0.213   6.326 -26.956  1.00  0.00     0.023 C 
ENDBRANCH   9  25
TORSDOF 4
ENDMDL
MODEL 9
REMARK VINA RESULT:      -7.1      5.146      7.405
REMARK  4 active torsions:
REMARK  status: ('A' for Active; 'I' for Inactive)
REMARK    1  A    between atoms: C_5  and  N_6 
REMARK       I    between atoms: N_6  and  C_7 
REMARK    2  A    between atoms: C_7  and  C_8 
REMARK    3  A    between atoms: C_12  and  O_13 
REMARK    4  A    between atoms: C_19  and  C_20 
ROOT
HETATM    1  C   UNL     1      -1.055   5.608 -34.897  1.00  0.00     0.015 C 
HETATM    2  C   UNL     1      -1.808   5.897 -33.584  1.00  0.00    -0.040 C 
HETATM    3  C   UNL     1      -1.328   7.263 -33.060  1.00  0.00     0.015 C 
HETATM    4  C   UNL     1      -1.520   4.752 -32.586  1.00  0.00     0.039 C 
HETATM    5  C   UNL     1      -2.302   4.847 -31.261  1.00  0.00     0.122 C 
HETATM    6  C   UNL     1      -3.714   5.317 -31.456  1.00  0.00     0.007 A 
HETATM    7  C   UNL     1      -4.190   5.846 -32.642  1.00  0.00     0.047 A 
HETATM    8  N   UNL     1      -5.469   6.253 -32.794  1.00  0.00    -0.237 NA
HETATM    9  C   UNL     1      -6.297   6.155 -31.735  1.00  0.00     0.133 A 
HETATM   10  N   UNL     1      -5.922   5.649 -30.546  1.00  0.00    -0.244 NA
HETATM   11  C   UNL     1      -4.642   5.247 -30.434  1.00  0.00     0.130 A 
HETATM   12  C   UNL     1      -3.324   5.931 -33.873  1.00  0.00     0.069 C 
ENDROOT
BRANCH   5  13
HETATM   13  N   UNL     1      -1.610   5.687 -30.295  1.00  0.00    -0.347 N 
HETATM   14  C   UNL     1      -0.336   5.393 -29.870  1.00  0.00     0.270 C 
HETATM   15  O   UNL     1       0.247   4.364 -30.194  1.00  0.00    -0.266 OA
HETATM   16  H   UNL     1      -2.021   6.573 -30.040  1.00  0.00     0.163 HD
BRANCH  14  17
HETATM   17  C   UNL     1       0.280   6.380 -29.027  1.00  0.00     0.122 A 
HETATM   18  N   UNL     1       0.469   6.151 -27.684  1.00  0.00    -0.270 N 
HETATM   19  H   UNL     1       0.208   5.315 -27.168  1.00  0.00     0.189 HD
HETATM   20  N   UNL     1       1.073   7.165 -27.033  1.00  0.00    -0.149 NA
HETATM   21  C   UNL     1       1.256   8.047 -28.002  1.00  0.00     0.183 A 
HETATM   22  C   UNL     1       0.795   7.644 -29.255  1.00  0.00     0.096 A 
BRANCH  21  23
HETATM   23  O   UNL     1       1.852   9.177 -27.643  1.00  0.00    -0.344 OA
HETATM   24  H   UNL     1       2.480   8.914 -26.946  1.00  0.00     0.219 HD
ENDBRANCH  21  23
ENDBRANCH  14  17
ENDBRANCH   5  13
BRANCH   9  25
HETATM   25  C   UNL     1      -7.763   6.535 -31.928  1.00  0.00     0.011 C 
HETATM   26  C   UNL     1      -8.288   5.819 -33.183  1.00  0.00     0.023 C 
HETATM   27  C   UNL     1      -8.604   6.111 -30.709  1.00  0.00     0.023 C 
HETATM   28  C   UNL     1      -7.924   8.057 -32.110  1.00  0.00     0.023 C 
ENDBRANCH   9  25
TORSDOF 4
ENDMDL
MODEL 10
REMARK VINA RESULT:      -7.1     16.447     18.726
REMARK  4 active torsions:
REMARK  status: ('A' for Active; 'I' for Inactive)
REMARK    1  A    between atoms: C_5  and  N_6 
REMARK       I    between atoms: N_6  and  C_7 
REMARK    2  A    between atoms: C_7  and  C_8 
REMARK    3  A    between atoms: C_12  and  O_13 
REMARK    4  A    between atoms: C_19  and  C_20 
ROOT
HETATM    1  C   UNL     1      -6.894 -15.090 -33.813  1.00  0.00     0.015 C 
HETATM    2  C   UNL     1      -6.594 -14.644 -35.257  1.00  0.00    -0.040 C 
HETATM    3  C   UNL     1      -7.192 -13.238 -35.447  1.00  0.00     0.015 C 
HETATM    4  C   UNL     1      -7.207 -15.677 -36.231  1.00  0.00     0.039 C 
HETATM    5  C   UNL     1      -6.888 -15.422 -37.717  1.00  0.00     0.122 C 
HETATM    6  C   UNL     1      -5.479 -14.951 -37.933  1.00  0.00     0.007 A 
HETATM    7  C   UNL     1      -4.640 -14.547 -36.911  1.00  0.00     0.047 A 
HETATM    8  N   UNL     1      -3.372 -14.135 -37.131  1.00  0.00    -0.237 NA
HETATM    9  C   UNL     1      -2.928 -14.101 -38.403  1.00  0.00     0.133 A 
HETATM   10  N   UNL     1      -3.672 -14.480 -39.458  1.00  0.00    -0.244 NA
HETATM   11  C   UNL     1      -4.929 -14.891 -39.199  1.00  0.00     0.130 A 
HETATM   12  C   UNL     1      -5.065 -14.614 -35.466  1.00  0.00     0.069 C 
ENDROOT
BRANCH   5  13
HETATM   13  N   UNL     1      -7.837 -14.494 -38.312  1.00  0.00    -0.347 N 
HETATM   14  C   UNL     1      -8.531 -14.810 -39.456  1.00  0.00     0.270 C 
HETATM   15  O   UNL     1      -8.318 -15.835 -40.095  1.00  0.00    -0.266 OA
HETATM   16  H   UNL     1      -8.090 -13.662 -37.797  1.00  0.00     0.163 HD
BRANCH  14  17
HETATM   17  C   UNL     1      -9.537 -13.864 -39.852  1.00  0.00     0.122 A 
HETATM   18  N   UNL     1     -10.798 -14.277 -40.217  1.00  0.00    -0.270 N 
HETATM   19  H   UNL     1     -11.136 -15.235 -40.250  1.00  0.00     0.189 HD
HETATM   20  N   UNL     1     -11.632 -13.271 -40.547  1.00  0.00    -0.149 NA
HETATM   21  C   UNL     1     -10.862 -12.208 -40.385  1.00  0.00     0.183 A 
HETATM   22  C   UNL     1      -9.562 -12.485 -39.964  1.00  0.00     0.096 A 
BRANCH  21  23
HETATM   23  O   UNL     1     -11.437 -11.039 -40.642  1.00  0.00    -0.344 OA
HETATM   24  H   UNL     1     -12.317 -11.269 -40.988  1.00  0.00     0.219 HD
ENDBRANCH  21  23
ENDBRANCH  14  17
ENDBRANCH   5  13
BRANCH   9  25
HETATM   25  C   UNL     1      -1.471 -13.718 -38.649  1.00  0.00     0.011 C 
HETATM   26  C   UNL     1      -1.148 -13.963 -40.132  1.00  0.00     0.023 C 
HETATM   27  C   UNL     1      -1.231 -12.233 -38.313  1.00  0.00     0.023 C 
HETATM   28  C   UNL     1      -0.519 -14.562 -37.778  1.00  0.00     0.023 C 
ENDBRANCH   9  25
TORSDOF 4
ENDMDL
