MODEL 1
REMARK VINA RESULT:      -9.4      0.000      0.000
REMARK  7 active torsions:
REMARK  status: ('A' for Active; 'I' for Inactive)
REMARK    1  A    between atoms: C_2  and  C_3 
REMARK    2  A    between atoms: C_6  and  C_7 
REMARK    3  A    between atoms: N_8  and  N_9 
REMARK    4  A    between atoms: C_20  and  C_21 
REMARK       I    between atoms: C_21  and  N_22 
REMARK    5  A    between atoms: N_22  and  C_23 
REMARK    6  A    between atoms: C_23  and  C_24 
REMARK    7  A    between atoms: C_30  and  N_31 
ROOT
HETATM    1  N   UNL     1      -6.579   2.065 -33.349  1.00  0.00    -0.202 N 
HETATM    2  C   UNL     1      -6.397   0.738 -33.690  1.00  0.00     0.183 A 
HETATM    3  C   UNL     1      -7.638   0.249 -34.100  1.00  0.00     0.124 A 
HETATM    4  N   UNL     1      -7.800  -1.064 -34.408  1.00  0.00    -0.242 NA
HETATM    5  C   UNL     1      -6.685  -1.805 -34.357  1.00  0.00     0.086 A 
HETATM    6  C   UNL     1      -5.427  -1.274 -33.969  1.00  0.00     0.088 A 
HETATM    7  N   UNL     1      -5.259   0.008 -33.599  1.00  0.00    -0.225 NA
HETATM    8  C   UNL     1      -6.773  -3.147 -34.703  1.00  0.00     0.034 A 
HETATM    9  C   UNL     1      -5.653  -3.979 -34.693  1.00  0.00     0.002 A 
HETATM   10  C   UNL     1      -4.420  -3.458 -34.329  1.00  0.00     0.002 A 
HETATM   11  C   UNL     1      -4.320  -2.114 -33.968  1.00  0.00     0.034 A 
HETATM   12  C   UNL     1      -8.579   1.314 -34.048  1.00  0.00     0.104 C 
HETATM   13  C   UNL     1      -7.834   2.457 -33.798  1.00  0.00     0.123 C 
ENDROOT
BRANCH   1  14
HETATM   14  N   UNL     1      -5.857   2.938 -32.580  1.00  0.00    -0.176 NA
HETATM   15  C   UNL     1      -4.875   3.540 -33.164  1.00  0.00     0.150 C 
BRANCH  15  16
HETATM   16  C   UNL     1      -3.794   4.124 -32.334  1.00  0.00    -0.017 A 
HETATM   17  C   UNL     1      -2.470   4.050 -32.770  1.00  0.00     0.013 A 
HETATM   18  C   UNL     1      -1.483   4.828 -32.162  1.00  0.00     0.009 A 
HETATM   19  C   UNL     1      -1.795   5.699 -31.106  1.00  0.00    -0.051 A 
HETATM   20  C   UNL     1      -3.124   5.696 -30.633  1.00  0.00     0.009 A 
HETATM   21  C   UNL     1      -4.122   4.926 -31.246  1.00  0.00     0.013 A 
BRANCH  19  22
HETATM   22  C   UNL     1      -0.748   6.647 -30.493  1.00  0.00    -0.024 C 
HETATM   23  C   UNL     1      -0.164   6.142 -29.151  1.00  0.00     0.019 C 
HETATM   24  C   UNL     1      -1.399   8.018 -30.238  1.00  0.00     0.019 C 
HETATM   25  C   UNL     1       0.451   6.819 -31.455  1.00  0.00     0.019 C 
ENDBRANCH  19  22
ENDBRANCH  15  16
ENDBRANCH   1  14
BRANCH  13  26
HETATM   26  N   UNL     1      -8.196   3.778 -33.766  1.00  0.00    -0.286 NA
HETATM   27  H   UNL     1      -7.420   4.422 -33.577  1.00  0.00     0.125 HD
HETATM   28  H   UNL     1      -8.754   4.122 -34.550  1.00  0.00     0.125 HD
ENDBRANCH  13  26
BRANCH  12  29
HETATM   29  C   UNL     1     -10.035   1.247 -34.135  1.00  0.00     0.257 C 
HETATM   30  N   UNL     1     -10.550   2.146 -35.049  1.00  0.00    -0.354 N 
HETATM   31  H   UNL     1      -9.870   2.725 -35.535  1.00  0.00     0.162 HD
HETATM   32  O   UNL     1     -10.727   0.538 -33.419  1.00  0.00    -0.267 OA
BRANCH  30  33
HETATM   33  C   UNL     1     -11.939   2.553 -35.116  1.00  0.00     0.155 C 
BRANCH  33  34
HETATM   34  C   UNL     1     -12.263   3.872 -34.391  1.00  0.00     0.139 C 
HETATM   35  O   UNL     1     -11.097   4.329 -33.679  1.00  0.00    -0.384 OA
HETATM   36  C   UNL     1     -11.411   4.437 -32.288  1.00  0.00     0.168 C 
HETATM   37  C   UNL     1     -12.677   3.644 -32.064  1.00  0.00     0.029 C 
HETATM   38  C   UNL     1     -13.401   3.818 -33.378  1.00  0.00     0.035 C 
ENDBRANCH  33  34
ENDBRANCH  30  33
ENDBRANCH  12  29
TORSDOF 7
ENDMDL
MODEL 2
REMARK VINA RESULT:      -9.2      1.262      1.962
REMARK  7 active torsions:
REMARK  status: ('A' for Active; 'I' for Inactive)
REMARK    1  A    between atoms: C_2  and  C_3 
REMARK    2  A    between atoms: C_6  and  C_7 
REMARK    3  A    between atoms: N_8  and  N_9 
REMARK    4  A    between atoms: C_20  and  C_21 
REMARK       I    between atoms: C_21  and  N_22 
REMARK    5  A    between atoms: N_22  and  C_23 
REMARK    6  A    between atoms: C_23  and  C_24 
REMARK    7  A    between atoms: C_30  and  N_31 
ROOT
HETATM    1  N   UNL     1      -6.480   2.336 -32.934  1.00  0.00    -0.202 N 
HETATM    2  C   UNL     1      -6.332   1.029 -33.354  1.00  0.00     0.183 A 
HETATM    3  C   UNL     1      -7.615   0.508 -33.529  1.00  0.00     0.124 A 
HETATM    4  N   UNL     1      -7.797  -0.798 -33.849  1.00  0.00    -0.242 NA
HETATM    5  C   UNL     1      -6.674  -1.500 -34.048  1.00  0.00     0.086 A 
HETATM    6  C   UNL     1      -5.379  -0.937 -33.896  1.00  0.00     0.088 A 
HETATM    7  N   UNL     1      -5.178   0.338 -33.518  1.00  0.00    -0.225 NA
HETATM    8  C   UNL     1      -6.790  -2.833 -34.420  1.00  0.00     0.034 A 
HETATM    9  C   UNL     1      -5.667  -3.625 -34.664  1.00  0.00     0.002 A 
HETATM   10  C   UNL     1      -4.401  -3.072 -34.531  1.00  0.00     0.002 A 
HETATM   11  C   UNL     1      -4.270  -1.737 -34.146  1.00  0.00     0.034 A 
HETATM   12  C   UNL     1      -8.557   1.537 -33.251  1.00  0.00     0.104 C 
HETATM   13  C   UNL     1      -7.810   2.698 -33.111  1.00  0.00     0.123 C 
ENDROOT
BRANCH   1  14
HETATM   14  N   UNL     1      -5.646   3.210 -32.290  1.00  0.00    -0.176 NA
HETATM   15  C   UNL     1      -5.076   4.107 -33.025  1.00  0.00     0.150 C 
BRANCH  15  16
HETATM   16  C   UNL     1      -3.850   4.773 -32.525  1.00  0.00    -0.017 A 
HETATM   17  C   UNL     1      -3.939   5.693 -31.479  1.00  0.00     0.013 A 
HETATM   18  C   UNL     1      -2.788   6.112 -30.808  1.00  0.00     0.009 A 
HETATM   19  C   UNL     1      -1.522   5.620 -31.164  1.00  0.00    -0.051 A 
HETATM   20  C   UNL     1      -1.452   4.754 -32.275  1.00  0.00     0.009 A 
HETATM   21  C   UNL     1      -2.603   4.321 -32.946  1.00  0.00     0.013 A 
BRANCH  19  22
HETATM   22  C   UNL     1      -0.253   5.982 -30.370  1.00  0.00    -0.024 C 
HETATM   23  C   UNL     1       0.687   6.960 -31.115  1.00  0.00     0.019 C 
HETATM   24  C   UNL     1       0.540   4.695 -30.078  1.00  0.00     0.019 C 
HETATM   25  C   UNL     1      -0.630   6.667 -29.037  1.00  0.00     0.019 C 
ENDBRANCH  19  22
ENDBRANCH  15  16
ENDBRANCH   1  14
BRANCH  13  26
HETATM   26  N   UNL     1      -8.197   4.003 -32.957  1.00  0.00    -0.286 NA
HETATM   27  H   UNL     1      -9.103   4.227 -33.383  1.00  0.00     0.125 HD
HETATM   28  H   UNL     1      -8.148   4.390 -32.013  1.00  0.00     0.125 HD
ENDBRANCH  13  26
BRANCH  12  29
HETATM   29  C   UNL     1      -9.999   1.421 -33.052  1.00  0.00     0.257 C 
HETATM   30  N   UNL     1     -10.674   2.575 -33.400  1.00  0.00    -0.354 N 
HETATM   31  H   UNL     1     -10.099   3.339 -33.744  1.00  0.00     0.162 HD
HETATM   32  O   UNL     1     -10.540   0.444 -32.552  1.00  0.00    -0.267 OA
BRANCH  30  33
HETATM   33  C   UNL     1     -12.032   2.889 -33.005  1.00  0.00     0.155 C 
BRANCH  33  34
HETATM   34  C   UNL     1     -13.102   2.589 -34.071  1.00  0.00     0.139 C 
HETATM   35  O   UNL     1     -14.372   2.371 -33.428  1.00  0.00    -0.384 OA
HETATM   36  C   UNL     1     -14.847   1.063 -33.759  1.00  0.00     0.168 C 
HETATM   37  C   UNL     1     -13.661   0.291 -34.288  1.00  0.00     0.029 C 
HETATM   38  C   UNL     1     -12.846   1.373 -34.954  1.00  0.00     0.035 C 
ENDBRANCH  33  34
ENDBRANCH  30  33
ENDBRANCH  12  29
TORSDOF 7
ENDMDL
MODEL 3
REMARK VINA RESULT:      -9.1      2.894      7.397
REMARK  7 active torsions:
REMARK  status: ('A' for Active; 'I' for Inactive)
REMARK    1  A    between atoms: C_2  and  C_3 
REMARK    2  A    between atoms: C_6  and  C_7 
REMARK    3  A    between atoms: N_8  and  N_9 
REMARK    4  A    between atoms: C_20  and  C_21 
REMARK       I    between atoms: C_21  and  N_22 
REMARK    5  A    between atoms: N_22  and  C_23 
REMARK    6  A    between atoms: C_23  and  C_24 
REMARK    7  A    between atoms: C_30  and  N_31 
ROOT
HETATM    1  N   UNL     1      -7.214   1.481 -32.360  1.00  0.00    -0.202 N 
HETATM    2  C   UNL     1      -6.683   0.295 -32.829  1.00  0.00     0.183 A 
HETATM    3  C   UNL     1      -5.327   0.298 -32.505  1.00  0.00     0.124 A 
HETATM    4  N   UNL     1      -4.509  -0.702 -32.924  1.00  0.00    -0.242 NA
HETATM    5  C   UNL     1      -5.115  -1.694 -33.589  1.00  0.00     0.086 A 
HETATM    6  C   UNL     1      -6.505  -1.690 -33.876  1.00  0.00     0.088 A 
HETATM    7  N   UNL     1      -7.319  -0.679 -33.525  1.00  0.00    -0.225 NA
HETATM    8  C   UNL     1      -4.343  -2.770 -34.007  1.00  0.00     0.034 A 
HETATM    9  C   UNL     1      -4.904  -3.851 -34.688  1.00  0.00     0.002 A 
HETATM   10  C   UNL     1      -6.265  -3.856 -34.957  1.00  0.00     0.002 A 
HETATM   11  C   UNL     1      -7.050  -2.775 -34.552  1.00  0.00     0.034 A 
HETATM   12  C   UNL     1      -5.041   1.492 -31.786  1.00  0.00     0.104 C 
HETATM   13  C   UNL     1      -6.273   2.074 -31.527  1.00  0.00     0.123 C 
ENDROOT
BRANCH   1  14
HETATM   14  N   UNL     1      -8.349   2.181 -32.667  1.00  0.00    -0.176 NA
HETATM   15  C   UNL     1      -8.354   2.799 -33.802  1.00  0.00     0.150 C 
BRANCH  15  16
HETATM   16  C   UNL     1      -9.306   3.915 -34.008  1.00  0.00    -0.017 A 
HETATM   17  C   UNL     1      -8.975   5.199 -33.569  1.00  0.00     0.013 A 
HETATM   18  C   UNL     1      -9.713   6.304 -33.999  1.00  0.00     0.009 A 
HETATM   19  C   UNL     1     -10.797   6.154 -34.878  1.00  0.00    -0.051 A 
HETATM   20  C   UNL     1     -11.160   4.840 -35.243  1.00  0.00     0.009 A 
HETATM   21  C   UNL     1     -10.417   3.728 -34.825  1.00  0.00     0.013 A 
BRANCH  19  22
HETATM   22  C   UNL     1     -11.556   7.364 -35.452  1.00  0.00    -0.024 C 
HETATM   23  C   UNL     1     -11.903   8.439 -34.393  1.00  0.00     0.019 C 
HETATM   24  C   UNL     1     -12.874   6.879 -36.081  1.00  0.00     0.019 C 
HETATM   25  C   UNL     1     -10.704   8.072 -36.530  1.00  0.00     0.019 C 
ENDBRANCH  19  22
ENDBRANCH  15  16
ENDBRANCH   1  14
BRANCH  13  26
HETATM   26  N   UNL     1      -6.612   3.166 -30.771  1.00  0.00    -0.286 NA
HETATM   27  H   UNL     1      -7.110   2.939 -29.904  1.00  0.00     0.125 HD
HETATM   28  H   UNL     1      -5.871   3.844 -30.583  1.00  0.00     0.125 HD
ENDBRANCH  13  26
BRANCH  12  29
HETATM   29  C   UNL     1      -3.739   2.066 -31.455  1.00  0.00     0.257 C 
HETATM   30  N   UNL     1      -3.681   3.421 -31.714  1.00  0.00    -0.354 N 
HETATM   31  H   UNL     1      -4.528   3.840 -32.090  1.00  0.00     0.162 HD
HETATM   32  O   UNL     1      -2.782   1.407 -31.075  1.00  0.00    -0.267 OA
BRANCH  30  33
HETATM   33  C   UNL     1      -2.457   4.191 -31.815  1.00  0.00     0.155 C 
BRANCH  33  34
HETATM   34  C   UNL     1      -2.547   5.436 -32.716  1.00  0.00     0.139 C 
HETATM   35  O   UNL     1      -3.697   5.325 -33.576  1.00  0.00    -0.384 OA
HETATM   36  C   UNL     1      -3.269   5.374 -34.939  1.00  0.00     0.168 C 
HETATM   37  C   UNL     1      -1.783   5.100 -34.940  1.00  0.00     0.029 C 
HETATM   38  C   UNL     1      -1.348   5.694 -33.622  1.00  0.00     0.035 C 
ENDBRANCH  33  34
ENDBRANCH  30  33
ENDBRANCH  12  29
TORSDOF 7
ENDMDL
MODEL 4
REMARK VINA RESULT:      -8.9      2.641      8.240
REMARK  7 active torsions:
REMARK  status: ('A' for Active; 'I' for Inactive)
REMARK    1  A    between atoms: C_2  and  C_3 
REMARK    2  A    between atoms: C_6  and  C_7 
REMARK    3  A    between atoms: N_8  and  N_9 
REMARK    4  A    between atoms: C_20  and  C_21 
REMARK       I    between atoms: C_21  and  N_22 
REMARK    5  A    between atoms: N_22  and  C_23 
REMARK    6  A    between atoms: C_23  and  C_24 
REMARK    7  A    between atoms: C_30  and  N_31 
ROOT
HETATM    1  N   UNL     1      -8.266   1.364 -31.747  1.00  0.00    -0.202 N 
HETATM    2  C   UNL     1      -7.452   0.433 -32.362  1.00  0.00     0.183 A 
HETATM    3  C   UNL     1      -6.134   0.830 -32.135  1.00  0.00     0.124 A 
HETATM    4  N   UNL     1      -5.098   0.160 -32.702  1.00  0.00    -0.242 NA
HETATM    5  C   UNL     1      -5.439  -0.923 -33.413  1.00  0.00     0.086 A 
HETATM    6  C   UNL     1      -6.788  -1.325 -33.601  1.00  0.00     0.088 A 
HETATM    7  N   UNL     1      -7.830  -0.639 -33.100  1.00  0.00    -0.225 NA
HETATM    8  C   UNL     1      -4.424  -1.680 -33.984  1.00  0.00     0.034 A 
HETATM    9  C   UNL     1      -4.698  -2.831 -34.723  1.00  0.00     0.002 A 
HETATM   10  C   UNL     1      -6.014  -3.235 -34.894  1.00  0.00     0.002 A 
HETATM   11  C   UNL     1      -7.045  -2.477 -34.335  1.00  0.00     0.034 A 
HETATM   12  C   UNL     1      -6.151   2.002 -31.329  1.00  0.00     0.104 C 
HETATM   13  C   UNL     1      -7.471   2.160 -30.931  1.00  0.00     0.123 C 
ENDROOT
BRANCH   1  14
HETATM   14  N   UNL     1      -9.583   1.702 -31.907  1.00  0.00    -0.176 NA
HETATM   15  C   UNL     1      -9.865   2.449 -32.923  1.00  0.00     0.150 C 
BRANCH  15  16
HETATM   16  C   UNL     1     -11.131   3.220 -32.918  1.00  0.00    -0.017 A 
HETATM   17  C   UNL     1     -12.327   2.590 -33.266  1.00  0.00     0.013 A 
HETATM   18  C   UNL     1     -13.552   3.204 -32.998  1.00  0.00     0.009 A 
HETATM   19  C   UNL     1     -13.611   4.460 -32.374  1.00  0.00    -0.051 A 
HETATM   20  C   UNL     1     -12.388   5.110 -32.106  1.00  0.00     0.009 A 
HETATM   21  C   UNL     1     -11.156   4.495 -32.362  1.00  0.00     0.013 A 
BRANCH  19  22
HETATM   22  C   UNL     1     -14.948   5.108 -31.969  1.00  0.00    -0.024 C 
HETATM   23  C   UNL     1     -16.135   4.116 -31.937  1.00  0.00     0.019 C 
HETATM   24  C   UNL     1     -15.292   6.222 -32.974  1.00  0.00     0.019 C 
HETATM   25  C   UNL     1     -14.845   5.713 -30.550  1.00  0.00     0.019 C 
ENDBRANCH  19  22
ENDBRANCH  15  16
ENDBRANCH   1  14
BRANCH  13  26
HETATM   26  N   UNL     1      -8.047   3.041 -30.054  1.00  0.00    -0.286 NA
HETATM   27  H   UNL     1      -7.440   3.317 -29.275  1.00  0.00     0.125 HD
HETATM   28  H   UNL     1      -8.496   3.865 -30.458  1.00  0.00     0.125 HD
ENDBRANCH  13  26
BRANCH  12  29
HETATM   29  C   UNL     1      -5.056   2.923 -31.038  1.00  0.00     0.257 C 
HETATM   30  N   UNL     1      -4.157   3.019 -32.082  1.00  0.00    -0.354 N 
HETATM   31  H   UNL     1      -4.365   2.454 -32.901  1.00  0.00     0.162 HD
HETATM   32  O   UNL     1      -4.905   3.480 -29.960  1.00  0.00    -0.267 OA
BRANCH  30  33
HETATM   33  C   UNL     1      -2.821   3.568 -31.974  1.00  0.00     0.155 C 
BRANCH  33  34
HETATM   34  C   UNL     1      -2.656   4.990 -32.541  1.00  0.00     0.139 C 
HETATM   35  O   UNL     1      -3.733   5.270 -33.456  1.00  0.00    -0.384 OA
HETATM   36  C   UNL     1      -3.186   5.575 -34.742  1.00  0.00     0.168 C 
HETATM   37  C   UNL     1      -1.760   5.079 -34.739  1.00  0.00     0.029 C 
HETATM   38  C   UNL     1      -1.360   5.265 -33.295  1.00  0.00     0.035 C 
ENDBRANCH  33  34
ENDBRANCH  30  33
ENDBRANCH  12  29
TORSDOF 7
ENDMDL
MODEL 5
REMARK VINA RESULT:      -8.8      2.600      7.991
REMARK  7 active torsions:
REMARK  status: ('A' for Active; 'I' for Inactive)
REMARK    1  A    between atoms: C_2  and  C_3 
REMARK    2  A    between atoms: C_6  and  C_7 
REMARK    3  A    between atoms: N_8  and  N_9 
REMARK    4  A    between atoms: C_20  and  C_21 
REMARK       I    between atoms: C_21  and  N_22 
REMARK    5  A    between atoms: N_22  and  C_23 
REMARK    6  A    between atoms: C_23  and  C_24 
REMARK    7  A    between atoms: C_30  and  N_31 
ROOT
HETATM    1  N   UNL     1      -8.321   1.500 -32.300  1.00  0.00    -0.202 N 
HETATM    2  C   UNL     1      -7.511   0.478 -32.758  1.00  0.00     0.183 A 
HETATM    3  C   UNL     1      -6.205   0.793 -32.384  1.00  0.00     0.124 A 
HETATM    4  N   UNL     1      -5.162   0.019 -32.779  1.00  0.00    -0.242 NA
HETATM    5  C   UNL     1      -5.495  -1.077 -33.474  1.00  0.00     0.086 A 
HETATM    6  C   UNL     1      -6.838  -1.393 -33.813  1.00  0.00     0.088 A 
HETATM    7  N   UNL     1      -7.877  -0.606 -33.484  1.00  0.00    -0.225 NA
HETATM    8  C   UNL     1      -4.479  -1.936 -33.872  1.00  0.00     0.034 A 
HETATM    9  C   UNL     1      -4.748  -3.107 -34.582  1.00  0.00     0.002 A 
HETATM   10  C   UNL     1      -6.060  -3.425 -34.900  1.00  0.00     0.002 A 
HETATM   11  C   UNL     1      -7.090  -2.564 -34.516  1.00  0.00     0.034 A 
HETATM   12  C   UNL     1      -6.231   2.009 -31.645  1.00  0.00     0.104 C 
HETATM   13  C   UNL     1      -7.573   2.283 -31.428  1.00  0.00     0.123 C 
ENDROOT
BRANCH   1  14
HETATM   14  N   UNL     1      -9.577   1.920 -32.643  1.00  0.00    -0.176 NA
HETATM   15  C   UNL     1      -9.684   2.555 -33.763  1.00  0.00     0.150 C 
BRANCH  15  16
HETATM   16  C   UNL     1     -10.866   3.420 -33.989  1.00  0.00    -0.017 A 
HETATM   17  C   UNL     1     -11.420   4.129 -32.921  1.00  0.00     0.013 A 
HETATM   18  C   UNL     1     -12.338   5.155 -33.156  1.00  0.00     0.009 A 
HETATM   19  C   UNL     1     -12.721   5.499 -34.462  1.00  0.00    -0.051 A 
HETATM   20  C   UNL     1     -12.208   4.715 -35.517  1.00  0.00     0.009 A 
HETATM   21  C   UNL     1     -11.279   3.692 -35.290  1.00  0.00     0.013 A 
BRANCH  19  22
HETATM   22  C   UNL     1     -13.646   6.696 -34.752  1.00  0.00    -0.024 C 
HETATM   23  C   UNL     1     -12.967   8.071 -34.542  1.00  0.00     0.019 C 
HETATM   24  C   UNL     1     -14.867   6.625 -33.818  1.00  0.00     0.019 C 
HETATM   25  C   UNL     1     -14.122   6.663 -36.223  1.00  0.00     0.019 C 
ENDBRANCH  19  22
ENDBRANCH  15  16
ENDBRANCH   1  14
BRANCH  13  26
HETATM   26  N   UNL     1      -8.184   3.253 -30.677  1.00  0.00    -0.286 NA
HETATM   27  H   UNL     1      -8.714   2.893 -29.876  1.00  0.00     0.125 HD
HETATM   28  H   UNL     1      -7.605   4.044 -30.387  1.00  0.00     0.125 HD
ENDBRANCH  13  26
BRANCH  12  29
HETATM   29  C   UNL     1      -5.112   2.866 -31.262  1.00  0.00     0.257 C 
HETATM   30  N   UNL     1      -4.194   3.021 -32.283  1.00  0.00    -0.354 N 
HETATM   31  H   UNL     1      -4.407   2.535 -33.150  1.00  0.00     0.162 HD
HETATM   32  O   UNL     1      -4.960   3.324 -30.139  1.00  0.00    -0.267 OA
BRANCH  30  33
HETATM   33  C   UNL     1      -2.843   3.515 -32.111  1.00  0.00     0.155 C 
BRANCH  33  34
HETATM   34  C   UNL     1      -2.615   4.960 -32.591  1.00  0.00     0.139 C 
HETATM   35  O   UNL     1      -3.636   5.318 -33.540  1.00  0.00    -0.384 OA
HETATM   36  C   UNL     1      -3.019   5.676 -34.780  1.00  0.00     0.168 C 
HETATM   37  C   UNL     1      -1.607   5.141 -34.734  1.00  0.00     0.029 C 
HETATM   38  C   UNL     1      -1.276   5.239 -33.264  1.00  0.00     0.035 C 
ENDBRANCH  33  34
ENDBRANCH  30  33
ENDBRANCH  12  29
TORSDOF 7
ENDMDL
MODEL 6
REMARK VINA RESULT:      -8.6      2.310      7.874
REMARK  7 active torsions:
REMARK  status: ('A' for Active; 'I' for Inactive)
REMARK    1  A    between atoms: C_2  and  C_3 
REMARK    2  A    between atoms: C_6  and  C_7 
REMARK    3  A    between atoms: N_8  and  N_9 
REMARK    4  A    between atoms: C_20  and  C_21 
REMARK       I    between atoms: C_21  and  N_22 
REMARK    5  A    between atoms: N_22  and  C_23 
REMARK    6  A    between atoms: C_23  and  C_24 
REMARK    7  A    between atoms: C_30  and  N_31 
ROOT
HETATM    1  N   UNL     1      -4.553   2.315 -30.835  1.00  0.00    -0.202 N 
HETATM    2  C   UNL     1      -3.876   3.512 -30.966  1.00  0.00     0.183 A 
HETATM    3  C   UNL     1      -4.698   4.506 -30.435  1.00  0.00     0.124 A 
HETATM    4  N   UNL     1      -4.344   5.815 -30.509  1.00  0.00    -0.242 NA
HETATM    5  C   UNL     1      -3.142   6.051 -31.051  1.00  0.00     0.086 A 
HETATM    6  C   UNL     1      -2.309   5.017 -31.554  1.00  0.00     0.088 A 
HETATM    7  N   UNL     1      -2.670   3.722 -31.547  1.00  0.00    -0.225 NA
HETATM    8  C   UNL     1      -2.699   7.366 -31.117  1.00  0.00     0.034 A 
HETATM    9  C   UNL     1      -1.451   7.691 -31.650  1.00  0.00     0.002 A 
HETATM   10  C   UNL     1      -0.629   6.681 -32.127  1.00  0.00     0.002 A 
HETATM   11  C   UNL     1      -1.067   5.356 -32.078  1.00  0.00     0.034 A 
HETATM   12  C   UNL     1      -5.878   3.890 -29.932  1.00  0.00     0.104 C 
HETATM   13  C   UNL     1      -5.642   2.525 -29.997  1.00  0.00     0.123 C 
ENDROOT
BRANCH   1  14
HETATM   14  N   UNL     1      -4.430   1.100 -31.455  1.00  0.00    -0.176 NA
HETATM   15  C   UNL     1      -4.400   1.115 -32.746  1.00  0.00     0.150 C 
BRANCH  15  16
HETATM   16  C   UNL     1      -4.726  -0.127 -33.487  1.00  0.00    -0.017 A 
HETATM   17  C   UNL     1      -3.827  -1.195 -33.478  1.00  0.00     0.013 A 
HETATM   18  C   UNL     1      -4.228  -2.458 -33.918  1.00  0.00     0.009 A 
HETATM   19  C   UNL     1      -5.535  -2.685 -34.376  1.00  0.00    -0.051 A 
HETATM   20  C   UNL     1      -6.399  -1.571 -34.450  1.00  0.00     0.009 A 
HETATM   21  C   UNL     1      -6.007  -0.304 -33.999  1.00  0.00     0.013 A 
BRANCH  19  22
HETATM   22  C   UNL     1      -6.032  -4.090 -34.763  1.00  0.00    -0.024 C 
HETATM   23  C   UNL     1      -6.252  -4.274 -36.284  1.00  0.00     0.019 C 
HETATM   24  C   UNL     1      -7.373  -4.361 -34.056  1.00  0.00     0.019 C 
HETATM   25  C   UNL     1      -5.002  -5.161 -34.337  1.00  0.00     0.019 C 
ENDBRANCH  19  22
ENDBRANCH  15  16
ENDBRANCH   1  14
BRANCH  13  26
HETATM   26  N   UNL     1      -6.375   1.462 -29.539  1.00  0.00    -0.286 NA
HETATM   27  H   UNL     1      -5.950   0.968 -28.747  1.00  0.00     0.125 HD
HETATM   28  H   UNL     1      -7.366   1.630 -29.356  1.00  0.00     0.125 HD
ENDBRANCH  13  26
BRANCH  12  29
HETATM   29  C   UNL     1      -7.128   4.521 -29.518  1.00  0.00     0.257 C 
HETATM   30  N   UNL     1      -8.217   4.047 -30.224  1.00  0.00    -0.354 N 
HETATM   31  H   UNL     1      -8.018   3.336 -30.923  1.00  0.00     0.162 HD
HETATM   32  O   UNL     1      -7.194   5.428 -28.700  1.00  0.00    -0.267 OA
BRANCH  30  33
HETATM   33  C   UNL     1      -9.509   4.700 -30.287  1.00  0.00     0.155 C 
BRANCH  33  34
HETATM   34  C   UNL     1     -10.097   4.839 -31.702  1.00  0.00     0.139 C 
HETATM   35  O   UNL     1     -11.507   4.550 -31.668  1.00  0.00    -0.384 OA
HETATM   36  C   UNL     1     -11.782   3.454 -32.545  1.00  0.00     0.168 C 
HETATM   37  C   UNL     1     -10.461   2.778 -32.826  1.00  0.00     0.029 C 
HETATM   38  C   UNL     1      -9.492   3.935 -32.771  1.00  0.00     0.035 C 
ENDBRANCH  33  34
ENDBRANCH  30  33
ENDBRANCH  12  29
TORSDOF 7
ENDMDL
MODEL 7
REMARK VINA RESULT:      -8.5      4.017     10.036
REMARK  7 active torsions:
REMARK  status: ('A' for Active; 'I' for Inactive)
REMARK    1  A    between atoms: C_2  and  C_3 
REMARK    2  A    between atoms: C_6  and  C_7 
REMARK    3  A    between atoms: N_8  and  N_9 
REMARK    4  A    between atoms: C_20  and  C_21 
REMARK       I    between atoms: C_21  and  N_22 
REMARK    5  A    between atoms: N_22  and  C_23 
REMARK    6  A    between atoms: C_23  and  C_24 
REMARK    7  A    between atoms: C_30  and  N_31 
ROOT
HETATM    1  N   UNL     1      -4.632   3.808 -32.209  1.00  0.00    -0.202 N 
HETATM    2  C   UNL     1      -5.196   4.679 -31.297  1.00  0.00     0.183 A 
HETATM    3  C   UNL     1      -4.157   5.438 -30.759  1.00  0.00     0.124 A 
HETATM    4  N   UNL     1      -4.388   6.323 -29.755  1.00  0.00    -0.242 NA
HETATM    5  C   UNL     1      -5.672   6.451 -29.392  1.00  0.00     0.086 A 
HETATM    6  C   UNL     1      -6.716   5.690 -29.979  1.00  0.00     0.088 A 
HETATM    7  N   UNL     1      -6.498   4.764 -30.930  1.00  0.00    -0.225 NA
HETATM    8  C   UNL     1      -5.984   7.372 -28.400  1.00  0.00     0.034 A 
HETATM    9  C   UNL     1      -7.299   7.576 -27.980  1.00  0.00     0.002 A 
HETATM   10  C   UNL     1      -8.322   6.845 -28.564  1.00  0.00     0.002 A 
HETATM   11  C   UNL     1      -8.021   5.908 -29.554  1.00  0.00     0.034 A 
HETATM   12  C   UNL     1      -2.944   5.048 -31.392  1.00  0.00     0.104 C 
HETATM   13  C   UNL     1      -3.319   4.208 -32.430  1.00  0.00     0.123 C 
ENDROOT
BRANCH   1  14
HETATM   14  N   UNL     1      -5.061   2.635 -32.768  1.00  0.00    -0.176 NA
HETATM   15  C   UNL     1      -5.471   1.725 -31.948  1.00  0.00     0.150 C 
BRANCH  15  16
HETATM   16  C   UNL     1      -5.513   0.315 -32.403  1.00  0.00    -0.017 A 
HETATM   17  C   UNL     1      -6.700  -0.213 -32.915  1.00  0.00     0.013 A 
HETATM   18  C   UNL     1      -6.691  -1.428 -33.605  1.00  0.00     0.009 A 
HETATM   19  C   UNL     1      -5.499  -2.142 -33.801  1.00  0.00    -0.051 A 
HETATM   20  C   UNL     1      -4.328  -1.627 -33.205  1.00  0.00     0.009 A 
HETATM   21  C   UNL     1      -4.327  -0.404 -32.522  1.00  0.00     0.013 A 
BRANCH  19  22
HETATM   22  C   UNL     1      -5.446  -3.425 -34.651  1.00  0.00    -0.024 C 
HETATM   23  C   UNL     1      -4.439  -4.476 -34.126  1.00  0.00     0.019 C 
HETATM   24  C   UNL     1      -5.040  -3.059 -36.090  1.00  0.00     0.019 C 
HETATM   25  C   UNL     1      -6.830  -4.115 -34.668  1.00  0.00     0.019 C 
ENDBRANCH  19  22
ENDBRANCH  15  16
ENDBRANCH   1  14
BRANCH  13  26
HETATM   26  N   UNL     1      -2.585   3.638 -33.437  1.00  0.00    -0.286 NA
HETATM   27  H   UNL     1      -2.212   2.710 -33.211  1.00  0.00     0.125 HD
HETATM   28  H   UNL     1      -3.008   3.630 -34.367  1.00  0.00     0.125 HD
ENDBRANCH  13  26
BRANCH  12  29
HETATM   29  C   UNL     1      -1.572   5.364 -31.003  1.00  0.00     0.257 C 
HETATM   30  N   UNL     1      -1.487   6.537 -30.278  1.00  0.00    -0.354 N 
HETATM   31  H   UNL     1      -2.365   7.019 -30.108  1.00  0.00     0.162 HD
HETATM   32  O   UNL     1      -0.599   4.712 -31.354  1.00  0.00    -0.267 OA
BRANCH  30  33
HETATM   33  C   UNL     1      -0.264   7.280 -30.049  1.00  0.00     0.155 C 
BRANCH  33  34
HETATM   34  C   UNL     1       0.479   6.922 -28.750  1.00  0.00     0.139 C 
HETATM   35  O   UNL     1      -0.448   6.348 -27.809  1.00  0.00    -0.384 OA
HETATM   36  C   UNL     1      -0.459   7.142 -26.619  1.00  0.00     0.168 C 
HETATM   37  C   UNL     1       0.167   8.470 -26.975  1.00  0.00     0.029 C 
HETATM   38  C   UNL     1       1.171   8.076 -28.033  1.00  0.00     0.035 C 
ENDBRANCH  33  34
ENDBRANCH  30  33
ENDBRANCH  12  29
TORSDOF 7
ENDMDL
MODEL 8
REMARK VINA RESULT:      -8.2      3.662      8.548
REMARK  7 active torsions:
REMARK  status: ('A' for Active; 'I' for Inactive)
REMARK    1  A    between atoms: C_2  and  C_3 
REMARK    2  A    between atoms: C_6  and  C_7 
REMARK    3  A    between atoms: N_8  and  N_9 
REMARK    4  A    between atoms: C_20  and  C_21 
REMARK       I    between atoms: C_21  and  N_22 
REMARK    5  A    between atoms: N_22  and  C_23 
REMARK    6  A    between atoms: C_23  and  C_24 
REMARK    7  A    between atoms: C_30  and  N_31 
ROOT
HETATM    1  N   UNL     1      -4.594   2.827 -30.764  1.00  0.00    -0.202 N 
HETATM    2  C   UNL     1      -3.972   4.026 -31.055  1.00  0.00     0.183 A 
HETATM    3  C   UNL     1      -4.837   5.043 -30.651  1.00  0.00     0.124 A 
HETATM    4  N   UNL     1      -4.542   6.346 -30.897  1.00  0.00    -0.242 NA
HETATM    5  C   UNL     1      -3.353   6.563 -31.475  1.00  0.00     0.086 A 
HETATM    6  C   UNL     1      -2.475   5.510 -31.846  1.00  0.00     0.088 A 
HETATM    7  N   UNL     1      -2.777   4.212 -31.668  1.00  0.00    -0.225 NA
HETATM    8  C   UNL     1      -2.969   7.876 -31.714  1.00  0.00     0.034 A 
HETATM    9  C   UNL     1      -1.739   8.184 -32.295  1.00  0.00     0.002 A 
HETATM   10  C   UNL     1      -0.873   7.158 -32.643  1.00  0.00     0.002 A 
HETATM   11  C   UNL     1      -1.251   5.833 -32.419  1.00  0.00     0.034 A 
HETATM   12  C   UNL     1      -5.987   4.447 -30.063  1.00  0.00     0.104 C 
HETATM   13  C   UNL     1      -5.689   3.096 -29.952  1.00  0.00     0.123 C 
ENDROOT
BRANCH   1  14
HETATM   14  N   UNL     1      -4.417   1.550 -31.222  1.00  0.00    -0.176 NA
HETATM   15  C   UNL     1      -4.853   1.300 -32.412  1.00  0.00     0.150 C 
BRANCH  15  16
HETATM   16  C   UNL     1      -5.119  -0.105 -32.801  1.00  0.00    -0.017 A 
HETATM   17  C   UNL     1      -6.378  -0.463 -33.288  1.00  0.00     0.013 A 
HETATM   18  C   UNL     1      -6.566  -1.694 -33.920  1.00  0.00     0.009 A 
HETATM   19  C   UNL     1      -5.501  -2.595 -34.082  1.00  0.00    -0.051 A 
HETATM   20  C   UNL     1      -4.260  -2.244 -33.511  1.00  0.00     0.009 A 
HETATM   21  C   UNL     1      -4.062  -1.006 -32.885  1.00  0.00     0.013 A 
BRANCH  19  22
HETATM   22  C   UNL     1      -5.657  -3.909 -34.871  1.00  0.00    -0.024 C 
HETATM   23  C   UNL     1      -4.722  -5.041 -34.383  1.00  0.00     0.019 C 
HETATM   24  C   UNL     1      -5.345  -3.644 -36.354  1.00  0.00     0.019 C 
HETATM   25  C   UNL     1      -7.101  -4.447 -34.739  1.00  0.00     0.019 C 
ENDBRANCH  19  22
ENDBRANCH  15  16
ENDBRANCH   1  14
BRANCH  13  26
HETATM   26  N   UNL     1      -6.373   2.070 -29.354  1.00  0.00    -0.286 NA
HETATM   27  H   UNL     1      -6.977   1.540 -29.991  1.00  0.00     0.125 HD
HETATM   28  H   UNL     1      -5.827   1.430 -28.775  1.00  0.00     0.125 HD
ENDBRANCH  13  26
BRANCH  12  29
HETATM   29  C   UNL     1      -7.263   5.070 -29.724  1.00  0.00     0.257 C 
HETATM   30  N   UNL     1      -7.111   6.163 -28.894  1.00  0.00    -0.354 N 
HETATM   31  H   UNL     1      -6.157   6.393 -28.631  1.00  0.00     0.162 HD
HETATM   32  O   UNL     1      -8.349   4.624 -30.065  1.00  0.00    -0.267 OA
BRANCH  30  33
HETATM   33  C   UNL     1      -8.178   6.770 -28.124  1.00  0.00     0.155 C 
BRANCH  33  34
HETATM   34  C   UNL     1      -8.529   8.213 -28.528  1.00  0.00     0.139 C 
HETATM   35  O   UNL     1      -7.523   8.720 -29.425  1.00  0.00    -0.384 OA
HETATM   36  C   UNL     1      -6.934   9.891 -28.854  1.00  0.00     0.168 C 
HETATM   37  C   UNL     1      -7.291   9.888 -27.387  1.00  0.00     0.029 C 
HETATM   38  C   UNL     1      -8.645   9.220 -27.389  1.00  0.00     0.035 C 
ENDBRANCH  33  34
ENDBRANCH  30  33
ENDBRANCH  12  29
TORSDOF 7
ENDMDL
MODEL 9
REMARK VINA RESULT:      -8.0      2.379      6.079
REMARK  7 active torsions:
REMARK  status: ('A' for Active; 'I' for Inactive)
REMARK    1  A    between atoms: C_2  and  C_3 
REMARK    2  A    between atoms: C_6  and  C_7 
REMARK    3  A    between atoms: N_8  and  N_9 
REMARK    4  A    between atoms: C_20  and  C_21 
REMARK       I    between atoms: C_21  and  N_22 
REMARK    5  A    between atoms: N_22  and  C_23 
REMARK    6  A    between atoms: C_23  and  C_24 
REMARK    7  A    between atoms: C_30  and  N_31 
ROOT
HETATM    1  N   UNL     1      -6.405   3.080 -30.833  1.00  0.00    -0.202 N 
HETATM    2  C   UNL     1      -7.680   2.951 -31.352  1.00  0.00     0.183 A 
HETATM    3  C   UNL     1      -7.638   1.915 -32.285  1.00  0.00     0.124 A 
HETATM    4  N   UNL     1      -8.726   1.613 -33.039  1.00  0.00    -0.242 NA
HETATM    5  C   UNL     1      -9.827   2.325 -32.762  1.00  0.00     0.086 A 
HETATM    6  C   UNL     1      -9.852   3.352 -31.782  1.00  0.00     0.088 A 
HETATM    7  N   UNL     1      -8.768   3.707 -31.071  1.00  0.00    -0.225 NA
HETATM    8  C   UNL     1     -10.989   2.036 -33.467  1.00  0.00     0.034 A 
HETATM    9  C   UNL     1     -12.181   2.720 -33.223  1.00  0.00     0.002 A 
HETATM   10  C   UNL     1     -12.211   3.713 -32.255  1.00  0.00     0.002 A 
HETATM   11  C   UNL     1     -11.048   4.021 -31.547  1.00  0.00     0.034 A 
HETATM   12  C   UNL     1      -6.320   1.378 -32.299  1.00  0.00     0.104 C 
HETATM   13  C   UNL     1      -5.664   1.975 -31.233  1.00  0.00     0.123 C 
ENDROOT
BRANCH   1  14
HETATM   14  N   UNL     1      -5.764   4.095 -30.177  1.00  0.00    -0.176 NA
HETATM   15  C   UNL     1      -5.357   5.082 -30.904  1.00  0.00     0.150 C 
BRANCH  15  16
HETATM   16  C   UNL     1      -4.288   5.967 -30.381  1.00  0.00    -0.017 A 
HETATM   17  C   UNL     1      -4.458   6.606 -29.151  1.00  0.00     0.013 A 
HETATM   18  C   UNL     1      -3.370   7.204 -28.512  1.00  0.00     0.009 A 
HETATM   19  C   UNL     1      -2.088   7.177 -29.084  1.00  0.00    -0.051 A 
HETATM   20  C   UNL     1      -1.961   6.596 -30.364  1.00  0.00     0.009 A 
HETATM   21  C   UNL     1      -3.045   5.984 -31.006  1.00  0.00     0.013 A 
BRANCH  19  22
HETATM   22  C   UNL     1      -0.854   7.733 -28.349  1.00  0.00    -0.024 C 
HETATM   23  C   UNL     1       0.476   7.504 -29.107  1.00  0.00     0.019 C 
HETATM   24  C   UNL     1      -0.738   7.049 -26.975  1.00  0.00     0.019 C 
HETATM   25  C   UNL     1      -0.988   9.261 -28.153  1.00  0.00     0.019 C 
ENDBRANCH  19  22
ENDBRANCH  15  16
ENDBRANCH   1  14
BRANCH  13  26
HETATM   26  N   UNL     1      -4.422   1.748 -30.699  1.00  0.00    -0.286 NA
HETATM   27  H   UNL     1      -3.758   1.315 -31.350  1.00  0.00     0.125 HD
HETATM   28  H   UNL     1      -3.979   2.530 -30.215  1.00  0.00     0.125 HD
ENDBRANCH  13  26
BRANCH  12  29
HETATM   29  C   UNL     1      -5.720   0.466 -33.269  1.00  0.00     0.257 C 
HETATM   30  N   UNL     1      -6.662  -0.134 -34.082  1.00  0.00    -0.354 N 
HETATM   31  H   UNL     1      -7.629   0.128 -33.910  1.00  0.00     0.162 HD
HETATM   32  O   UNL     1      -4.527   0.197 -33.301  1.00  0.00    -0.267 OA
BRANCH  30  33
HETATM   33  C   UNL     1      -6.425  -1.313 -34.890  1.00  0.00     0.155 C 
BRANCH  33  34
HETATM   34  C   UNL     1      -6.322  -2.630 -34.100  1.00  0.00     0.139 C 
HETATM   35  O   UNL     1      -4.943  -3.040 -34.026  1.00  0.00    -0.384 OA
HETATM   36  C   UNL     1      -4.807  -4.334 -34.618  1.00  0.00     0.168 C 
HETATM   37  C   UNL     1      -6.049  -4.569 -35.445  1.00  0.00     0.029 C 
HETATM   38  C   UNL     1      -7.099  -3.814 -34.665  1.00  0.00     0.035 C 
ENDBRANCH  33  34
ENDBRANCH  30  33
ENDBRANCH  12  29
TORSDOF 7
ENDMDL
MODEL 10
REMARK VINA RESULT:      -8.0      3.456      7.935
REMARK  7 active torsions:
REMARK  status: ('A' for Active; 'I' for Inactive)
REMARK    1  A    between atoms: C_2  and  C_3 
REMARK    2  A    between atoms: C_6  and  C_7 
REMARK    3  A    between atoms: N_8  and  N_9 
REMARK    4  A    between atoms: C_20  and  C_21 
REMARK       I    between atoms: C_21  and  N_22 
REMARK    5  A    between atoms: N_22  and  C_23 
REMARK    6  A    between atoms: C_23  and  C_24 
REMARK    7  A    between atoms: C_30  and  N_31 
ROOT
HETATM    1  N   UNL     1     -10.267   3.046 -33.130  1.00  0.00    -0.202 N 
HETATM    2  C   UNL     1     -11.629   3.121 -32.913  1.00  0.00     0.183 A 
HETATM    3  C   UNL     1     -11.870   4.320 -32.242  1.00  0.00     0.124 A 
HETATM    4  N   UNL     1     -13.116   4.633 -31.802  1.00  0.00    -0.242 NA
HETATM    5  C   UNL     1     -14.073   3.753 -32.125  1.00  0.00     0.086 A 
HETATM    6  C   UNL     1     -13.807   2.556 -32.840  1.00  0.00     0.088 A 
HETATM    7  N   UNL     1     -12.570   2.198 -33.228  1.00  0.00    -0.225 NA
HETATM    8  C   UNL     1     -15.379   4.035 -31.743  1.00  0.00     0.034 A 
HETATM    9  C   UNL     1     -16.433   3.178 -32.059  1.00  0.00     0.002 A 
HETATM   10  C   UNL     1     -16.178   2.015 -32.771  1.00  0.00     0.002 A 
HETATM   11  C   UNL     1     -14.868   1.714 -33.151  1.00  0.00     0.034 A 
HETATM   12  C   UNL     1     -10.632   5.004 -32.089  1.00  0.00     0.104 C 
HETATM   13  C   UNL     1      -9.716   4.290 -32.847  1.00  0.00     0.123 C 
ENDROOT
BRANCH   1  14
HETATM   14  N   UNL     1      -9.423   2.005 -33.408  1.00  0.00    -0.176 NA
HETATM   15  C   UNL     1      -9.285   1.114 -32.482  1.00  0.00     0.150 C 
BRANCH  15  16
HETATM   16  C   UNL     1      -8.090   0.237 -32.500  1.00  0.00    -0.017 A 
HETATM   17  C   UNL     1      -7.838  -0.567 -33.613  1.00  0.00     0.013 A 
HETATM   18  C   UNL     1      -6.591  -1.174 -33.776  1.00  0.00     0.009 A 
HETATM   19  C   UNL     1      -5.567  -0.992 -32.833  1.00  0.00    -0.051 A 
HETATM   20  C   UNL     1      -5.874  -0.241 -31.678  1.00  0.00     0.009 A 
HETATM   21  C   UNL     1      -7.119   0.380 -31.514  1.00  0.00     0.013 A 
BRANCH  19  22
HETATM   22  C   UNL     1      -4.152  -1.561 -33.044  1.00  0.00    -0.024 C 
HETATM   23  C   UNL     1      -3.576  -2.274 -31.797  1.00  0.00     0.019 C 
HETATM   24  C   UNL     1      -3.198  -0.411 -33.413  1.00  0.00     0.019 C 
HETATM   25  C   UNL     1      -4.158  -2.608 -34.183  1.00  0.00     0.019 C 
ENDBRANCH  19  22
ENDBRANCH  15  16
ENDBRANCH   1  14
BRANCH  13  26
HETATM   26  N   UNL     1      -8.409   4.553 -33.163  1.00  0.00    -0.286 NA
HETATM   27  H   UNL     1      -7.737   4.271 -32.442  1.00  0.00     0.125 HD
HETATM   28  H   UNL     1      -8.087   4.246 -34.083  1.00  0.00     0.125 HD
ENDBRANCH  13  26
BRANCH  12  29
HETATM   29  C   UNL     1     -10.327   6.157 -31.246  1.00  0.00     0.257 C 
HETATM   30  N   UNL     1      -9.166   5.985 -30.518  1.00  0.00    -0.354 N 
HETATM   31  H   UNL     1      -8.681   5.103 -30.657  1.00  0.00     0.162 HD
HETATM   32  O   UNL     1     -11.061   7.128 -31.131  1.00  0.00    -0.267 OA
BRANCH  30  33
HETATM   33  C   UNL     1      -8.788   6.778 -29.366  1.00  0.00     0.155 C 
BRANCH  33  34
HETATM   34  C   UNL     1      -7.971   6.026 -28.300  1.00  0.00     0.139 C 
HETATM   35  O   UNL     1      -7.052   6.935 -27.667  1.00  0.00    -0.384 OA
HETATM   36  C   UNL     1      -5.717   6.456 -27.854  1.00  0.00     0.168 C 
HETATM   37  C   UNL     1      -5.770   5.443 -28.973  1.00  0.00     0.029 C 
HETATM   38  C   UNL     1      -7.145   4.845 -28.798  1.00  0.00     0.035 C 
ENDBRANCH  33  34
ENDBRANCH  30  33
ENDBRANCH  12  29
TORSDOF 7
ENDMDL
