MODEL 1
REMARK VINA RESULT:     -10.6      0.000      0.000
REMARK  5 active torsions:
REMARK  status: ('A' for Active; 'I' for Inactive)
REMARK    1  A    between atoms: C_3  and  O_4 
REMARK    2  A    between atoms: C_6  and  N_7 
REMARK       I    between atoms: N_7  and  C_8 
REMARK    3  A    between atoms: C_8  and  C_9 
REMARK    4  A    between atoms: C_12  and  C_13 
REMARK    5  A    between atoms: C_18  and  C_19 
ROOT
HETATM    1  C   UNL     1      -5.397   1.464 -31.838  1.00  0.00     0.096 A 
HETATM    2  C   UNL     1      -6.057   0.831 -32.875  1.00  0.00     0.138 A 
HETATM    3  N   UNL     1      -7.275   0.443 -32.366  1.00  0.00    -0.240 N 
HETATM    4  C   UNL     1      -8.260  -0.330 -33.101  1.00  0.00     0.221 C 
HETATM    5  C   UNL     1      -7.969  -0.260 -34.611  1.00  0.00     0.066 C 
HETATM    6  C   UNL     1      -6.478  -0.459 -34.914  1.00  0.00     0.118 C 
HETATM    7  N   UNL     1      -5.693   0.524 -34.153  1.00  0.00    -0.365 N 
HETATM    8  N   UNL     1      -7.392   0.654 -31.046  1.00  0.00    -0.181 NA
HETATM    9  C   UNL     1      -6.263   1.295 -30.731  1.00  0.00     0.160 A 
HETATM   10  H   UNL     1      -4.696   0.467 -34.371  1.00  0.00     0.161 HD
ENDROOT
BRANCH   1  11
HETATM   11  C   UNL     1      -4.091   2.100 -31.831  1.00  0.00     0.261 C 
HETATM   12  N   UNL     1      -4.105   3.372 -32.373  1.00  0.00    -0.323 N 
HETATM   13  H   UNL     1      -5.028   3.750 -32.561  1.00  0.00     0.169 HD
HETATM   14  O   UNL     1      -3.121   1.529 -31.348  1.00  0.00    -0.267 OA
BRANCH  12  15
HETATM   15  C   UNL     1      -3.009   4.220 -32.616  1.00  0.00     0.037 A 
HETATM   16  C   UNL     1      -2.433   4.410 -33.874  1.00  0.00     0.066 A 
HETATM   17  C   UNL     1      -1.367   5.294 -34.024  1.00  0.00     0.067 A 
HETATM   18  C   UNL     1      -0.853   5.995 -32.938  1.00  0.00     0.036 A 
HETATM   19  C   UNL     1      -1.423   5.811 -31.680  1.00  0.00     0.005 A 
HETATM   20  C   UNL     1      -2.498   4.931 -31.521  1.00  0.00     0.029 A 
BRANCH  17  21
HETATM   21  O   UNL     1      -0.848   5.456 -35.276  1.00  0.00    -0.361 OA
HETATM   22  H   UNL     1      -1.309   4.859 -35.887  1.00  0.00     0.217 HD
ENDBRANCH  17  21
ENDBRANCH  12  15
ENDBRANCH   1  11
BRANCH   4  23
HETATM   23  C   UNL     1      -9.669   0.158 -32.839  1.00  0.00     0.409 C 
HETATM   24  F   UNL     1      -9.702   1.184 -31.958  1.00  0.00    -0.169 F 
HETATM   25  F   UNL     1     -10.207   0.632 -33.998  1.00  0.00    -0.169 F 
HETATM   26  F   UNL     1     -10.508  -0.804 -32.406  1.00  0.00    -0.169 F 
ENDBRANCH   4  23
BRANCH   6  27
HETATM   27  C   UNL     1      -6.010  -1.897 -34.718  1.00  0.00    -0.035 A 
HETATM   28  C   UNL     1      -4.710  -2.122 -34.220  1.00  0.00     0.012 A 
HETATM   29  C   UNL     1      -4.227  -3.418 -34.028  1.00  0.00     0.043 A 
HETATM   30  C   UNL     1      -5.039  -4.503 -34.326  1.00  0.00     0.116 A 
HETATM   31  F   UNL     1      -4.577  -5.746 -34.139  1.00  0.00    -0.206 F 
HETATM   32  C   UNL     1      -6.323  -4.315 -34.814  1.00  0.00     0.043 A 
HETATM   33  C   UNL     1      -6.807  -3.019 -35.010  1.00  0.00     0.012 A 
ENDBRANCH   6  27
TORSDOF 5
ENDMDL
MODEL 2
REMARK VINA RESULT:     -10.2      3.996      7.244
REMARK  5 active torsions:
REMARK  status: ('A' for Active; 'I' for Inactive)
REMARK    1  A    between atoms: C_3  and  O_4 
REMARK    2  A    between atoms: C_6  and  N_7 
REMARK       I    between atoms: N_7  and  C_8 
REMARK    3  A    between atoms: C_8  and  C_9 
REMARK    4  A    between atoms: C_12  and  C_13 
REMARK    5  A    between atoms: C_18  and  C_19 
ROOT
HETATM    1  C   UNL     1      -8.042   2.832 -32.935  1.00  0.00     0.096 A 
HETATM    2  C   UNL     1      -7.082   1.996 -32.395  1.00  0.00     0.138 A 
HETATM    3  N   UNL     1      -5.868   2.556 -32.721  1.00  0.00    -0.240 N 
HETATM    4  C   UNL     1      -4.581   1.956 -32.415  1.00  0.00     0.221 C 
HETATM    5  C   UNL     1      -4.742   0.890 -31.316  1.00  0.00     0.066 C 
HETATM    6  C   UNL     1      -5.952  -0.017 -31.575  1.00  0.00     0.118 C 
HETATM    7  N   UNL     1      -7.157   0.812 -31.722  1.00  0.00    -0.365 N 
HETATM    8  N   UNL     1      -5.972   3.609 -33.545  1.00  0.00    -0.181 NA
HETATM    9  C   UNL     1      -7.291   3.790 -33.655  1.00  0.00     0.160 A 
HETATM   10  H   UNL     1      -8.000   0.244 -31.836  1.00  0.00     0.161 HD
ENDROOT
BRANCH   1  11
HETATM   11  C   UNL     1      -9.490   2.737 -32.861  1.00  0.00     0.261 C 
HETATM   12  N   UNL     1     -10.004   1.699 -33.615  1.00  0.00    -0.323 N 
HETATM   13  H   UNL     1      -9.314   1.057 -33.991  1.00  0.00     0.169 HD
HETATM   14  O   UNL     1     -10.131   3.508 -32.156  1.00  0.00    -0.267 OA
BRANCH  12  15
HETATM   15  C   UNL     1     -11.356   1.389 -33.851  1.00  0.00     0.037 A 
HETATM   16  C   UNL     1     -11.975   0.217 -33.413  1.00  0.00     0.066 A 
HETATM   17  C   UNL     1     -13.330   0.009 -33.669  1.00  0.00     0.067 A 
HETATM   18  C   UNL     1     -14.084   0.948 -34.364  1.00  0.00     0.036 A 
HETATM   19  C   UNL     1     -13.472   2.119 -34.804  1.00  0.00     0.005 A 
HETATM   20  C   UNL     1     -12.117   2.340 -34.545  1.00  0.00     0.029 A 
BRANCH  17  21
HETATM   21  O   UNL     1     -13.892  -1.145 -33.207  1.00  0.00    -0.361 OA
HETATM   22  H   UNL     1     -13.505  -1.897 -33.683  1.00  0.00     0.217 HD
ENDBRANCH  17  21
ENDBRANCH  12  15
ENDBRANCH   1  11
BRANCH   4  23
HETATM   23  C   UNL     1      -3.570   2.990 -31.966  1.00  0.00     0.409 C 
HETATM   24  F   UNL     1      -4.151   4.038 -31.338  1.00  0.00    -0.169 F 
HETATM   25  F   UNL     1      -2.717   2.427 -31.065  1.00  0.00    -0.169 F 
HETATM   26  F   UNL     1      -2.798   3.466 -32.963  1.00  0.00    -0.169 F 
ENDBRANCH   4  23
BRANCH   6  27
HETATM   27  C   UNL     1      -5.739  -0.993 -32.727  1.00  0.00    -0.035 A 
HETATM   28  C   UNL     1      -6.826  -1.279 -33.579  1.00  0.00     0.012 A 
HETATM   29  C   UNL     1      -6.690  -2.171 -34.645  1.00  0.00     0.043 A 
HETATM   30  C   UNL     1      -5.465  -2.780 -34.876  1.00  0.00     0.116 A 
HETATM   31  F   UNL     1      -5.333  -3.633 -35.901  1.00  0.00    -0.206 F 
HETATM   32  C   UNL     1      -4.376  -2.517 -34.059  1.00  0.00     0.043 A 
HETATM   33  C   UNL     1      -4.511  -1.628 -32.989  1.00  0.00     0.012 A 
ENDBRANCH   6  27
TORSDOF 5
ENDMDL
MODEL 3
REMARK VINA RESULT:      -9.3      3.480      7.465
REMARK  5 active torsions:
REMARK  status: ('A' for Active; 'I' for Inactive)
REMARK    1  A    between atoms: C_3  and  O_4 
REMARK    2  A    between atoms: C_6  and  N_7 
REMARK       I    between atoms: N_7  and  C_8 
REMARK    3  A    between atoms: C_8  and  C_9 
REMARK    4  A    between atoms: C_12  and  C_13 
REMARK    5  A    between atoms: C_18  and  C_19 
ROOT
HETATM    1  C   UNL     1      -6.792   1.655 -33.584  1.00  0.00     0.096 A 
HETATM    2  C   UNL     1      -5.982   2.256 -32.638  1.00  0.00     0.138 A 
HETATM    3  N   UNL     1      -6.658   3.380 -32.222  1.00  0.00    -0.240 N 
HETATM    4  C   UNL     1      -6.128   4.353 -31.283  1.00  0.00     0.221 C 
HETATM    5  C   UNL     1      -4.953   3.743 -30.496  1.00  0.00     0.066 C 
HETATM    6  C   UNL     1      -3.989   2.979 -31.413  1.00  0.00     0.118 C 
HETATM    7  N   UNL     1      -4.737   1.962 -32.165  1.00  0.00    -0.365 N 
HETATM    8  N   UNL     1      -7.774   3.621 -32.925  1.00  0.00    -0.181 NA
HETATM    9  C   UNL     1      -7.867   2.562 -33.735  1.00  0.00     0.160 A 
HETATM   10  H   UNL     1      -4.122   1.387 -32.745  1.00  0.00     0.161 HD
ENDROOT
BRANCH   1  11
HETATM   11  C   UNL     1      -6.585   0.420 -34.321  1.00  0.00     0.261 C 
HETATM   12  N   UNL     1      -6.223  -0.639 -33.511  1.00  0.00    -0.323 N 
HETATM   13  H   UNL     1      -6.295  -0.465 -32.515  1.00  0.00     0.169 HD
HETATM   14  O   UNL     1      -6.763   0.379 -35.533  1.00  0.00    -0.267 OA
BRANCH  12  15
HETATM   15  C   UNL     1      -5.847  -1.938 -33.903  1.00  0.00     0.037 A 
HETATM   16  C   UNL     1      -6.711  -2.848 -34.516  1.00  0.00     0.066 A 
HETATM   17  C   UNL     1      -6.241  -4.104 -34.896  1.00  0.00     0.067 A 
HETATM   18  C   UNL     1      -4.921  -4.478 -34.670  1.00  0.00     0.036 A 
HETATM   19  C   UNL     1      -4.054  -3.575 -34.060  1.00  0.00     0.005 A 
HETATM   20  C   UNL     1      -4.514  -2.310 -33.682  1.00  0.00     0.029 A 
BRANCH  17  21
HETATM   21  O   UNL     1      -7.120  -4.953 -35.504  1.00  0.00    -0.361 OA
HETATM   22  H   UNL     1      -7.746  -5.286 -34.842  1.00  0.00     0.217 HD
ENDBRANCH  17  21
ENDBRANCH  12  15
ENDBRANCH   1  11
BRANCH   4  23
HETATM   23  C   UNL     1      -7.186   4.833 -30.312  1.00  0.00     0.409 C 
HETATM   24  F   UNL     1      -6.654   5.272 -29.148  1.00  0.00    -0.169 F 
HETATM   25  F   UNL     1      -7.849   5.893 -30.855  1.00  0.00    -0.169 F 
HETATM   26  F   UNL     1      -8.126   3.910 -30.030  1.00  0.00    -0.169 F 
ENDBRANCH   4  23
BRANCH   6  27
HETATM   27  C   UNL     1      -3.145   3.892 -32.295  1.00  0.00    -0.035 A 
HETATM   28  C   UNL     1      -1.977   4.467 -31.751  1.00  0.00     0.012 A 
HETATM   29  C   UNL     1      -1.171   5.316 -32.512  1.00  0.00     0.043 A 
HETATM   30  C   UNL     1      -1.518   5.595 -33.826  1.00  0.00     0.116 A 
HETATM   31  F   UNL     1      -0.743   6.407 -34.556  1.00  0.00    -0.206 F 
HETATM   32  C   UNL     1      -2.658   5.044 -34.391  1.00  0.00     0.043 A 
HETATM   33  C   UNL     1      -3.468   4.197 -33.631  1.00  0.00     0.012 A 
ENDBRANCH   6  27
TORSDOF 5
ENDMDL
MODEL 4
REMARK VINA RESULT:      -9.1      3.070      7.639
REMARK  5 active torsions:
REMARK  status: ('A' for Active; 'I' for Inactive)
REMARK    1  A    between atoms: C_3  and  O_4 
REMARK    2  A    between atoms: C_6  and  N_7 
REMARK       I    between atoms: N_7  and  C_8 
REMARK    3  A    between atoms: C_8  and  C_9 
REMARK    4  A    between atoms: C_12  and  C_13 
REMARK    5  A    between atoms: C_18  and  C_19 
ROOT
HETATM    1  C   UNL     1      -5.772   0.945 -33.085  1.00  0.00     0.096 A 
HETATM    2  C   UNL     1      -5.374   1.916 -32.184  1.00  0.00     0.138 A 
HETATM    3  N   UNL     1      -6.390   2.844 -32.157  1.00  0.00    -0.240 N 
HETATM    4  C   UNL     1      -6.350   4.079 -31.394  1.00  0.00     0.221 C 
HETATM    5  C   UNL     1      -5.266   3.993 -30.304  1.00  0.00     0.066 C 
HETATM    6  C   UNL     1      -3.959   3.400 -30.845  1.00  0.00     0.118 C 
HETATM    7  N   UNL     1      -4.235   2.091 -31.455  1.00  0.00    -0.365 N 
HETATM    8  N   UNL     1      -7.344   2.617 -33.072  1.00  0.00    -0.181 NA
HETATM    9  C   UNL     1      -6.980   1.452 -33.619  1.00  0.00     0.160 A 
HETATM   10  H   UNL     1      -3.380   1.631 -31.776  1.00  0.00     0.161 HD
ENDROOT
BRANCH   1  11
HETATM   11  C   UNL     1      -5.097  -0.282 -33.472  1.00  0.00     0.261 C 
HETATM   12  N   UNL     1      -5.969  -1.269 -33.893  1.00  0.00    -0.323 N 
HETATM   13  H   UNL     1      -6.930  -0.969 -34.022  1.00  0.00     0.169 HD
HETATM   14  O   UNL     1      -3.875  -0.361 -33.439  1.00  0.00    -0.267 OA
BRANCH  12  15
HETATM   15  C   UNL     1      -5.668  -2.600 -34.235  1.00  0.00     0.037 A 
HETATM   16  C   UNL     1      -4.493  -3.255 -33.861  1.00  0.00     0.066 A 
HETATM   17  C   UNL     1      -4.294  -4.587 -34.221  1.00  0.00     0.067 A 
HETATM   18  C   UNL     1      -5.246  -5.283 -34.958  1.00  0.00     0.036 A 
HETATM   19  C   UNL     1      -6.420  -4.636 -35.335  1.00  0.00     0.005 A 
HETATM   20  C   UNL     1      -6.632  -3.303 -34.971  1.00  0.00     0.029 A 
BRANCH  17  21
HETATM   21  O   UNL     1      -3.136  -5.187 -33.819  1.00  0.00    -0.361 OA
HETATM   22  H   UNL     1      -2.848  -4.787 -32.983  1.00  0.00     0.217 HD
ENDBRANCH  17  21
ENDBRANCH  12  15
ENDBRANCH   1  11
BRANCH   4  23
HETATM   23  C   UNL     1      -7.685   4.388 -30.750  1.00  0.00     0.409 C 
HETATM   24  F   UNL     1      -7.565   5.218 -29.689  1.00  0.00    -0.169 F 
HETATM   25  F   UNL     1      -8.483   5.028 -31.650  1.00  0.00    -0.169 F 
HETATM   26  F   UNL     1      -8.368   3.293 -30.360  1.00  0.00    -0.169 F 
ENDBRANCH   4  23
BRANCH   6  27
HETATM   27  C   UNL     1      -3.199   4.352 -31.763  1.00  0.00    -0.035 A 
HETATM   28  C   UNL     1      -3.068   5.701 -31.375  1.00  0.00     0.012 A 
HETATM   29  C   UNL     1      -2.389   6.618 -32.180  1.00  0.00     0.043 A 
HETATM   30  C   UNL     1      -1.828   6.196 -33.377  1.00  0.00     0.116 A 
HETATM   31  F   UNL     1      -1.174   7.075 -34.147  1.00  0.00    -0.206 F 
HETATM   32  C   UNL     1      -1.936   4.875 -33.784  1.00  0.00     0.043 A 
HETATM   33  C   UNL     1      -2.619   3.956 -32.982  1.00  0.00     0.012 A 
ENDBRANCH   6  27
TORSDOF 5
ENDMDL
MODEL 5
REMARK VINA RESULT:      -8.9      4.253      7.215
REMARK  5 active torsions:
REMARK  status: ('A' for Active; 'I' for Inactive)
REMARK    1  A    between atoms: C_3  and  O_4 
REMARK    2  A    between atoms: C_6  and  N_7 
REMARK       I    between atoms: N_7  and  C_8 
REMARK    3  A    between atoms: C_8  and  C_9 
REMARK    4  A    between atoms: C_12  and  C_13 
REMARK    5  A    between atoms: C_18  and  C_19 
ROOT
HETATM    1  C   UNL     1      -7.174   3.421 -32.928  1.00  0.00     0.096 A 
HETATM    2  C   UNL     1      -6.043   2.985 -32.262  1.00  0.00     0.138 A 
HETATM    3  N   UNL     1      -4.973   3.459 -32.985  1.00  0.00    -0.240 N 
HETATM    4  C   UNL     1      -3.584   3.165 -32.679  1.00  0.00     0.221 C 
HETATM    5  C   UNL     1      -3.456   2.660 -31.230  1.00  0.00     0.066 C 
HETATM    6  C   UNL     1      -4.537   1.625 -30.891  1.00  0.00     0.118 C 
HETATM    7  N   UNL     1      -5.862   2.201 -31.161  1.00  0.00    -0.365 N 
HETATM    8  N   UNL     1      -5.327   4.046 -34.138  1.00  0.00    -0.181 NA
HETATM    9  C   UNL     1      -6.663   4.043 -34.092  1.00  0.00     0.160 A 
HETATM   10  H   UNL     1      -6.616   1.565 -30.891  1.00  0.00     0.161 HD
ENDROOT
BRANCH   1  11
HETATM   11  C   UNL     1      -8.573   3.238 -32.582  1.00  0.00     0.261 C 
HETATM   12  N   UNL     1      -9.314   2.676 -33.605  1.00  0.00    -0.323 N 
HETATM   13  H   UNL     1      -8.772   2.330 -34.390  1.00  0.00     0.169 HD
HETATM   14  O   UNL     1      -8.986   3.538 -31.469  1.00  0.00    -0.267 OA
BRANCH  12  15
HETATM   15  C   UNL     1     -10.704   2.460 -33.648  1.00  0.00     0.037 A 
HETATM   16  C   UNL     1     -11.651   3.483 -33.703  1.00  0.00     0.066 A 
HETATM   17  C   UNL     1     -13.008   3.172 -33.772  1.00  0.00     0.067 A 
HETATM   18  C   UNL     1     -13.445   1.851 -33.782  1.00  0.00     0.036 A 
HETATM   19  C   UNL     1     -12.505   0.825 -33.728  1.00  0.00     0.005 A 
HETATM   20  C   UNL     1     -11.141   1.128 -33.666  1.00  0.00     0.029 A 
BRANCH  17  21
HETATM   21  O   UNL     1     -13.894   4.207 -33.838  1.00  0.00    -0.361 OA
HETATM   22  H   UNL     1     -13.402   5.044 -33.833  1.00  0.00     0.217 HD
ENDBRANCH  17  21
ENDBRANCH  12  15
ENDBRANCH   1  11
BRANCH   4  23
HETATM   23  C   UNL     1      -2.697   4.378 -32.867  1.00  0.00     0.409 C 
HETATM   24  F   UNL     1      -3.333   5.532 -32.564  1.00  0.00    -0.169 F 
HETATM   25  F   UNL     1      -1.631   4.294 -32.023  1.00  0.00    -0.169 F 
HETATM   26  F   UNL     1      -2.181   4.489 -34.108  1.00  0.00    -0.169 F 
ENDBRANCH   4  23
BRANCH   6  27
HETATM   27  C   UNL     1      -4.310   0.274 -31.561  1.00  0.00    -0.035 A 
HETATM   28  C   UNL     1      -3.100  -0.406 -31.314  1.00  0.00     0.012 A 
HETATM   29  C   UNL     1      -2.836  -1.643 -31.906  1.00  0.00     0.043 A 
HETATM   30  C   UNL     1      -3.781  -2.216 -32.746  1.00  0.00     0.116 A 
HETATM   31  F   UNL     1      -3.529  -3.404 -33.312  1.00  0.00    -0.206 F 
HETATM   32  C   UNL     1      -4.982  -1.574 -33.006  1.00  0.00     0.043 A 
HETATM   33  C   UNL     1      -5.246  -0.334 -32.417  1.00  0.00     0.012 A 
ENDBRANCH   6  27
TORSDOF 5
ENDMDL
MODEL 6
REMARK VINA RESULT:      -8.8      4.572      6.953
REMARK  5 active torsions:
REMARK  status: ('A' for Active; 'I' for Inactive)
REMARK    1  A    between atoms: C_3  and  O_4 
REMARK    2  A    between atoms: C_6  and  N_7 
REMARK       I    between atoms: N_7  and  C_8 
REMARK    3  A    between atoms: C_8  and  C_9 
REMARK    4  A    between atoms: C_12  and  C_13 
REMARK    5  A    between atoms: C_18  and  C_19 
ROOT
HETATM    1  C   UNL     1      -8.076   2.952 -32.757  1.00  0.00     0.096 A 
HETATM    2  C   UNL     1      -7.090   2.118 -32.262  1.00  0.00     0.138 A 
HETATM    3  N   UNL     1      -5.893   2.676 -32.651  1.00  0.00    -0.240 N 
HETATM    4  C   UNL     1      -4.593   2.076 -32.406  1.00  0.00     0.221 C 
HETATM    5  C   UNL     1      -4.700   1.014 -31.297  1.00  0.00     0.066 C 
HETATM    6  C   UNL     1      -5.922   0.108 -31.491  1.00  0.00     0.118 C 
HETATM    7  N   UNL     1      -7.133   0.937 -31.581  1.00  0.00    -0.365 N 
HETATM    8  N   UNL     1      -6.038   3.726 -33.473  1.00  0.00    -0.181 NA
HETATM    9  C   UNL     1      -7.361   3.907 -33.518  1.00  0.00     0.160 A 
HETATM   10  H   UNL     1      -7.980   0.369 -31.651  1.00  0.00     0.161 HD
ENDROOT
BRANCH   1  11
HETATM   11  C   UNL     1      -9.518   2.859 -32.610  1.00  0.00     0.261 C 
HETATM   12  N   UNL     1     -10.114   4.077 -32.343  1.00  0.00    -0.323 N 
HETATM   13  H   UNL     1      -9.506   4.884 -32.433  1.00  0.00     0.169 HD
HETATM   14  O   UNL     1     -10.093   1.786 -32.755  1.00  0.00    -0.267 OA
BRANCH  12  15
HETATM   15  C   UNL     1     -11.466   4.330 -32.043  1.00  0.00     0.037 A 
HETATM   16  C   UNL     1     -12.413   4.728 -32.989  1.00  0.00     0.066 A 
HETATM   17  C   UNL     1     -13.738   4.928 -32.604  1.00  0.00     0.067 A 
HETATM   18  C   UNL     1     -14.141   4.745 -31.285  1.00  0.00     0.036 A 
HETATM   19  C   UNL     1     -13.201   4.349 -30.337  1.00  0.00     0.005 A 
HETATM   20  C   UNL     1     -11.872   4.138 -30.715  1.00  0.00     0.029 A 
BRANCH  17  21
HETATM   21  O   UNL     1     -14.629   5.302 -33.568  1.00  0.00    -0.361 OA
HETATM   22  H   UNL     1     -14.280   5.045 -34.436  1.00  0.00     0.217 HD
ENDBRANCH  17  21
ENDBRANCH  12  15
ENDBRANCH   1  11
BRANCH   4  23
HETATM   23  C   UNL     1      -3.561   3.111 -32.013  1.00  0.00     0.409 C 
HETATM   24  F   UNL     1      -2.698   2.647 -31.080  1.00  0.00    -0.169 F 
HETATM   25  F   UNL     1      -2.810   3.438 -33.101  1.00  0.00    -0.169 F 
HETATM   26  F   UNL     1      -4.091   4.267 -31.566  1.00  0.00    -0.169 F 
ENDBRANCH   4  23
BRANCH   6  27
HETATM   27  C   UNL     1      -5.767  -0.873 -32.649  1.00  0.00    -0.035 A 
HETATM   28  C   UNL     1      -6.888  -1.142 -33.461  1.00  0.00     0.012 A 
HETATM   29  C   UNL     1      -6.805  -2.036 -34.530  1.00  0.00     0.043 A 
HETATM   30  C   UNL     1      -5.600  -2.667 -34.803  1.00  0.00     0.116 A 
HETATM   31  F   UNL     1      -5.520  -3.523 -35.830  1.00  0.00    -0.206 F 
HETATM   32  C   UNL     1      -4.478  -2.422 -34.026  1.00  0.00     0.043 A 
HETATM   33  C   UNL     1      -4.561  -1.530 -32.953  1.00  0.00     0.012 A 
ENDBRANCH   6  27
TORSDOF 5
ENDMDL
MODEL 7
REMARK VINA RESULT:      -8.6      2.881      3.778
REMARK  5 active torsions:
REMARK  status: ('A' for Active; 'I' for Inactive)
REMARK    1  A    between atoms: C_3  and  O_4 
REMARK    2  A    between atoms: C_6  and  N_7 
REMARK       I    between atoms: N_7  and  C_8 
REMARK    3  A    between atoms: C_8  and  C_9 
REMARK    4  A    between atoms: C_12  and  C_13 
REMARK    5  A    between atoms: C_18  and  C_19 
ROOT
HETATM    1  C   UNL     1      -6.998   2.928 -31.164  1.00  0.00     0.096 A 
HETATM    2  C   UNL     1      -7.179   2.319 -32.392  1.00  0.00     0.138 A 
HETATM    3  N   UNL     1      -8.388   1.666 -32.315  1.00  0.00    -0.240 N 
HETATM    4  C   UNL     1      -8.934   0.827 -33.368  1.00  0.00     0.221 C 
HETATM    5  C   UNL     1      -8.228   1.128 -34.704  1.00  0.00     0.066 C 
HETATM    6  C   UNL     1      -6.707   1.229 -34.534  1.00  0.00     0.118 C 
HETATM    7  N   UNL     1      -6.399   2.235 -33.507  1.00  0.00    -0.365 N 
HETATM    8  N   UNL     1      -8.931   1.693 -31.089  1.00  0.00    -0.181 NA
HETATM    9  C   UNL     1      -8.100   2.478 -30.397  1.00  0.00     0.160 A 
HETATM   10  H   UNL     1      -5.392   2.379 -33.405  1.00  0.00     0.161 HD
ENDROOT
BRANCH   1  11
HETATM   11  C   UNL     1      -5.910   3.776 -30.709  1.00  0.00     0.261 C 
HETATM   12  N   UNL     1      -6.258   4.572 -29.634  1.00  0.00    -0.323 N 
HETATM   13  H   UNL     1      -7.155   4.359 -29.212  1.00  0.00     0.169 HD
HETATM   14  O   UNL     1      -4.809   3.720 -31.243  1.00  0.00    -0.267 OA
BRANCH  12  15
HETATM   15  C   UNL     1      -5.488   5.576 -29.017  1.00  0.00     0.037 A 
HETATM   16  C   UNL     1      -5.486   5.822 -27.643  1.00  0.00     0.066 A 
HETATM   17  C   UNL     1      -4.667   6.821 -27.117  1.00  0.00     0.067 A 
HETATM   18  C   UNL     1      -3.849   7.588 -27.939  1.00  0.00     0.036 A 
HETATM   19  C   UNL     1      -3.846   7.347 -29.311  1.00  0.00     0.005 A 
HETATM   20  C   UNL     1      -4.658   6.343 -29.846  1.00  0.00     0.029 A 
BRANCH  17  21
HETATM   21  O   UNL     1      -4.689   7.014 -25.767  1.00  0.00    -0.361 OA
HETATM   22  H   UNL     1      -5.491   6.604 -25.403  1.00  0.00     0.217 HD
ENDBRANCH  17  21
ENDBRANCH  12  15
ENDBRANCH   1  11
BRANCH   4  23
HETATM   23  C   UNL     1     -10.425   1.028 -33.532  1.00  0.00     0.409 C 
HETATM   24  F   UNL     1     -10.792   1.115 -34.831  1.00  0.00    -0.169 F 
HETATM   25  F   UNL     1     -11.085  -0.048 -33.019  1.00  0.00    -0.169 F 
HETATM   26  F   UNL     1     -10.906   2.105 -32.880  1.00  0.00    -0.169 F 
ENDBRANCH   4  23
BRANCH   6  27
HETATM   27  C   UNL     1      -6.037  -0.118 -34.289  1.00  0.00    -0.035 A 
HETATM   28  C   UNL     1      -6.536  -1.253 -34.962  1.00  0.00     0.012 A 
HETATM   29  C   UNL     1      -5.965  -2.512 -34.770  1.00  0.00     0.043 A 
HETATM   30  C   UNL     1      -4.885  -2.652 -33.910  1.00  0.00     0.116 A 
HETATM   31  F   UNL     1      -4.335  -3.859 -33.728  1.00  0.00    -0.206 F 
HETATM   32  C   UNL     1      -4.368  -1.555 -33.236  1.00  0.00     0.043 A 
HETATM   33  C   UNL     1      -4.941  -0.294 -33.424  1.00  0.00     0.012 A 
ENDBRANCH   6  27
TORSDOF 5
ENDMDL
MODEL 8
REMARK VINA RESULT:      -8.6      4.847      6.727
REMARK  5 active torsions:
REMARK  status: ('A' for Active; 'I' for Inactive)
REMARK    1  A    between atoms: C_3  and  O_4 
REMARK    2  A    between atoms: C_6  and  N_7 
REMARK       I    between atoms: N_7  and  C_8 
REMARK    3  A    between atoms: C_8  and  C_9 
REMARK    4  A    between atoms: C_12  and  C_13 
REMARK    5  A    between atoms: C_18  and  C_19 
ROOT
HETATM    1  C   UNL     1      -7.519   3.812 -33.290  1.00  0.00     0.096 A 
HETATM    2  C   UNL     1      -6.830   2.820 -32.617  1.00  0.00     0.138 A 
HETATM    3  N   UNL     1      -5.495   3.102 -32.792  1.00  0.00    -0.240 N 
HETATM    4  C   UNL     1      -4.411   2.263 -32.312  1.00  0.00     0.221 C 
HETATM    5  C   UNL     1      -4.928   1.302 -31.225  1.00  0.00     0.066 C 
HETATM    6  C   UNL     1      -6.261   0.656 -31.623  1.00  0.00     0.118 C 
HETATM    7  N   UNL     1      -7.236   1.709 -31.939  1.00  0.00    -0.365 N 
HETATM    8  N   UNL     1      -5.272   4.117 -33.641  1.00  0.00    -0.181 NA
HETATM    9  C   UNL     1      -6.500   4.562 -33.924  1.00  0.00     0.160 A 
HETATM   10  H   UNL     1      -8.159   1.323 -32.151  1.00  0.00     0.161 HD
ENDROOT
BRANCH   1  11
HETATM   11  C   UNL     1      -8.952   4.023 -33.403  1.00  0.00     0.261 C 
HETATM   12  N   UNL     1      -9.312   4.684 -34.562  1.00  0.00    -0.323 N 
HETATM   13  H   UNL     1      -8.568   4.799 -35.242  1.00  0.00     0.169 HD
HETATM   14  O   UNL     1      -9.715   3.603 -32.541  1.00  0.00    -0.267 OA
BRANCH  12  15
HETATM   15  C   UNL     1     -10.590   5.138 -34.937  1.00  0.00     0.037 A 
HETATM   16  C   UNL     1     -10.981   6.478 -34.908  1.00  0.00     0.066 A 
HETATM   17  C   UNL     1     -12.261   6.838 -35.327  1.00  0.00     0.067 A 
HETATM   18  C   UNL     1     -13.169   5.883 -35.770  1.00  0.00     0.036 A 
HETATM   19  C   UNL     1     -12.786   4.544 -35.801  1.00  0.00     0.005 A 
HETATM   20  C   UNL     1     -11.502   4.175 -35.391  1.00  0.00     0.029 A 
BRANCH  17  21
HETATM   21  O   UNL     1     -12.591   8.162 -35.294  1.00  0.00    -0.361 OA
HETATM   22  H   UNL     1     -12.665   8.445 -34.368  1.00  0.00     0.217 HD
ENDBRANCH  17  21
ENDBRANCH  12  15
ENDBRANCH   1  11
BRANCH   4  23
HETATM   23  C   UNL     1      -3.268   3.084 -31.754  1.00  0.00     0.409 C 
HETATM   24  F   UNL     1      -3.700   4.146 -31.037  1.00  0.00    -0.169 F 
HETATM   25  F   UNL     1      -2.535   2.317 -30.899  1.00  0.00    -0.169 F 
HETATM   26  F   UNL     1      -2.406   3.525 -32.691  1.00  0.00    -0.169 F 
ENDBRANCH   4  23
BRANCH   6  27
HETATM   27  C   UNL     1      -6.118  -0.393 -32.720  1.00  0.00    -0.035 A 
HETATM   28  C   UNL     1      -4.925  -1.142 -32.788  1.00  0.00     0.012 A 
HETATM   29  C   UNL     1      -4.738  -2.110 -33.776  1.00  0.00     0.043 A 
HETATM   30  C   UNL     1      -5.743  -2.346 -34.704  1.00  0.00     0.116 A 
HETATM   31  F   UNL     1      -5.565  -3.277 -35.650  1.00  0.00    -0.206 F 
HETATM   32  C   UNL     1      -6.929  -1.629 -34.662  1.00  0.00     0.043 A 
HETATM   33  C   UNL     1      -7.117  -0.657 -33.676  1.00  0.00     0.012 A 
ENDBRANCH   6  27
TORSDOF 5
ENDMDL
MODEL 9
REMARK VINA RESULT:      -8.6     15.085     16.584
REMARK  5 active torsions:
REMARK  status: ('A' for Active; 'I' for Inactive)
REMARK    1  A    between atoms: C_3  and  O_4 
REMARK    2  A    between atoms: C_6  and  N_7 
REMARK       I    between atoms: N_7  and  C_8 
REMARK    3  A    between atoms: C_8  and  C_9 
REMARK    4  A    between atoms: C_12  and  C_13 
REMARK    5  A    between atoms: C_18  and  C_19 
ROOT
HETATM    1  C   UNL     1      -6.538 -14.280 -36.516  1.00  0.00     0.096 A 
HETATM    2  C   UNL     1      -6.508 -13.531 -37.678  1.00  0.00     0.138 A 
HETATM    3  N   UNL     1      -7.586 -13.949 -38.424  1.00  0.00    -0.240 N 
HETATM    4  C   UNL     1      -7.889 -13.474 -39.762  1.00  0.00     0.221 C 
HETATM    5  C   UNL     1      -7.141 -12.157 -40.039  1.00  0.00     0.066 C 
HETATM    6  C   UNL     1      -5.680 -12.224 -39.576  1.00  0.00     0.118 C 
HETATM    7  N   UNL     1      -5.637 -12.597 -38.155  1.00  0.00    -0.365 N 
HETATM    8  N   UNL     1      -8.224 -15.004 -37.893  1.00  0.00    -0.181 NA
HETATM    9  C   UNL     1      -7.602 -15.189 -36.725  1.00  0.00     0.160 A 
HETATM   10  H   UNL     1      -4.683 -12.594 -37.788  1.00  0.00     0.161 HD
ENDROOT
BRANCH   1  11
HETATM   11  C   UNL     1      -5.655 -14.224 -35.363  1.00  0.00     0.261 C 
HETATM   12  N   UNL     1      -5.734 -15.351 -34.567  1.00  0.00    -0.323 N 
HETATM   13  H   UNL     1      -6.268 -16.120 -34.959  1.00  0.00     0.169 HD
HETATM   14  O   UNL     1      -4.916 -13.264 -35.188  1.00  0.00    -0.267 OA
BRANCH  12  15
HETATM   15  C   UNL     1      -5.103 -15.582 -33.330  1.00  0.00     0.037 A 
HETATM   16  C   UNL     1      -5.703 -15.348 -32.092  1.00  0.00     0.066 A 
HETATM   17  C   UNL     1      -5.010 -15.635 -30.917  1.00  0.00     0.067 A 
HETATM   18  C   UNL     1      -3.717 -16.147 -30.951  1.00  0.00     0.036 A 
HETATM   19  C   UNL     1      -3.112 -16.383 -32.183  1.00  0.00     0.005 A 
HETATM   20  C   UNL     1      -3.803 -16.106 -33.366  1.00  0.00     0.029 A 
BRANCH  17  21
HETATM   21  O   UNL     1      -5.645 -15.402 -29.733  1.00  0.00    -0.361 OA
HETATM   22  H   UNL     1      -6.318 -14.715 -29.865  1.00  0.00     0.217 HD
ENDBRANCH  17  21
ENDBRANCH  12  15
ENDBRANCH   1  11
BRANCH   4  23
HETATM   23  C   UNL     1      -9.374 -13.259 -39.962  1.00  0.00     0.409 C 
HETATM   24  F   UNL     1     -10.032 -13.099 -38.791  1.00  0.00    -0.169 F 
HETATM   25  F   UNL     1      -9.574 -12.114 -40.673  1.00  0.00    -0.169 F 
HETATM   26  F   UNL     1      -9.979 -14.241 -40.660  1.00  0.00    -0.169 F 
ENDBRANCH   4  23
BRANCH   6  27
HETATM   27  C   UNL     1      -4.806 -13.103 -40.464  1.00  0.00    -0.035 A 
HETATM   28  C   UNL     1      -3.590 -13.593 -39.942  1.00  0.00     0.012 A 
HETATM   29  C   UNL     1      -2.748 -14.396 -40.713  1.00  0.00     0.043 A 
HETATM   30  C   UNL     1      -3.113 -14.725 -42.011  1.00  0.00     0.116 A 
HETATM   31  F   UNL     1      -2.307 -15.499 -42.749  1.00  0.00    -0.206 F 
HETATM   32  C   UNL     1      -4.304 -14.263 -42.552  1.00  0.00     0.043 A 
HETATM   33  C   UNL     1      -5.146 -13.456 -41.783  1.00  0.00     0.012 A 
ENDBRANCH   6  27
TORSDOF 5
ENDMDL
MODEL 10
REMARK VINA RESULT:      -8.4      2.445      2.946
REMARK  5 active torsions:
REMARK  status: ('A' for Active; 'I' for Inactive)
REMARK    1  A    between atoms: C_3  and  O_4 
REMARK    2  A    between atoms: C_6  and  N_7 
REMARK       I    between atoms: N_7  and  C_8 
REMARK    3  A    between atoms: C_8  and  C_9 
REMARK    4  A    between atoms: C_12  and  C_13 
REMARK    5  A    between atoms: C_18  and  C_19 
ROOT
HETATM    1  C   UNL     1      -5.547   3.957 -30.748  1.00  0.00     0.096 A 
HETATM    2  C   UNL     1      -5.791   3.051 -31.764  1.00  0.00     0.138 A 
HETATM    3  N   UNL     1      -6.963   2.413 -31.427  1.00  0.00    -0.240 N 
HETATM    4  C   UNL     1      -7.549   1.322 -32.186  1.00  0.00     0.221 C 
HETATM    5  C   UNL     1      -6.956   1.288 -33.607  1.00  0.00     0.066 C 
HETATM    6  C   UNL     1      -5.432   1.462 -33.593  1.00  0.00     0.118 C 
HETATM    7  N   UNL     1      -5.091   2.703 -32.882  1.00  0.00    -0.365 N 
HETATM    8  N   UNL     1      -7.416   2.740 -30.208  1.00  0.00    -0.181 NA
HETATM    9  C   UNL     1      -6.569   3.694 -29.806  1.00  0.00     0.160 A 
HETATM   10  H   UNL     1      -4.087   2.890 -32.901  1.00  0.00     0.161 HD
ENDROOT
BRANCH   1  11
HETATM   11  C   UNL     1      -4.464   4.916 -30.612  1.00  0.00     0.261 C 
HETATM   12  N   UNL     1      -3.310   4.525 -31.263  1.00  0.00    -0.323 N 
HETATM   13  H   UNL     1      -3.408   3.714 -31.866  1.00  0.00     0.169 HD
HETATM   14  O   UNL     1      -4.631   5.964 -29.999  1.00  0.00    -0.267 OA
BRANCH  12  15
HETATM   15  C   UNL     1      -2.053   5.158 -31.250  1.00  0.00     0.037 A 
HETATM   16  C   UNL     1      -0.862   4.521 -30.897  1.00  0.00     0.066 A 
HETATM   17  C   UNL     1       0.342   5.222 -30.941  1.00  0.00     0.067 A 
HETATM   18  C   UNL     1       0.384   6.557 -31.328  1.00  0.00     0.036 A 
HETATM   19  C   UNL     1      -0.800   7.199 -31.682  1.00  0.00     0.005 A 
HETATM   20  C   UNL     1      -2.011   6.502 -31.648  1.00  0.00     0.029 A 
BRANCH  17  21
HETATM   21  O   UNL     1       1.480   4.551 -30.600  1.00  0.00    -0.361 OA
HETATM   22  H   UNL     1       1.396   3.625 -30.879  1.00  0.00     0.217 HD
ENDBRANCH  17  21
ENDBRANCH  12  15
ENDBRANCH   1  11
BRANCH   4  23
HETATM   23  C   UNL     1      -9.055   1.442 -32.274  1.00  0.00     0.409 C 
HETATM   24  F   UNL     1      -9.675   0.930 -31.186  1.00  0.00    -0.169 F 
HETATM   25  F   UNL     1      -9.402   2.758 -32.330  1.00  0.00    -0.169 F 
HETATM   26  F   UNL     1      -9.584   0.871 -33.374  1.00  0.00    -0.169 F 
ENDBRANCH   4  23
BRANCH   6  27
HETATM   27  C   UNL     1      -4.690   0.237 -33.072  1.00  0.00    -0.035 A 
HETATM   28  C   UNL     1      -3.713   0.414 -32.070  1.00  0.00     0.012 A 
HETATM   29  C   UNL     1      -2.998  -0.671 -31.561  1.00  0.00     0.043 A 
HETATM   30  C   UNL     1      -3.255  -1.947 -32.042  1.00  0.00     0.116 A 
HETATM   31  F   UNL     1      -2.572  -2.990 -31.551  1.00  0.00    -0.206 F 
HETATM   32  C   UNL     1      -4.212  -2.156 -33.024  1.00  0.00     0.043 A 
HETATM   33  C   UNL     1      -4.926  -1.070 -33.537  1.00  0.00     0.012 A 
ENDBRANCH   6  27
TORSDOF 5
ENDMDL
