MODEL 1
REMARK VINA RESULT:      -9.1      0.000      0.000
REMARK  10 active torsions:
REMARK  status: ('A' for Active; 'I' for Inactive)
REMARK    1  A    between atoms: C_6  and  C_7 
REMARK    2  A    between atoms: C_7  and  C_8 
REMARK       I    between atoms: C_8  and  N_9 
REMARK    3  A    between atoms: N_9  and  C_10 
REMARK    4  A    between atoms: C_10  and  C_11 
REMARK    5  A    between atoms: C_11  and  N_12 
REMARK    6  A    between atoms: C_17  and  C_18 
REMARK    7  A    between atoms: C_27  and  C_28 
REMARK    8  A    between atoms: C_28  and  O_29 
REMARK    9  A    between atoms: O_29  and  C_30 
REMARK   10  A    between atoms: C_30  and  C_31 
ROOT
HETATM    1  C   UNL     1      -5.740   0.407 -29.499  1.00  0.00     0.071 C 
HETATM    2  C   UNL     1      -6.029   1.537 -30.461  1.00  0.00     0.048 C 
HETATM    3  N   UNL     1      -6.447   2.695 -29.821  1.00  0.00    -0.229 NA
HETATM    4  C   UNL     1      -6.336   3.796 -30.482  1.00  0.00     0.170 C 
HETATM    5  N   UNL     1      -6.085   3.879 -32.015  1.00  0.00    -0.318 N 
HETATM    6  C   UNL     1      -5.821   5.083 -32.395  1.00  0.00     0.011 C 
HETATM    7  C   UNL     1      -6.351   2.594 -32.692  1.00  0.00     0.168 C 
HETATM    8  S   UNL     1      -6.413   5.374 -29.776  1.00  0.00    -0.086 SA
HETATM    9  C   UNL     1      -5.682   6.097 -31.283  1.00  0.00     0.135 C 
HETATM   10  C   UNL     1      -5.772   1.522 -31.791  1.00  0.00     0.069 C 
ENDROOT
BRANCH   6  11
HETATM   11  C   UNL     1      -5.678   5.446 -33.841  1.00  0.00     0.156 C 
BRANCH  11  12
HETATM   12  C   UNL     1      -4.309   5.202 -34.440  1.00  0.00     0.223 C 
HETATM   13  N   UNL     1      -3.336   4.954 -33.503  1.00  0.00    -0.359 N 
HETATM   14  H   UNL     1      -3.592   5.039 -32.522  1.00  0.00     0.162 HD
HETATM   15  O   UNL     1      -4.099   5.248 -35.646  1.00  0.00    -0.273 OA
BRANCH  13  16
HETATM   16  C   UNL     1      -1.893   4.969 -33.748  1.00  0.00     0.150 C 
BRANCH  16  17
HETATM   17  C   UNL     1      -1.235   6.334 -34.027  1.00  0.00     0.253 C 
BRANCH  17  18
HETATM   18  N   UNL     1      -0.828   7.080 -32.773  1.00  0.00    -0.077 N 
HETATM   19  H   UNL     1       0.008   7.649 -33.015  1.00  0.00     0.279 HD
HETATM   20  C   UNL     1      -1.867   8.037 -32.256  1.00  0.00     0.269 C 
HETATM   21  C   UNL     1      -0.411   6.117 -31.695  1.00  0.00     0.269 C 
ENDBRANCH  17  18
ENDBRANCH  16  17
ENDBRANCH  13  16
ENDBRANCH  11  12
ENDBRANCH   6  11
BRANCH   7  22
HETATM   22  C   UNL     1      -7.856   2.397 -33.006  1.00  0.00    -0.009 A 
HETATM   23  C   UNL     1      -8.286   1.568 -34.069  1.00  0.00     0.042 A 
HETATM   24 CL   UNL     1      -7.188   0.767 -35.130  1.00  0.00    -0.084 Cl
HETATM   25  C   UNL     1      -9.648   1.369 -34.337  1.00  0.00     0.024 A 
HETATM   26  C   UNL     1     -10.619   2.010 -33.578  1.00  0.00     0.002 A 
HETATM   27  C   UNL     1     -10.233   2.858 -32.551  1.00  0.00     0.001 A 
HETATM   28  C   UNL     1      -8.875   3.049 -32.268  1.00  0.00     0.011 A 
ENDBRANCH   7  22
BRANCH  10  29
HETATM   29  C   UNL     1      -4.623   0.776 -32.398  1.00  0.00     0.294 C 
HETATM   30  O   UNL     1      -3.470   1.159 -32.258  1.00  0.00    -0.259 OA
BRANCH  29  31
HETATM   31  O   UNL     1      -4.999  -0.469 -32.754  1.00  0.00    -0.313 OA
BRANCH  31  32
HETATM   32  C   UNL     1      -4.091  -1.214 -33.581  1.00  0.00     0.217 C 
BRANCH  32  33
HETATM   33  C   UNL     1      -4.746  -2.488 -34.082  1.00  0.00    -0.034 A 
HETATM   34  C   UNL     1      -4.119  -3.742 -33.979  1.00  0.00     0.009 A 
HETATM   35  C   UNL     1      -4.763  -4.907 -34.403  1.00  0.00     0.001 A 
HETATM   36  C   UNL     1      -6.061  -4.839 -34.901  1.00  0.00     0.000 A 
HETATM   37  C   UNL     1      -6.713  -3.610 -34.969  1.00  0.00     0.001 A 
HETATM   38  C   UNL     1      -6.057  -2.440 -34.574  1.00  0.00     0.009 A 
ENDBRANCH  32  33
ENDBRANCH  31  32
ENDBRANCH  29  31
ENDBRANCH  10  29
TORSDOF 10
ENDMDL
MODEL 2
REMARK VINA RESULT:      -8.5      2.711      8.072
REMARK  10 active torsions:
REMARK  status: ('A' for Active; 'I' for Inactive)
REMARK    1  A    between atoms: C_6  and  C_7 
REMARK    2  A    between atoms: C_7  and  C_8 
REMARK       I    between atoms: C_8  and  N_9 
REMARK    3  A    between atoms: N_9  and  C_10 
REMARK    4  A    between atoms: C_10  and  C_11 
REMARK    5  A    between atoms: C_11  and  N_12 
REMARK    6  A    between atoms: C_17  and  C_18 
REMARK    7  A    between atoms: C_27  and  C_28 
REMARK    8  A    between atoms: C_28  and  O_29 
REMARK    9  A    between atoms: O_29  and  C_30 
REMARK   10  A    between atoms: C_30  and  C_31 
ROOT
HETATM    1  C   UNL     1      -4.196   5.133 -31.022  1.00  0.00     0.071 C 
HETATM    2  C   UNL     1      -5.227   4.177 -31.581  1.00  0.00     0.048 C 
HETATM    3  N   UNL     1      -6.219   3.860 -30.665  1.00  0.00    -0.229 NA
HETATM    4  C   UNL     1      -7.322   3.395 -31.142  1.00  0.00     0.170 C 
HETATM    5  N   UNL     1      -7.498   2.869 -32.595  1.00  0.00    -0.318 N 
HETATM    6  C   UNL     1      -8.736   2.642 -32.879  1.00  0.00     0.011 C 
HETATM    7  C   UNL     1      -6.201   2.614 -33.255  1.00  0.00     0.168 C 
HETATM    8  S   UNL     1      -8.809   3.304 -30.262  1.00  0.00    -0.086 SA
HETATM    9  C   UNL     1      -9.729   3.055 -31.817  1.00  0.00     0.135 C 
HETATM   10  C   UNL     1      -5.306   3.774 -32.872  1.00  0.00     0.069 C 
ENDROOT
BRANCH   6  11
HETATM   11  C   UNL     1      -9.151   2.002 -34.168  1.00  0.00     0.156 C 
BRANCH  11  12
HETATM   12  C   UNL     1     -10.608   1.600 -34.254  1.00  0.00     0.223 C 
HETATM   13  N   UNL     1     -11.359   2.424 -35.054  1.00  0.00    -0.359 N 
HETATM   14  H   UNL     1     -10.907   3.253 -35.435  1.00  0.00     0.162 HD
HETATM   15  O   UNL     1     -11.064   0.640 -33.643  1.00  0.00    -0.273 OA
BRANCH  13  16
HETATM   16  C   UNL     1     -12.821   2.464 -35.103  1.00  0.00     0.150 C 
BRANCH  16  17
HETATM   17  C   UNL     1     -13.565   2.827 -33.803  1.00  0.00     0.253 C 
BRANCH  17  18
HETATM   18  N   UNL     1     -14.249   1.647 -33.145  1.00  0.00    -0.077 N 
HETATM   19  H   UNL     1     -13.565   1.227 -32.485  1.00  0.00     0.279 HD
HETATM   20  C   UNL     1     -15.464   2.008 -32.335  1.00  0.00     0.269 C 
HETATM   21  C   UNL     1     -14.586   0.593 -34.164  1.00  0.00     0.269 C 
ENDBRANCH  17  18
ENDBRANCH  16  17
ENDBRANCH  13  16
ENDBRANCH  11  12
ENDBRANCH   6  11
BRANCH   7  22
HETATM   22  C   UNL     1      -5.617   1.227 -32.884  1.00  0.00    -0.009 A 
HETATM   23  C   UNL     1      -5.799   0.101 -33.721  1.00  0.00     0.042 A 
HETATM   24 CL   UNL     1      -6.727   0.160 -35.174  1.00  0.00    -0.084 Cl
HETATM   25  C   UNL     1      -5.249  -1.148 -33.399  1.00  0.00     0.024 A 
HETATM   26  C   UNL     1      -4.529  -1.320 -32.223  1.00  0.00     0.002 A 
HETATM   27  C   UNL     1      -4.361  -0.247 -31.361  1.00  0.00     0.001 A 
HETATM   28  C   UNL     1      -4.895   1.006 -31.684  1.00  0.00     0.011 A 
ENDBRANCH   7  22
BRANCH  10  29
HETATM   29  C   UNL     1      -4.904   4.637 -34.029  1.00  0.00     0.294 C 
HETATM   30  O   UNL     1      -5.526   5.651 -34.313  1.00  0.00    -0.259 OA
BRANCH  29  31
HETATM   31  O   UNL     1      -3.646   4.353 -34.420  1.00  0.00    -0.313 OA
BRANCH  31  32
HETATM   32  C   UNL     1      -2.839   5.452 -34.874  1.00  0.00     0.217 C 
BRANCH  32  33
HETATM   33  C   UNL     1      -1.979   5.988 -33.745  1.00  0.00    -0.034 A 
HETATM   34  C   UNL     1      -2.017   7.336 -33.349  1.00  0.00     0.009 A 
HETATM   35  C   UNL     1      -1.251   7.794 -32.275  1.00  0.00     0.001 A 
HETATM   36  C   UNL     1      -0.466   6.901 -31.553  1.00  0.00     0.000 A 
HETATM   37  C   UNL     1      -0.450   5.553 -31.904  1.00  0.00     0.001 A 
HETATM   38  C   UNL     1      -1.191   5.100 -32.999  1.00  0.00     0.009 A 
ENDBRANCH  32  33
ENDBRANCH  31  32
ENDBRANCH  29  31
ENDBRANCH  10  29
TORSDOF 10
ENDMDL
MODEL 3
REMARK VINA RESULT:      -8.4      2.585      4.281
REMARK  10 active torsions:
REMARK  status: ('A' for Active; 'I' for Inactive)
REMARK    1  A    between atoms: C_6  and  C_7 
REMARK    2  A    between atoms: C_7  and  C_8 
REMARK       I    between atoms: C_8  and  N_9 
REMARK    3  A    between atoms: N_9  and  C_10 
REMARK    4  A    between atoms: C_10  and  C_11 
REMARK    5  A    between atoms: C_11  and  N_12 
REMARK    6  A    between atoms: C_17  and  C_18 
REMARK    7  A    between atoms: C_27  and  C_28 
REMARK    8  A    between atoms: C_28  and  O_29 
REMARK    9  A    between atoms: O_29  and  C_30 
REMARK   10  A    between atoms: C_30  and  C_31 
ROOT
HETATM    1  C   UNL     1      -8.257   1.518 -34.456  1.00  0.00     0.071 C 
HETATM    2  C   UNL     1      -7.583   2.570 -33.604  1.00  0.00     0.048 C 
HETATM    3  N   UNL     1      -8.135   3.831 -33.770  1.00  0.00    -0.229 NA
HETATM    4  C   UNL     1      -7.916   4.689 -32.832  1.00  0.00     0.170 C 
HETATM    5  N   UNL     1      -6.837   4.522 -31.724  1.00  0.00    -0.318 N 
HETATM    6  C   UNL     1      -6.951   5.418 -30.802  1.00  0.00     0.011 C 
HETATM    7  C   UNL     1      -5.851   3.474 -32.061  1.00  0.00     0.168 C 
HETATM    8  S   UNL     1      -8.803   6.159 -32.622  1.00  0.00    -0.086 SA
HETATM    9  C   UNL     1      -8.155   6.322 -30.925  1.00  0.00     0.135 C 
HETATM   10  C   UNL     1      -6.648   2.330 -32.653  1.00  0.00     0.069 C 
ENDROOT
BRANCH   6  11
HETATM   11  C   UNL     1      -5.947   5.553 -29.699  1.00  0.00     0.156 C 
BRANCH  11  12
HETATM   12  C   UNL     1      -4.836   6.551 -29.951  1.00  0.00     0.223 C 
HETATM   13  N   UNL     1      -3.588   5.981 -30.008  1.00  0.00    -0.359 N 
HETATM   14  H   UNL     1      -3.513   4.988 -29.797  1.00  0.00     0.162 HD
HETATM   15  O   UNL     1      -5.043   7.753 -30.067  1.00  0.00    -0.273 OA
BRANCH  13  16
HETATM   16  C   UNL     1      -2.317   6.704 -29.949  1.00  0.00     0.150 C 
BRANCH  16  17
HETATM   17  C   UNL     1      -1.763   7.052 -28.554  1.00  0.00     0.253 C 
BRANCH  17  18
HETATM   18  N   UNL     1      -0.808   6.014 -28.004  1.00  0.00    -0.077 N 
HETATM   19  H   UNL     1      -1.316   5.107 -27.993  1.00  0.00     0.279 HD
HETATM   20  C   UNL     1       0.429   5.805 -28.836  1.00  0.00     0.269 C 
HETATM   21  C   UNL     1      -0.441   6.332 -26.580  1.00  0.00     0.269 C 
ENDBRANCH  17  18
ENDBRANCH  16  17
ENDBRANCH  13  16
ENDBRANCH  11  12
ENDBRANCH   6  11
BRANCH   7  22
HETATM   22  C   UNL     1      -4.731   4.001 -32.993  1.00  0.00    -0.009 A 
HETATM   23  C   UNL     1      -3.368   3.714 -32.745  1.00  0.00     0.042 A 
HETATM   24 CL   UNL     1      -2.839   2.818 -31.370  1.00  0.00    -0.084 Cl
HETATM   25  C   UNL     1      -2.356   4.168 -33.603  1.00  0.00     0.024 A 
HETATM   26  C   UNL     1      -2.666   4.945 -34.713  1.00  0.00     0.002 A 
HETATM   27  C   UNL     1      -3.989   5.276 -34.966  1.00  0.00     0.001 A 
HETATM   28  C   UNL     1      -5.005   4.813 -34.122  1.00  0.00     0.011 A 
ENDBRANCH   7  22
BRANCH  10  29
HETATM   29  C   UNL     1      -6.616   1.079 -31.829  1.00  0.00     0.294 C 
HETATM   30  O   UNL     1      -7.632   0.625 -31.320  1.00  0.00    -0.259 OA
BRANCH  29  31
HETATM   31  O   UNL     1      -5.474   0.396 -32.045  1.00  0.00    -0.313 OA
BRANCH  31  32
HETATM   32  C   UNL     1      -5.091   0.180 -33.412  1.00  0.00     0.217 C 
BRANCH  32  33
HETATM   33  C   UNL     1      -5.349  -1.259 -33.820  1.00  0.00    -0.034 A 
HETATM   34  C   UNL     1      -6.611  -1.700 -34.252  1.00  0.00     0.009 A 
HETATM   35  C   UNL     1      -6.811  -3.019 -34.669  1.00  0.00     0.001 A 
HETATM   36  C   UNL     1      -5.740  -3.906 -34.697  1.00  0.00     0.000 A 
HETATM   37  C   UNL     1      -4.472  -3.474 -34.313  1.00  0.00     0.001 A 
HETATM   38  C   UNL     1      -4.279  -2.163 -33.867  1.00  0.00     0.009 A 
ENDBRANCH  32  33
ENDBRANCH  31  32
ENDBRANCH  29  31
ENDBRANCH  10  29
TORSDOF 10
ENDMDL
MODEL 4
REMARK VINA RESULT:      -8.0      2.798      4.501
REMARK  10 active torsions:
REMARK  status: ('A' for Active; 'I' for Inactive)
REMARK    1  A    between atoms: C_6  and  C_7 
REMARK    2  A    between atoms: C_7  and  C_8 
REMARK       I    between atoms: C_8  and  N_9 
REMARK    3  A    between atoms: N_9  and  C_10 
REMARK    4  A    between atoms: C_10  and  C_11 
REMARK    5  A    between atoms: C_11  and  N_12 
REMARK    6  A    between atoms: C_17  and  C_18 
REMARK    7  A    between atoms: C_27  and  C_28 
REMARK    8  A    between atoms: C_28  and  O_29 
REMARK    9  A    between atoms: O_29  and  C_30 
REMARK   10  A    between atoms: C_30  and  C_31 
ROOT
HETATM    1  C   UNL     1      -7.627   0.233 -35.346  1.00  0.00     0.071 C 
HETATM    2  C   UNL     1      -7.423   1.198 -34.200  1.00  0.00     0.048 C 
HETATM    3  N   UNL     1      -8.259   2.302 -34.270  1.00  0.00    -0.229 NA
HETATM    4  C   UNL     1      -8.448   2.959 -33.177  1.00  0.00     0.170 C 
HETATM    5  N   UNL     1      -7.575   2.806 -31.899  1.00  0.00    -0.318 N 
HETATM    6  C   UNL     1      -8.086   3.425 -30.889  1.00  0.00     0.011 C 
HETATM    7  C   UNL     1      -6.298   2.115 -32.176  1.00  0.00     0.168 C 
HETATM    8  S   UNL     1      -9.724   4.100 -32.928  1.00  0.00    -0.086 SA
HETATM    9  C   UNL     1      -9.450   4.030 -31.125  1.00  0.00     0.135 C 
HETATM   10  C   UNL     1      -6.639   0.977 -33.117  1.00  0.00     0.069 C 
ENDROOT
BRANCH   6  11
HETATM   11  C   UNL     1      -7.365   3.542 -29.582  1.00  0.00     0.156 C 
BRANCH  11  12
HETATM   12  C   UNL     1      -6.979   4.949 -29.177  1.00  0.00     0.223 C 
HETATM   13  N   UNL     1      -5.712   5.305 -29.568  1.00  0.00    -0.359 N 
HETATM   14  H   UNL     1      -5.133   4.589 -30.002  1.00  0.00     0.162 HD
HETATM   15  O   UNL     1      -7.728   5.681 -28.540  1.00  0.00    -0.273 OA
BRANCH  13  16
HETATM   16  C   UNL     1      -4.964   6.466 -29.083  1.00  0.00     0.150 C 
BRANCH  16  17
HETATM   17  C   UNL     1      -4.556   6.476 -27.597  1.00  0.00     0.253 C 
BRANCH  17  18
HETATM   18  N   UNL     1      -3.075   6.703 -27.375  1.00  0.00    -0.077 N 
HETATM   19  H   UNL     1      -2.622   5.767 -27.363  1.00  0.00     0.279 HD
HETATM   20  C   UNL     1      -2.400   7.496 -28.461  1.00  0.00     0.269 C 
HETATM   21  C   UNL     1      -2.830   7.331 -26.030  1.00  0.00     0.269 C 
ENDBRANCH  17  18
ENDBRANCH  16  17
ENDBRANCH  13  16
ENDBRANCH  11  12
ENDBRANCH   6  11
BRANCH   7  22
HETATM   22  C   UNL     1      -5.219   3.079 -32.730  1.00  0.00    -0.009 A 
HETATM   23  C   UNL     1      -3.859   2.958 -32.358  1.00  0.00     0.042 A 
HETATM   24 CL   UNL     1      -3.305   1.783 -31.223  1.00  0.00    -0.084 Cl
HETATM   25  C   UNL     1      -2.878   3.813 -32.879  1.00  0.00     0.024 A 
HETATM   26  C   UNL     1      -3.223   4.831 -33.759  1.00  0.00     0.002 A 
HETATM   27  C   UNL     1      -4.551   5.001 -34.119  1.00  0.00     0.001 A 
HETATM   28  C   UNL     1      -5.533   4.142 -33.614  1.00  0.00     0.011 A 
ENDBRANCH   7  22
BRANCH  10  29
HETATM   29  C   UNL     1      -6.412  -0.382 -32.530  1.00  0.00     0.294 C 
HETATM   30  O   UNL     1      -7.335  -1.170 -32.373  1.00  0.00    -0.259 OA
BRANCH  29  31
HETATM   31  O   UNL     1      -5.104  -0.704 -32.564  1.00  0.00    -0.313 OA
BRANCH  31  32
HETATM   32  C   UNL     1      -4.544  -1.031 -33.845  1.00  0.00     0.217 C 
BRANCH  32  33
HETATM   33  C   UNL     1      -4.701  -2.513 -34.136  1.00  0.00    -0.034 A 
HETATM   34  C   UNL     1      -3.860  -3.481 -33.559  1.00  0.00     0.009 A 
HETATM   35  C   UNL     1      -4.056  -4.843 -33.804  1.00  0.00     0.001 A 
HETATM   36  C   UNL     1      -5.120  -5.258 -34.597  1.00  0.00     0.000 A 
HETATM   37  C   UNL     1      -5.989  -4.314 -35.140  1.00  0.00     0.001 A 
HETATM   38  C   UNL     1      -5.775  -2.950 -34.922  1.00  0.00     0.009 A 
ENDBRANCH  32  33
ENDBRANCH  31  32
ENDBRANCH  29  31
ENDBRANCH  10  29
TORSDOF 10
ENDMDL
MODEL 5
REMARK VINA RESULT:      -7.9      3.649      7.776
REMARK  10 active torsions:
REMARK  status: ('A' for Active; 'I' for Inactive)
REMARK    1  A    between atoms: C_6  and  C_7 
REMARK    2  A    between atoms: C_7  and  C_8 
REMARK       I    between atoms: C_8  and  N_9 
REMARK    3  A    between atoms: N_9  and  C_10 
REMARK    4  A    between atoms: C_10  and  C_11 
REMARK    5  A    between atoms: C_11  and  N_12 
REMARK    6  A    between atoms: C_17  and  C_18 
REMARK    7  A    between atoms: C_27  and  C_28 
REMARK    8  A    between atoms: C_28  and  O_29 
REMARK    9  A    between atoms: O_29  and  C_30 
REMARK   10  A    between atoms: C_30  and  C_31 
ROOT
HETATM    1  C   UNL     1      -1.287   7.457 -33.525  1.00  0.00     0.071 C 
HETATM    2  C   UNL     1      -1.907   7.507 -32.147  1.00  0.00     0.048 C 
HETATM    3  N   UNL     1      -2.676   8.643 -31.944  1.00  0.00    -0.229 NA
HETATM    4  C   UNL     1      -3.544   8.594 -30.992  1.00  0.00     0.170 C 
HETATM    5  N   UNL     1      -3.563   7.511 -29.876  1.00  0.00    -0.318 N 
HETATM    6  C   UNL     1      -4.637   7.571 -29.163  1.00  0.00     0.011 C 
HETATM    7  C   UNL     1      -2.289   6.767 -29.801  1.00  0.00     0.168 C 
HETATM    8  S   UNL     1      -4.857   9.705 -30.805  1.00  0.00    -0.086 SA
HETATM    9  C   UNL     1      -5.673   8.563 -29.640  1.00  0.00     0.135 C 
HETATM   10  C   UNL     1      -1.877   6.506 -31.235  1.00  0.00     0.069 C 
ENDROOT
BRANCH   6  11
HETATM   11  C   UNL     1      -4.830   6.725 -27.943  1.00  0.00     0.156 C 
BRANCH  11  12
HETATM   12  C   UNL     1      -5.802   5.575 -28.097  1.00  0.00     0.223 C 
HETATM   13  N   UNL     1      -5.374   4.607 -28.973  1.00  0.00    -0.359 N 
HETATM   14  H   UNL     1      -4.515   4.784 -29.488  1.00  0.00     0.162 HD
HETATM   15  O   UNL     1      -6.875   5.535 -27.507  1.00  0.00    -0.273 OA
BRANCH  13  16
HETATM   16  C   UNL     1      -6.204   3.542 -29.538  1.00  0.00     0.150 C 
BRANCH  16  17
HETATM   17  C   UNL     1      -7.259   3.946 -30.585  1.00  0.00     0.253 C 
BRANCH  17  18
HETATM   18  N   UNL     1      -8.615   4.261 -29.990  1.00  0.00    -0.077 N 
HETATM   19  H   UNL     1      -8.538   4.122 -28.963  1.00  0.00     0.279 HD
HETATM   20  C   UNL     1      -9.070   5.681 -30.200  1.00  0.00     0.269 C 
HETATM   21  C   UNL     1      -9.654   3.294 -30.490  1.00  0.00     0.269 C 
ENDBRANCH  17  18
ENDBRANCH  16  17
ENDBRANCH  13  16
ENDBRANCH  11  12
ENDBRANCH   6  11
BRANCH   7  22
HETATM   22  C   UNL     1      -1.218   7.520 -28.972  1.00  0.00    -0.009 A 
HETATM   23  C   UNL     1       0.014   6.913 -28.630  1.00  0.00     0.042 A 
HETATM   24 CL   UNL     1       0.397   5.284 -29.047  1.00  0.00    -0.084 Cl
HETATM   25  C   UNL     1       0.994   7.603 -27.903  1.00  0.00     0.024 A 
HETATM   26  C   UNL     1       0.767   8.904 -27.469  1.00  0.00     0.002 A 
HETATM   27  C   UNL     1      -0.443   9.517 -27.755  1.00  0.00     0.001 A 
HETATM   28  C   UNL     1      -1.420   8.839 -28.494  1.00  0.00     0.011 A 
ENDBRANCH   7  22
BRANCH  10  29
HETATM   29  C   UNL     1      -1.866   5.055 -31.608  1.00  0.00     0.294 C 
HETATM   30  O   UNL     1      -0.820   4.462 -31.832  1.00  0.00    -0.259 OA
BRANCH  29  31
HETATM   31  O   UNL     1      -3.046   4.477 -31.304  1.00  0.00    -0.313 OA
BRANCH  31  32
HETATM   32  C   UNL     1      -3.823   3.964 -32.398  1.00  0.00     0.217 C 
BRANCH  32  33
HETATM   33  C   UNL     1      -4.095   2.482 -32.214  1.00  0.00    -0.034 A 
HETATM   34  C   UNL     1      -3.350   1.690 -31.322  1.00  0.00     0.009 A 
HETATM   35  C   UNL     1      -3.652   0.339 -31.135  1.00  0.00     0.001 A 
HETATM   36  C   UNL     1      -4.730  -0.231 -31.806  1.00  0.00     0.000 A 
HETATM   37  C   UNL     1      -5.504   0.551 -32.660  1.00  0.00     0.001 A 
HETATM   38  C   UNL     1      -5.184   1.895 -32.872  1.00  0.00     0.009 A 
ENDBRANCH  32  33
ENDBRANCH  31  32
ENDBRANCH  29  31
ENDBRANCH  10  29
TORSDOF 10
ENDMDL
MODEL 6
REMARK VINA RESULT:      -7.8      3.784      8.340
REMARK  10 active torsions:
REMARK  status: ('A' for Active; 'I' for Inactive)
REMARK    1  A    between atoms: C_6  and  C_7 
REMARK    2  A    between atoms: C_7  and  C_8 
REMARK       I    between atoms: C_8  and  N_9 
REMARK    3  A    between atoms: N_9  and  C_10 
REMARK    4  A    between atoms: C_10  and  C_11 
REMARK    5  A    between atoms: C_11  and  N_12 
REMARK    6  A    between atoms: C_17  and  C_18 
REMARK    7  A    between atoms: C_27  and  C_28 
REMARK    8  A    between atoms: C_28  and  O_29 
REMARK    9  A    between atoms: O_29  and  C_30 
REMARK   10  A    between atoms: C_30  and  C_31 
ROOT
HETATM    1  C   UNL     1      -1.004   7.446 -33.425  1.00  0.00     0.071 C 
HETATM    2  C   UNL     1      -1.674   7.495 -32.070  1.00  0.00     0.048 C 
HETATM    3  N   UNL     1      -2.500   8.600 -31.918  1.00  0.00    -0.229 NA
HETATM    4  C   UNL     1      -3.397   8.530 -30.995  1.00  0.00     0.170 C 
HETATM    5  N   UNL     1      -3.408   7.469 -29.858  1.00  0.00    -0.318 N 
HETATM    6  C   UNL     1      -4.508   7.495 -29.184  1.00  0.00     0.011 C 
HETATM    7  C   UNL     1      -2.106   6.784 -29.724  1.00  0.00     0.168 C 
HETATM    8  S   UNL     1      -4.764   9.584 -30.877  1.00  0.00    -0.086 SA
HETATM    9  C   UNL     1      -5.570   8.429 -29.717  1.00  0.00     0.135 C 
HETATM   10  C   UNL     1      -1.632   6.514 -31.137  1.00  0.00     0.069 C 
ENDROOT
BRANCH   6  11
HETATM   11  C   UNL     1      -4.706   6.665 -27.954  1.00  0.00     0.156 C 
BRANCH  11  12
HETATM   12  C   UNL     1      -5.768   5.591 -28.058  1.00  0.00     0.223 C 
HETATM   13  N   UNL     1      -5.485   4.628 -28.995  1.00  0.00    -0.359 N 
HETATM   14  H   UNL     1      -4.661   4.762 -29.576  1.00  0.00     0.162 HD
HETATM   15  O   UNL     1      -6.789   5.605 -27.381  1.00  0.00    -0.273 OA
BRANCH  13  16
HETATM   16  C   UNL     1      -6.433   3.643 -29.519  1.00  0.00     0.150 C 
BRANCH  16  17
HETATM   17  C   UNL     1      -5.855   2.331 -30.083  1.00  0.00     0.253 C 
BRANCH  17  18
HETATM   18  N   UNL     1      -6.900   1.265 -30.334  1.00  0.00    -0.077 N 
HETATM   19  H   UNL     1      -7.375   1.084 -29.427  1.00  0.00     0.279 HD
HETATM   20  C   UNL     1      -7.973   1.666 -31.310  1.00  0.00     0.269 C 
HETATM   21  C   UNL     1      -6.252  -0.024 -30.760  1.00  0.00     0.269 C 
ENDBRANCH  17  18
ENDBRANCH  16  17
ENDBRANCH  13  16
ENDBRANCH  11  12
ENDBRANCH   6  11
BRANCH   7  22
HETATM   22  C   UNL     1      -1.099   7.601 -28.875  1.00  0.00    -0.009 A 
HETATM   23  C   UNL     1       0.128   7.043 -28.444  1.00  0.00     0.042 A 
HETATM   24 CL   UNL     1       0.573   5.409 -28.769  1.00  0.00    -0.084 Cl
HETATM   25  C   UNL     1       1.051   7.790 -27.698  1.00  0.00     0.024 A 
HETATM   26  C   UNL     1       0.769   9.101 -27.333  1.00  0.00     0.002 A 
HETATM   27  C   UNL     1      -0.439   9.668 -27.708  1.00  0.00     0.001 A 
HETATM   28  C   UNL     1      -1.359   8.933 -28.465  1.00  0.00     0.011 A 
ENDBRANCH   7  22
BRANCH  10  29
HETATM   29  C   UNL     1      -1.544   5.058 -31.479  1.00  0.00     0.294 C 
HETATM   30  O   UNL     1      -0.473   4.469 -31.487  1.00  0.00    -0.259 OA
BRANCH  29  31
HETATM   31  O   UNL     1      -2.758   4.477 -31.400  1.00  0.00    -0.313 OA
BRANCH  31  32
HETATM   32  C   UNL     1      -3.261   3.850 -32.591  1.00  0.00     0.217 C 
BRANCH  32  33
HETATM   33  C   UNL     1      -4.639   4.383 -32.937  1.00  0.00    -0.034 A 
HETATM   34  C   UNL     1      -5.599   3.601 -33.603  1.00  0.00     0.009 A 
HETATM   35  C   UNL     1      -6.877   4.099 -33.866  1.00  0.00     0.001 A 
HETATM   36  C   UNL     1      -7.228   5.373 -33.431  1.00  0.00     0.000 A 
HETATM   37  C   UNL     1      -6.304   6.144 -32.730  1.00  0.00     0.001 A 
HETATM   38  C   UNL     1      -5.014   5.659 -32.494  1.00  0.00     0.009 A 
ENDBRANCH  32  33
ENDBRANCH  31  32
ENDBRANCH  29  31
ENDBRANCH  10  29
TORSDOF 10
ENDMDL
MODEL 7
REMARK VINA RESULT:      -7.7      3.363      5.265
REMARK  10 active torsions:
REMARK  status: ('A' for Active; 'I' for Inactive)
REMARK    1  A    between atoms: C_6  and  C_7 
REMARK    2  A    between atoms: C_7  and  C_8 
REMARK       I    between atoms: C_8  and  N_9 
REMARK    3  A    between atoms: N_9  and  C_10 
REMARK    4  A    between atoms: C_10  and  C_11 
REMARK    5  A    between atoms: C_11  and  N_12 
REMARK    6  A    between atoms: C_17  and  C_18 
REMARK    7  A    between atoms: C_27  and  C_28 
REMARK    8  A    between atoms: C_28  and  O_29 
REMARK    9  A    between atoms: O_29  and  C_30 
REMARK   10  A    between atoms: C_30  and  C_31 
ROOT
HETATM    1  C   UNL     1      -9.311   4.177 -33.708  1.00  0.00     0.071 C 
HETATM    2  C   UNL     1      -8.335   4.529 -32.607  1.00  0.00     0.048 C 
HETATM    3  N   UNL     1      -7.803   5.802 -32.747  1.00  0.00    -0.229 NA
HETATM    4  C   UNL     1      -7.292   6.336 -31.691  1.00  0.00     0.170 C 
HETATM    5  N   UNL     1      -6.942   5.555 -30.392  1.00  0.00    -0.318 N 
HETATM    6  C   UNL     1      -6.629   6.347 -29.423  1.00  0.00     0.011 C 
HETATM    7  C   UNL     1      -6.908   4.095 -30.614  1.00  0.00     0.168 C 
HETATM    8  S   UNL     1      -6.937   8.021 -31.520  1.00  0.00    -0.086 SA
HETATM    9  C   UNL     1      -6.798   7.820 -29.712  1.00  0.00     0.135 C 
HETATM   10  C   UNL     1      -8.095   3.783 -31.502  1.00  0.00     0.069 C 
ENDROOT
BRANCH   6  11
HETATM   11  C   UNL     1      -6.120   5.834 -28.111  1.00  0.00     0.156 C 
BRANCH  11  12
HETATM   12  C   UNL     1      -5.073   6.695 -27.439  1.00  0.00     0.223 C 
HETATM   13  N   UNL     1      -3.871   6.718 -28.102  1.00  0.00    -0.359 N 
HETATM   14  H   UNL     1      -3.766   6.108 -28.910  1.00  0.00     0.162 HD
HETATM   15  O   UNL     1      -5.284   7.291 -26.388  1.00  0.00    -0.273 OA
BRANCH  13  16
HETATM   16  C   UNL     1      -2.606   7.214 -27.559  1.00  0.00     0.150 C 
BRANCH  16  17
HETATM   17  C   UNL     1      -1.379   7.199 -28.491  1.00  0.00     0.253 C 
BRANCH  17  18
HETATM   18  N   UNL     1      -0.342   6.162 -28.114  1.00  0.00    -0.077 N 
HETATM   19  H   UNL     1      -0.840   5.405 -27.603  1.00  0.00     0.279 HD
HETATM   20  C   UNL     1       0.342   5.514 -29.287  1.00  0.00     0.269 C 
HETATM   21  C   UNL     1       0.671   6.744 -27.165  1.00  0.00     0.269 C 
ENDBRANCH  17  18
ENDBRANCH  16  17
ENDBRANCH  13  16
ENDBRANCH  11  12
ENDBRANCH   6  11
BRANCH   7  22
HETATM   22  C   UNL     1      -5.553   3.621 -31.197  1.00  0.00    -0.009 A 
HETATM   23  C   UNL     1      -5.022   2.346 -30.890  1.00  0.00     0.042 A 
HETATM   24 CL   UNL     1      -5.796   1.250 -29.806  1.00  0.00    -0.084 Cl
HETATM   25  C   UNL     1      -3.808   1.907 -31.438  1.00  0.00     0.024 A 
HETATM   26  C   UNL     1      -3.073   2.732 -32.280  1.00  0.00     0.002 A 
HETATM   27  C   UNL     1      -3.546   4.002 -32.575  1.00  0.00     0.001 A 
HETATM   28  C   UNL     1      -4.764   4.441 -32.043  1.00  0.00     0.011 A 
ENDBRANCH   7  22
BRANCH  10  29
HETATM   29  C   UNL     1      -9.137   2.930 -30.844  1.00  0.00     0.294 C 
HETATM   30  O   UNL     1     -10.218   3.391 -30.506  1.00  0.00    -0.259 OA
BRANCH  29  31
HETATM   31  O   UNL     1      -8.864   1.622 -31.024  1.00  0.00    -0.313 OA
BRANCH  31  32
HETATM   32  C   UNL     1      -9.505   0.967 -32.130  1.00  0.00     0.217 C 
BRANCH  32  33
HETATM   33  C   UNL     1      -8.473   0.406 -33.092  1.00  0.00    -0.034 A 
HETATM   34  C   UNL     1      -8.606   0.526 -34.486  1.00  0.00     0.009 A 
HETATM   35  C   UNL     1      -7.618   0.044 -35.348  1.00  0.00     0.001 A 
HETATM   36  C   UNL     1      -6.463  -0.530 -34.826  1.00  0.00     0.000 A 
HETATM   37  C   UNL     1      -6.296  -0.617 -33.446  1.00  0.00     0.001 A 
HETATM   38  C   UNL     1      -7.298  -0.164 -32.584  1.00  0.00     0.009 A 
ENDBRANCH  32  33
ENDBRANCH  31  32
ENDBRANCH  29  31
ENDBRANCH  10  29
TORSDOF 10
ENDMDL
MODEL 8
REMARK VINA RESULT:      -7.6      4.063      6.845
REMARK  10 active torsions:
REMARK  status: ('A' for Active; 'I' for Inactive)
REMARK    1  A    between atoms: C_6  and  C_7 
REMARK    2  A    between atoms: C_7  and  C_8 
REMARK       I    between atoms: C_8  and  N_9 
REMARK    3  A    between atoms: N_9  and  C_10 
REMARK    4  A    between atoms: C_10  and  C_11 
REMARK    5  A    between atoms: C_11  and  N_12 
REMARK    6  A    between atoms: C_17  and  C_18 
REMARK    7  A    between atoms: C_27  and  C_28 
REMARK    8  A    between atoms: C_28  and  O_29 
REMARK    9  A    between atoms: O_29  and  C_30 
REMARK   10  A    between atoms: C_30  and  C_31 
ROOT
HETATM    1  C   UNL     1      -2.906   5.716 -34.516  1.00  0.00     0.071 C 
HETATM    2  C   UNL     1      -3.545   5.903 -33.158  1.00  0.00     0.048 C 
HETATM    3  N   UNL     1      -4.867   6.313 -33.238  1.00  0.00    -0.229 NA
HETATM    4  C   UNL     1      -5.598   6.119 -32.194  1.00  0.00     0.170 C 
HETATM    5  N   UNL     1      -5.042   5.774 -30.783  1.00  0.00    -0.318 N 
HETATM    6  C   UNL     1      -5.980   5.441 -29.962  1.00  0.00     0.011 C 
HETATM    7  C   UNL     1      -3.594   6.050 -30.673  1.00  0.00     0.168 C 
HETATM    8  S   UNL     1      -7.328   6.177 -32.185  1.00  0.00    -0.086 SA
HETATM    9  C   UNL     1      -7.360   5.329 -30.570  1.00  0.00     0.135 C 
HETATM   10  C   UNL     1      -2.982   5.568 -31.972  1.00  0.00     0.069 C 
ENDROOT
BRANCH   6  11
HETATM   11  C   UNL     1      -5.715   5.198 -28.509  1.00  0.00     0.156 C 
BRANCH  11  12
HETATM   12  C   UNL     1      -5.465   6.439 -27.678  1.00  0.00     0.223 C 
HETATM   13  N   UNL     1      -4.222   6.469 -27.096  1.00  0.00    -0.359 N 
HETATM   14  H   UNL     1      -3.632   5.646 -27.199  1.00  0.00     0.162 HD
HETATM   15  O   UNL     1      -6.310   7.314 -27.528  1.00  0.00    -0.273 OA
BRANCH  13  16
HETATM   16  C   UNL     1      -3.803   7.375 -26.026  1.00  0.00     0.150 C 
BRANCH  16  17
HETATM   17  C   UNL     1      -2.313   7.369 -25.634  1.00  0.00     0.253 C 
BRANCH  17  18
HETATM   18  N   UNL     1      -1.690   8.748 -25.594  1.00  0.00    -0.077 N 
HETATM   19  H   UNL     1      -2.166   9.320 -26.320  1.00  0.00     0.279 HD
HETATM   20  C   UNL     1      -1.871   9.473 -24.288  1.00  0.00     0.269 C 
HETATM   21  C   UNL     1      -0.233   8.684 -25.967  1.00  0.00     0.269 C 
ENDBRANCH  17  18
ENDBRANCH  16  17
ENDBRANCH  13  16
ENDBRANCH  11  12
ENDBRANCH   6  11
BRANCH   7  22
HETATM   22  C   UNL     1      -3.303   7.539 -30.362  1.00  0.00    -0.009 A 
HETATM   23  C   UNL     1      -2.146   7.932 -29.648  1.00  0.00     0.042 A 
HETATM   24 CL   UNL     1      -1.010   6.798 -29.017  1.00  0.00    -0.084 Cl
HETATM   25  C   UNL     1      -1.868   9.282 -29.389  1.00  0.00     0.024 A 
HETATM   26  C   UNL     1      -2.745  10.277 -29.804  1.00  0.00     0.002 A 
HETATM   27  C   UNL     1      -3.906   9.925 -30.476  1.00  0.00     0.001 A 
HETATM   28  C   UNL     1      -4.183   8.581 -30.751  1.00  0.00     0.011 A 
ENDBRANCH   7  22
BRANCH  10  29
HETATM   29  C   UNL     1      -2.039   4.415 -31.807  1.00  0.00     0.294 C 
HETATM   30  O   UNL     1      -0.829   4.583 -31.760  1.00  0.00    -0.259 OA
BRANCH  29  31
HETATM   31  O   UNL     1      -2.697   3.322 -31.371  1.00  0.00    -0.313 OA
BRANCH  31  32
HETATM   32  C   UNL     1      -3.385   2.537 -32.357  1.00  0.00     0.217 C 
BRANCH  32  33
HETATM   33  C   UNL     1      -4.414   1.634 -31.701  1.00  0.00    -0.034 A 
HETATM   34  C   UNL     1      -5.082   1.997 -30.518  1.00  0.00     0.009 A 
HETATM   35  C   UNL     1      -6.060   1.171 -29.960  1.00  0.00     0.001 A 
HETATM   36  C   UNL     1      -6.415  -0.013 -30.600  1.00  0.00     0.000 A 
HETATM   37  C   UNL     1      -5.794  -0.366 -31.796  1.00  0.00     0.001 A 
HETATM   38  C   UNL     1      -4.793   0.445 -32.338  1.00  0.00     0.009 A 
ENDBRANCH  32  33
ENDBRANCH  31  32
ENDBRANCH  29  31
ENDBRANCH  10  29
TORSDOF 10
ENDMDL
MODEL 9
REMARK VINA RESULT:      -7.6      2.967      4.952
REMARK  10 active torsions:
REMARK  status: ('A' for Active; 'I' for Inactive)
REMARK    1  A    between atoms: C_6  and  C_7 
REMARK    2  A    between atoms: C_7  and  C_8 
REMARK       I    between atoms: C_8  and  N_9 
REMARK    3  A    between atoms: N_9  and  C_10 
REMARK    4  A    between atoms: C_10  and  C_11 
REMARK    5  A    between atoms: C_11  and  N_12 
REMARK    6  A    between atoms: C_17  and  C_18 
REMARK    7  A    between atoms: C_27  and  C_28 
REMARK    8  A    between atoms: C_28  and  O_29 
REMARK    9  A    between atoms: O_29  and  C_30 
REMARK   10  A    between atoms: C_30  and  C_31 
ROOT
HETATM    1  C   UNL     1      -8.116   0.962 -34.813  1.00  0.00     0.071 C 
HETATM    2  C   UNL     1      -7.637   1.946 -33.770  1.00  0.00     0.048 C 
HETATM    3  N   UNL     1      -8.317   3.155 -33.818  1.00  0.00    -0.229 NA
HETATM    4  C   UNL     1      -8.273   3.888 -32.759  1.00  0.00     0.170 C 
HETATM    5  N   UNL     1      -7.273   3.677 -31.585  1.00  0.00    -0.318 N 
HETATM    6  C   UNL     1      -7.562   4.417 -30.568  1.00  0.00     0.011 C 
HETATM    7  C   UNL     1      -6.150   2.796 -31.963  1.00  0.00     0.168 C 
HETATM    8  S   UNL     1      -9.337   5.214 -32.441  1.00  0.00    -0.086 SA
HETATM    9  C   UNL     1      -8.849   5.200 -30.683  1.00  0.00     0.135 C 
HETATM   10  C   UNL     1      -6.760   1.671 -32.774  1.00  0.00     0.069 C 
ENDROOT
BRANCH   6  11
HETATM   11  C   UNL     1      -6.672   4.497 -29.367  1.00  0.00     0.156 C 
BRANCH  11  12
HETATM   12  C   UNL     1      -5.797   5.730 -29.288  1.00  0.00     0.223 C 
HETATM   13  N   UNL     1      -5.959   6.445 -28.128  1.00  0.00    -0.359 N 
HETATM   14  H   UNL     1      -6.688   6.144 -27.485  1.00  0.00     0.162 HD
HETATM   15  O   UNL     1      -5.037   6.058 -30.193  1.00  0.00    -0.273 OA
BRANCH  13  16
HETATM   16  C   UNL     1      -5.478   7.807 -27.892  1.00  0.00     0.150 C 
BRANCH  16  17
HETATM   17  C   UNL     1      -6.297   8.963 -28.497  1.00  0.00     0.253 C 
BRANCH  17  18
HETATM   18  N   UNL     1      -7.060   9.771 -27.468  1.00  0.00    -0.077 N 
HETATM   19  H   UNL     1      -7.156  10.734 -27.846  1.00  0.00     0.279 HD
HETATM   20  C   UNL     1      -8.455   9.272 -27.199  1.00  0.00     0.269 C 
HETATM   21  C   UNL     1      -6.278   9.874 -26.187  1.00  0.00     0.269 C 
ENDBRANCH  17  18
ENDBRANCH  16  17
ENDBRANCH  13  16
ENDBRANCH  11  12
ENDBRANCH   6  11
BRANCH   7  22
HETATM   22  C   UNL     1      -5.027   3.562 -32.707  1.00  0.00    -0.009 A 
HETATM   23  C   UNL     1      -3.660   3.300 -32.453  1.00  0.00     0.042 A 
HETATM   24 CL   UNL     1      -3.134   2.165 -31.266  1.00  0.00    -0.084 Cl
HETATM   25  C   UNL     1      -2.644   3.975 -33.145  1.00  0.00     0.024 A 
HETATM   26  C   UNL     1      -2.956   4.949 -34.085  1.00  0.00     0.002 A 
HETATM   27  C   UNL     1      -4.285   5.257 -34.333  1.00  0.00     0.001 A 
HETATM   28  C   UNL     1      -5.304   4.577 -33.657  1.00  0.00     0.011 A 
ENDBRANCH   7  22
BRANCH  10  29
HETATM   29  C   UNL     1      -6.650   0.326 -32.124  1.00  0.00     0.294 C 
HETATM   30  O   UNL     1      -7.643  -0.290 -31.763  1.00  0.00    -0.259 OA
BRANCH  29  31
HETATM   31  O   UNL     1      -5.430  -0.207 -32.337  1.00  0.00    -0.313 OA
BRANCH  31  32
HETATM   32  C   UNL     1      -5.072  -0.496 -33.698  1.00  0.00     0.217 C 
BRANCH  32  33
HETATM   33  C   UNL     1      -5.334  -1.955 -34.022  1.00  0.00    -0.034 A 
HETATM   34  C   UNL     1      -6.564  -2.398 -34.541  1.00  0.00     0.009 A 
HETATM   35  C   UNL     1      -6.764  -3.739 -34.877  1.00  0.00     0.001 A 
HETATM   36  C   UNL     1      -5.722  -4.651 -34.739  1.00  0.00     0.000 A 
HETATM   37  C   UNL     1      -4.484  -4.221 -34.268  1.00  0.00     0.001 A 
HETATM   38  C   UNL     1      -4.292  -2.885 -33.901  1.00  0.00     0.009 A 
ENDBRANCH  32  33
ENDBRANCH  31  32
ENDBRANCH  29  31
ENDBRANCH  10  29
TORSDOF 10
ENDMDL
MODEL 10
REMARK VINA RESULT:      -7.6      4.003      9.109
REMARK  10 active torsions:
REMARK  status: ('A' for Active; 'I' for Inactive)
REMARK    1  A    between atoms: C_6  and  C_7 
REMARK    2  A    between atoms: C_7  and  C_8 
REMARK       I    between atoms: C_8  and  N_9 
REMARK    3  A    between atoms: N_9  and  C_10 
REMARK    4  A    between atoms: C_10  and  C_11 
REMARK    5  A    between atoms: C_11  and  N_12 
REMARK    6  A    between atoms: C_17  and  C_18 
REMARK    7  A    between atoms: C_27  and  C_28 
REMARK    8  A    between atoms: C_28  and  O_29 
REMARK    9  A    between atoms: O_29  and  C_30 
REMARK   10  A    between atoms: C_30  and  C_31 
ROOT
HETATM    1  C   UNL     1      -1.582   8.250 -32.545  1.00  0.00     0.071 C 
HETATM    2  C   UNL     1      -2.631   7.883 -31.520  1.00  0.00     0.048 C 
HETATM    3  N   UNL     1      -3.778   8.656 -31.623  1.00  0.00    -0.229 NA
HETATM    4  C   UNL     1      -4.850   8.179 -31.088  1.00  0.00     0.170 C 
HETATM    5  N   UNL     1      -4.876   6.994 -30.079  1.00  0.00    -0.318 N 
HETATM    6  C   UNL     1      -6.078   6.588 -29.845  1.00  0.00     0.011 C 
HETATM    7  C   UNL     1      -3.538   6.712 -29.519  1.00  0.00     0.168 C 
HETATM    8  S   UNL     1      -6.449   8.750 -31.419  1.00  0.00    -0.086 SA
HETATM    9  C   UNL     1      -7.155   7.240 -30.680  1.00  0.00     0.135 C 
HETATM   10  C   UNL     1      -2.571   6.822 -30.679  1.00  0.00     0.069 C 
ENDROOT
BRANCH   6  11
HETATM   11  C   UNL     1      -6.376   5.551 -28.806  1.00  0.00     0.156 C 
BRANCH  11  12
HETATM   12  C   UNL     1      -6.552   4.141 -29.328  1.00  0.00     0.223 C 
HETATM   13  N   UNL     1      -5.367   3.510 -29.617  1.00  0.00    -0.359 N 
HETATM   14  H   UNL     1      -4.511   4.055 -29.541  1.00  0.00     0.162 HD
HETATM   15  O   UNL     1      -7.655   3.632 -29.493  1.00  0.00    -0.273 OA
BRANCH  13  16
HETATM   16  C   UNL     1      -5.225   2.277 -30.392  1.00  0.00     0.150 C 
BRANCH  16  17
HETATM   17  C   UNL     1      -4.425   2.354 -31.707  1.00  0.00     0.253 C 
BRANCH  17  18
HETATM   18  N   UNL     1      -3.886   1.016 -32.169  1.00  0.00    -0.077 N 
HETATM   19  H   UNL     1      -3.236   1.206 -32.957  1.00  0.00     0.279 HD
HETATM   20  C   UNL     1      -3.095   0.273 -31.127  1.00  0.00     0.269 C 
HETATM   21  C   UNL     1      -4.995   0.154 -32.707  1.00  0.00     0.269 C 
ENDBRANCH  17  18
ENDBRANCH  16  17
ENDBRANCH  13  16
ENDBRANCH  11  12
ENDBRANCH   6  11
BRANCH   7  22
HETATM   22  C   UNL     1      -3.193   7.643 -28.329  1.00  0.00    -0.009 A 
HETATM   23  C   UNL     1      -3.541   7.303 -27.000  1.00  0.00     0.042 A 
HETATM   24 CL   UNL     1      -4.423   5.875 -26.604  1.00  0.00    -0.084 Cl
HETATM   25  C   UNL     1      -3.206   8.133 -25.920  1.00  0.00     0.024 A 
HETATM   26  C   UNL     1      -2.543   9.335 -26.132  1.00  0.00     0.002 A 
HETATM   27  C   UNL     1      -2.217   9.717 -27.425  1.00  0.00     0.001 A 
HETATM   28  C   UNL     1      -2.536   8.887 -28.506  1.00  0.00     0.011 A 
ENDBRANCH   7  22
BRANCH  10  29
HETATM   29  C   UNL     1      -1.899   5.531 -31.033  1.00  0.00     0.294 C 
HETATM   30  O   UNL     1      -2.087   4.990 -32.114  1.00  0.00    -0.259 OA
BRANCH  29  31
HETATM   31  O   UNL     1      -0.861   5.292 -30.206  1.00  0.00    -0.313 OA
BRANCH  31  32
HETATM   32  C   UNL     1       0.236   6.218 -30.251  1.00  0.00     0.217 C 
BRANCH  32  33
HETATM   33  C   UNL     1       0.506   6.795 -28.874  1.00  0.00    -0.034 A 
HETATM   34  C   UNL     1       1.124   8.045 -28.694  1.00  0.00     0.009 A 
HETATM   35  C   UNL     1       1.317   8.577 -27.416  1.00  0.00     0.001 A 
HETATM   36  C   UNL     1       0.858   7.883 -26.301  1.00  0.00     0.000 A 
HETATM   37  C   UNL     1       0.204   6.664 -26.464  1.00  0.00     0.001 A 
HETATM   38  C   UNL     1       0.039   6.117 -27.740  1.00  0.00     0.009 A 
ENDBRANCH  32  33
ENDBRANCH  31  32
ENDBRANCH  29  31
ENDBRANCH  10  29
TORSDOF 10
ENDMDL
