MODEL 1
REMARK VINA RESULT:      -8.9      0.000      0.000
REMARK  8 active torsions:
REMARK  status: ('A' for Active; 'I' for Inactive)
REMARK    1  A    between atoms: C_2  and  C_3 
REMARK    2  A    between atoms: C_3  and  N_4 
REMARK    3  A    between atoms: C_5  and  S_6 
REMARK    4  A    between atoms: S_6  and  C_7 
REMARK    5  A    between atoms: C_7  and  C_8 
REMARK       I    between atoms: C_8  and  N_9 
REMARK    6  A    between atoms: N_9  and  C_10 
REMARK    7  A    between atoms: C_23  and  C_24 
REMARK    8  A    between atoms: C_25  and  O_26 
ROOT
HETATM    1  S   UNL     1      -6.190   2.711 -31.553  1.00  0.00    -0.081 SA
ENDROOT
BRANCH   1   2
HETATM    2  C   UNL     1      -5.194   1.458 -32.199  1.00  0.00     0.192 A 
HETATM    3  N   UNL     1      -5.628   0.228 -32.617  1.00  0.00    -0.304 N 
HETATM    4  C   UNL     1      -4.478  -0.476 -32.925  1.00  0.00     0.167 A 
HETATM    5  N   UNL     1      -3.439   0.324 -32.745  1.00  0.00    -0.128 NA
HETATM    6  N   UNL     1      -3.891   1.538 -32.312  1.00  0.00    -0.122 NA
BRANCH   3   7
HETATM    7  C   UNL     1      -6.998  -0.253 -32.643  1.00  0.00     0.159 C 
BRANCH   7   8
HETATM    8  C   UNL     1      -7.643  -0.078 -33.986  1.00  0.00    -0.017 C 
HETATM    9  C   UNL     1      -7.064   0.540 -35.024  1.00  0.00     0.008 C 
ENDBRANCH   7   8
ENDBRANCH   3   7
BRANCH   4  10
HETATM   10  C   UNL     1      -4.353  -1.904 -33.208  1.00  0.00     0.046 A 
HETATM   11  C   UNL     1      -3.416  -2.676 -32.497  1.00  0.00     0.079 A 
HETATM   12  C   UNL     1      -3.299  -4.049 -32.702  1.00  0.00     0.039 A 
HETATM   13  C   UNL     1      -4.101  -4.673 -33.654  1.00  0.00     0.022 A 
HETATM   14  C   UNL     1      -5.003  -3.914 -34.399  1.00  0.00     0.012 A 
HETATM   15 BR   UNL     1      -6.075  -4.757 -35.708  1.00  0.00    -0.051 Br
HETATM   16  C   UNL     1      -5.127  -2.537 -34.188  1.00  0.00     0.037 A 
BRANCH  11  17
HETATM   17  O   UNL     1      -2.572  -2.130 -31.565  1.00  0.00    -0.360 OA
HETATM   18  H   UNL     1      -1.767  -1.813 -32.026  1.00  0.00     0.217 HD
ENDBRANCH  11  17
ENDBRANCH   4  10
ENDBRANCH   1   2
BRANCH   1  19
HETATM   19  C   UNL     1      -6.438   3.728 -33.045  1.00  0.00     0.185 C 
BRANCH  19  20
HETATM   20  C   UNL     1      -7.905   3.901 -33.419  1.00  0.00     0.231 C 
HETATM   21  N   UNL     1      -8.767   3.030 -32.781  1.00  0.00    -0.326 N 
HETATM   22  H   UNL     1      -8.359   2.440 -32.058  1.00  0.00     0.169 HD
HETATM   23  O   UNL     1      -8.229   4.728 -34.270  1.00  0.00    -0.272 OA
BRANCH  21  24
HETATM   24  C   UNL     1     -10.152   2.871 -32.988  1.00  0.00     0.037 A 
HETATM   25  C   UNL     1     -10.702   1.864 -33.789  1.00  0.00     0.061 A 
HETATM   26  C   UNL     1     -12.076   1.809 -33.864  1.00  0.00     0.065 A 
HETATM   27  C   UNL     1     -12.900   2.715 -33.201  1.00  0.00     0.063 A 
HETATM   28  N   UNL     1     -12.892   0.908 -34.542  1.00  0.00    -0.306 N 
HETATM   29  N   UNL     1     -14.220   2.379 -33.479  1.00  0.00    -0.307 N 
HETATM   30  C   UNL     1     -12.395   3.721 -32.418  1.00  0.00     0.034 A 
HETATM   31  C   UNL     1     -14.232   1.248 -34.307  1.00  0.00     0.325 A 
HETATM   32  H   UNL     1     -15.051   2.835 -33.143  1.00  0.00     0.170 HD
HETATM   33  O   UNL     1     -15.216   0.672 -34.735  1.00  0.00    -0.247 OA
HETATM   34  C   UNL     1     -11.000   3.785 -32.307  1.00  0.00     0.032 A 
HETATM   35  H   UNL     1     -12.597   0.123 -35.100  1.00  0.00     0.170 HD
ENDBRANCH  21  24
ENDBRANCH  19  20
ENDBRANCH   1  19
TORSDOF 8
ENDMDL
MODEL 2
REMARK VINA RESULT:      -8.7      1.295      1.812
REMARK  8 active torsions:
REMARK  status: ('A' for Active; 'I' for Inactive)
REMARK    1  A    between atoms: C_2  and  C_3 
REMARK    2  A    between atoms: C_3  and  N_4 
REMARK    3  A    between atoms: C_5  and  S_6 
REMARK    4  A    between atoms: S_6  and  C_7 
REMARK    5  A    between atoms: C_7  and  C_8 
REMARK       I    between atoms: C_8  and  N_9 
REMARK    6  A    between atoms: N_9  and  C_10 
REMARK    7  A    between atoms: C_23  and  C_24 
REMARK    8  A    between atoms: C_25  and  O_26 
ROOT
HETATM    1  S   UNL     1      -7.420   3.241 -32.096  1.00  0.00    -0.081 SA
ENDROOT
BRANCH   1   2
HETATM    2  C   UNL     1      -6.134   2.154 -32.474  1.00  0.00     0.192 A 
HETATM    3  N   UNL     1      -6.270   0.817 -32.735  1.00  0.00    -0.304 N 
HETATM    4  C   UNL     1      -4.978   0.337 -32.850  1.00  0.00     0.167 A 
HETATM    5  N   UNL     1      -4.142   1.356 -32.716  1.00  0.00    -0.128 NA
HETATM    6  N   UNL     1      -4.868   2.493 -32.503  1.00  0.00    -0.122 NA
BRANCH   3   7
HETATM    7  C   UNL     1      -7.507   0.057 -32.787  1.00  0.00     0.159 C 
BRANCH   7   8
HETATM    8  C   UNL     1      -8.088   0.003 -34.169  1.00  0.00    -0.017 C 
HETATM    9  C   UNL     1      -7.437   0.385 -35.276  1.00  0.00     0.008 C 
ENDBRANCH   7   8
ENDBRANCH   3   7
BRANCH   4  10
HETATM   10  C   UNL     1      -4.543  -1.057 -32.907  1.00  0.00     0.046 A 
HETATM   11  C   UNL     1      -3.536  -1.508 -32.034  1.00  0.00     0.079 A 
HETATM   12  C   UNL     1      -3.127  -2.840 -32.023  1.00  0.00     0.039 A 
HETATM   13  C   UNL     1      -3.699  -3.743 -32.916  1.00  0.00     0.022 A 
HETATM   14  C   UNL     1      -4.666  -3.300 -33.818  1.00  0.00     0.012 A 
HETATM   15 BR   UNL     1      -5.425  -4.520 -35.046  1.00  0.00    -0.051 Br
HETATM   16  C   UNL     1      -5.083  -1.966 -33.824  1.00  0.00     0.037 A 
BRANCH  11  17
HETATM   17  O   UNL     1      -2.905  -0.675 -31.147  1.00  0.00    -0.360 OA
HETATM   18  H   UNL     1      -2.296  -0.095 -31.650  1.00  0.00     0.217 HD
ENDBRANCH  11  17
ENDBRANCH   4  10
ENDBRANCH   1   2
BRANCH   1  19
HETATM   19  C   UNL     1      -7.885   3.787 -33.771  1.00  0.00     0.185 C 
BRANCH  19  20
HETATM   20  C   UNL     1      -9.384   3.711 -34.036  1.00  0.00     0.231 C 
HETATM   21  N   UNL     1     -10.055   2.776 -33.271  1.00  0.00    -0.326 N 
HETATM   22  H   UNL     1      -9.512   2.315 -32.544  1.00  0.00     0.169 HD
HETATM   23  O   UNL     1      -9.889   4.409 -34.914  1.00  0.00    -0.272 OA
BRANCH  21  24
HETATM   24  C   UNL     1     -11.411   2.399 -33.353  1.00  0.00     0.037 A 
HETATM   25  C   UNL     1     -12.413   2.939 -32.540  1.00  0.00     0.061 A 
HETATM   26  C   UNL     1     -13.699   2.502 -32.763  1.00  0.00     0.065 A 
HETATM   27  C   UNL     1     -14.010   1.552 -33.733  1.00  0.00     0.063 A 
HETATM   28  N   UNL     1     -14.886   2.883 -32.143  1.00  0.00    -0.306 N 
HETATM   29  N   UNL     1     -15.384   1.342 -33.704  1.00  0.00    -0.307 N 
HETATM   30  C   UNL     1     -13.053   0.995 -34.540  1.00  0.00     0.034 A 
HETATM   31  C   UNL     1     -15.946   2.172 -32.722  1.00  0.00     0.325 A 
HETATM   32  H   UNL     1     -15.921   0.722 -34.287  1.00  0.00     0.170 HD
HETATM   33  O   UNL     1     -17.126   2.259 -32.435  1.00  0.00    -0.247 OA
HETATM   34  C   UNL     1     -11.739   1.439 -34.348  1.00  0.00     0.032 A 
HETATM   35  H   UNL     1     -14.996   3.566 -31.411  1.00  0.00     0.170 HD
ENDBRANCH  21  24
ENDBRANCH  19  20
ENDBRANCH   1  19
TORSDOF 8
ENDMDL
MODEL 3
REMARK VINA RESULT:      -8.6      4.248      7.838
REMARK  8 active torsions:
REMARK  status: ('A' for Active; 'I' for Inactive)
REMARK    1  A    between atoms: C_2  and  C_3 
REMARK    2  A    between atoms: C_3  and  N_4 
REMARK    3  A    between atoms: C_5  and  S_6 
REMARK    4  A    between atoms: S_6  and  C_7 
REMARK    5  A    between atoms: C_7  and  C_8 
REMARK       I    between atoms: C_8  and  N_9 
REMARK    6  A    between atoms: N_9  and  C_10 
REMARK    7  A    between atoms: C_23  and  C_24 
REMARK    8  A    between atoms: C_25  and  O_26 
ROOT
HETATM    1  S   UNL     1      -8.306   4.039 -31.559  1.00  0.00    -0.081 SA
ENDROOT
BRANCH   1   2
HETATM    2  C   UNL     1      -6.983   4.644 -32.488  1.00  0.00     0.192 A 
HETATM    3  N   UNL     1      -5.674   4.675 -32.087  1.00  0.00    -0.304 N 
HETATM    4  C   UNL     1      -5.005   5.357 -33.088  1.00  0.00     0.167 A 
HETATM    5  N   UNL     1      -5.874   5.655 -34.041  1.00  0.00    -0.128 NA
HETATM    6  N   UNL     1      -7.104   5.189 -33.674  1.00  0.00    -0.122 NA
BRANCH   3   7
HETATM    7  C   UNL     1      -5.130   4.176 -30.836  1.00  0.00     0.159 C 
BRANCH   7   8
HETATM    8  C   UNL     1      -4.644   2.761 -30.946  1.00  0.00    -0.017 C 
HETATM    9  C   UNL     1      -3.399   2.417 -31.300  1.00  0.00     0.008 C 
ENDBRANCH   7   8
ENDBRANCH   3   7
BRANCH   4  10
HETATM   10  C   UNL     1      -3.634   5.862 -33.063  1.00  0.00     0.046 A 
HETATM   11  C   UNL     1      -2.916   5.985 -34.267  1.00  0.00     0.079 A 
HETATM   12  C   UNL     1      -1.624   6.507 -34.292  1.00  0.00     0.039 A 
HETATM   13  C   UNL     1      -1.012   6.888 -33.101  1.00  0.00     0.022 A 
HETATM   14  C   UNL     1      -1.695   6.730 -31.895  1.00  0.00     0.012 A 
HETATM   15 BR   UNL     1      -0.856   7.225 -30.275  1.00  0.00    -0.051 Br
HETATM   16  C   UNL     1      -2.994   6.214 -31.869  1.00  0.00     0.037 A 
BRANCH  11  17
HETATM   17  O   UNL     1      -3.438   5.605 -35.475  1.00  0.00    -0.360 OA
HETATM   18  H   UNL     1      -4.185   6.202 -35.690  1.00  0.00     0.217 HD
ENDBRANCH  11  17
ENDBRANCH   4  10
ENDBRANCH   1   2
BRANCH   1  19
HETATM   19  C   UNL     1      -8.964   2.789 -32.711  1.00  0.00     0.185 C 
BRANCH  19  20
HETATM   20  C   UNL     1      -8.315   1.420 -32.551  1.00  0.00     0.231 C 
HETATM   21  N   UNL     1      -7.345   1.131 -33.492  1.00  0.00    -0.326 N 
HETATM   22  H   UNL     1      -7.089   1.888 -34.123  1.00  0.00     0.169 HD
HETATM   23  O   UNL     1      -8.704   0.653 -31.671  1.00  0.00    -0.272 OA
BRANCH  21  24
HETATM   24  C   UNL     1      -6.644  -0.078 -33.673  1.00  0.00     0.037 A 
HETATM   25  C   UNL     1      -7.229  -1.240 -34.190  1.00  0.00     0.061 A 
HETATM   26  C   UNL     1      -6.407  -2.333 -34.348  1.00  0.00     0.065 A 
HETATM   27  C   UNL     1      -5.059  -2.315 -33.998  1.00  0.00     0.063 A 
HETATM   28  N   UNL     1      -6.697  -3.593 -34.865  1.00  0.00    -0.306 N 
HETATM   29  N   UNL     1      -4.523  -3.564 -34.289  1.00  0.00    -0.307 N 
HETATM   30  C   UNL     1      -4.457  -1.198 -33.479  1.00  0.00     0.034 A 
HETATM   31  C   UNL     1      -5.530  -4.370 -34.838  1.00  0.00     0.325 A 
HETATM   32  H   UNL     1      -3.573  -3.867 -34.159  1.00  0.00     0.170 HD
HETATM   33  O   UNL     1      -5.411  -5.520 -35.222  1.00  0.00    -0.247 OA
HETATM   34  C   UNL     1      -5.266  -0.065 -33.329  1.00  0.00     0.032 A 
HETATM   35  H   UNL     1      -7.582  -3.914 -35.222  1.00  0.00     0.170 HD
ENDBRANCH  21  24
ENDBRANCH  19  20
ENDBRANCH   1  19
TORSDOF 8
ENDMDL
MODEL 4
REMARK VINA RESULT:      -8.4      4.534      8.039
REMARK  8 active torsions:
REMARK  status: ('A' for Active; 'I' for Inactive)
REMARK    1  A    between atoms: C_2  and  C_3 
REMARK    2  A    between atoms: C_3  and  N_4 
REMARK    3  A    between atoms: C_5  and  S_6 
REMARK    4  A    between atoms: S_6  and  C_7 
REMARK    5  A    between atoms: C_7  and  C_8 
REMARK       I    between atoms: C_8  and  N_9 
REMARK    6  A    between atoms: N_9  and  C_10 
REMARK    7  A    between atoms: C_23  and  C_24 
REMARK    8  A    between atoms: C_25  and  O_26 
ROOT
HETATM    1  S   UNL     1      -5.646   3.082 -32.021  1.00  0.00    -0.081 SA
ENDROOT
BRANCH   1   2
HETATM    2  C   UNL     1      -4.721   1.685 -32.437  1.00  0.00     0.192 A 
HETATM    3  N   UNL     1      -5.229   0.501 -32.903  1.00  0.00    -0.304 N 
HETATM    4  C   UNL     1      -4.145  -0.356 -32.969  1.00  0.00     0.167 A 
HETATM    5  N   UNL     1      -3.060   0.316 -32.612  1.00  0.00    -0.128 NA
HETATM    6  N   UNL     1      -3.421   1.596 -32.302  1.00  0.00    -0.122 NA
BRANCH   3   7
HETATM    7  C   UNL     1      -6.621   0.194 -33.178  1.00  0.00     0.159 C 
BRANCH   7   8
HETATM    8  C   UNL     1      -7.048   0.643 -34.545  1.00  0.00    -0.017 C 
HETATM    9  C   UNL     1      -7.813  -0.083 -35.371  1.00  0.00     0.008 C 
ENDBRANCH   7   8
ENDBRANCH   3   7
BRANCH   4  10
HETATM   10  C   UNL     1      -4.159  -1.800 -33.191  1.00  0.00     0.046 A 
HETATM   11  C   UNL     1      -3.320  -2.630 -32.426  1.00  0.00     0.079 A 
HETATM   12  C   UNL     1      -3.338  -4.016 -32.572  1.00  0.00     0.039 A 
HETATM   13  C   UNL     1      -4.179  -4.597 -33.519  1.00  0.00     0.022 A 
HETATM   14  C   UNL     1      -4.983  -3.783 -34.316  1.00  0.00     0.012 A 
HETATM   15 BR   UNL     1      -6.106  -4.570 -35.618  1.00  0.00    -0.051 Br
HETATM   16  C   UNL     1      -4.972  -2.393 -34.164  1.00  0.00     0.037 A 
BRANCH  11  17
HETATM   17  O   UNL     1      -2.445  -2.133 -31.496  1.00  0.00    -0.360 OA
HETATM   18  H   UNL     1      -2.850  -2.229 -30.609  1.00  0.00     0.217 HD
ENDBRANCH  11  17
ENDBRANCH   4  10
ENDBRANCH   1   2
BRANCH   1  19
HETATM   19  C   UNL     1      -5.151   4.209 -33.365  1.00  0.00     0.185 C 
BRANCH  19  20
HETATM   20  C   UNL     1      -4.084   5.213 -32.948  1.00  0.00     0.231 C 
HETATM   21  N   UNL     1      -3.263   4.785 -31.922  1.00  0.00    -0.326 N 
HETATM   22  H   UNL     1      -3.380   3.819 -31.624  1.00  0.00     0.169 HD
HETATM   23  O   UNL     1      -4.043   6.322 -33.478  1.00  0.00    -0.272 OA
BRANCH  21  24
HETATM   24  C   UNL     1      -2.261   5.514 -31.251  1.00  0.00     0.037 A 
HETATM   25  C   UNL     1      -2.532   6.494 -30.290  1.00  0.00     0.061 A 
HETATM   26  C   UNL     1      -1.448   7.094 -29.689  1.00  0.00     0.065 A 
HETATM   27  C   UNL     1      -0.134   6.772 -30.020  1.00  0.00     0.063 A 
HETATM   28  N   UNL     1      -1.411   8.060 -28.688  1.00  0.00    -0.306 N 
HETATM   29  N   UNL     1       0.709   7.546 -29.232  1.00  0.00    -0.307 N 
HETATM   30  C   UNL     1       0.168   5.825 -30.964  1.00  0.00     0.034 A 
HETATM   31  C   UNL     1      -0.072   8.349 -28.389  1.00  0.00     0.325 A 
HETATM   32  H   UNL     1       1.715   7.542 -29.226  1.00  0.00     0.170 HD
HETATM   33  O   UNL     1       0.335   9.140 -27.556  1.00  0.00    -0.247 OA
HETATM   34  C   UNL     1      -0.917   5.184 -31.574  1.00  0.00     0.032 A 
HETATM   35  H   UNL     1      -2.199   8.485 -28.225  1.00  0.00     0.170 HD
ENDBRANCH  21  24
ENDBRANCH  19  20
ENDBRANCH   1  19
TORSDOF 8
ENDMDL
MODEL 5
REMARK VINA RESULT:      -8.3      2.267      3.232
REMARK  8 active torsions:
REMARK  status: ('A' for Active; 'I' for Inactive)
REMARK    1  A    between atoms: C_2  and  C_3 
REMARK    2  A    between atoms: C_3  and  N_4 
REMARK    3  A    between atoms: C_5  and  S_6 
REMARK    4  A    between atoms: S_6  and  C_7 
REMARK    5  A    between atoms: C_7  and  C_8 
REMARK       I    between atoms: C_8  and  N_9 
REMARK    6  A    between atoms: N_9  and  C_10 
REMARK    7  A    between atoms: C_23  and  C_24 
REMARK    8  A    between atoms: C_25  and  O_26 
ROOT
HETATM    1  S   UNL     1      -7.092   5.169 -31.562  1.00  0.00    -0.081 SA
ENDROOT
BRANCH   1   2
HETATM    2  C   UNL     1      -6.737   3.914 -32.693  1.00  0.00     0.192 A 
HETATM    3  N   UNL     1      -6.889   2.571 -32.468  1.00  0.00    -0.304 N 
HETATM    4  C   UNL     1      -6.362   1.955 -33.589  1.00  0.00     0.167 A 
HETATM    5  N   UNL     1      -5.977   2.895 -34.439  1.00  0.00    -0.128 NA
HETATM    6  N   UNL     1      -6.233   4.117 -33.885  1.00  0.00    -0.122 NA
BRANCH   3   7
HETATM    7  C   UNL     1      -7.408   1.937 -31.269  1.00  0.00     0.159 C 
BRANCH   7   8
HETATM    8  C   UNL     1      -6.384   1.852 -30.176  1.00  0.00    -0.017 C 
HETATM    9  C   UNL     1      -5.889   0.704 -29.696  1.00  0.00     0.008 C 
ENDBRANCH   7   8
ENDBRANCH   3   7
BRANCH   4  10
HETATM   10  C   UNL     1      -6.071   0.535 -33.776  1.00  0.00     0.046 A 
HETATM   11  C   UNL     1      -6.822  -0.214 -34.699  1.00  0.00     0.079 A 
HETATM   12  C   UNL     1      -6.545  -1.558 -34.942  1.00  0.00     0.039 A 
HETATM   13  C   UNL     1      -5.525  -2.189 -34.234  1.00  0.00     0.022 A 
HETATM   14  C   UNL     1      -4.801  -1.471 -33.283  1.00  0.00     0.012 A 
HETATM   15 BR   UNL     1      -3.431  -2.333 -32.306  1.00  0.00    -0.051 Br
HETATM   16  C   UNL     1      -5.073  -0.120 -33.045  1.00  0.00     0.037 A 
BRANCH  11  17
HETATM   17  O   UNL     1      -7.860   0.327 -35.411  1.00  0.00    -0.360 OA
HETATM   18  H   UNL     1      -8.699   0.084 -34.967  1.00  0.00     0.217 HD
ENDBRANCH  11  17
ENDBRANCH   4  10
ENDBRANCH   1   2
BRANCH   1  19
HETATM   19  C   UNL     1      -8.386   6.070 -32.476  1.00  0.00     0.185 C 
BRANCH  19  20
HETATM   20  C   UNL     1      -9.326   5.155 -33.251  1.00  0.00     0.231 C 
HETATM   21  N   UNL     1     -10.042   4.270 -32.467  1.00  0.00    -0.326 N 
HETATM   22  H   UNL     1      -9.954   4.388 -31.459  1.00  0.00     0.169 HD
HETATM   23  O   UNL     1      -9.357   5.204 -34.479  1.00  0.00    -0.272 OA
BRANCH  21  24
HETATM   24  C   UNL     1     -10.904   3.239 -32.888  1.00  0.00     0.037 A 
HETATM   25  C   UNL     1     -12.272   3.423 -33.121  1.00  0.00     0.061 A 
HETATM   26  C   UNL     1     -12.980   2.330 -33.569  1.00  0.00     0.065 A 
HETATM   27  C   UNL     1     -12.390   1.085 -33.768  1.00  0.00     0.063 A 
HETATM   28  N   UNL     1     -14.324   2.225 -33.916  1.00  0.00    -0.306 N 
HETATM   29  N   UNL     1     -13.370   0.212 -34.226  1.00  0.00    -0.307 N 
HETATM   30  C   UNL     1     -11.056   0.866 -33.539  1.00  0.00     0.034 A 
HETATM   31  C   UNL     1     -14.582   0.911 -34.331  1.00  0.00     0.325 A 
HETATM   32  H   UNL     1     -13.262  -0.758 -34.469  1.00  0.00     0.170 HD
HETATM   33  O   UNL     1     -15.647   0.463 -34.714  1.00  0.00    -0.247 OA
HETATM   34  C   UNL     1     -10.308   1.968 -33.104  1.00  0.00     0.032 A 
HETATM   35  H   UNL     1     -15.015   2.958 -33.897  1.00  0.00     0.170 HD
ENDBRANCH  21  24
ENDBRANCH  19  20
ENDBRANCH   1  19
TORSDOF 8
ENDMDL
MODEL 6
REMARK VINA RESULT:      -8.2      3.423      7.041
REMARK  8 active torsions:
REMARK  status: ('A' for Active; 'I' for Inactive)
REMARK    1  A    between atoms: C_2  and  C_3 
REMARK    2  A    between atoms: C_3  and  N_4 
REMARK    3  A    between atoms: C_5  and  S_6 
REMARK    4  A    between atoms: S_6  and  C_7 
REMARK    5  A    between atoms: C_7  and  C_8 
REMARK       I    between atoms: C_8  and  N_9 
REMARK    6  A    between atoms: N_9  and  C_10 
REMARK    7  A    between atoms: C_23  and  C_24 
REMARK    8  A    between atoms: C_25  and  O_26 
ROOT
HETATM    1  S   UNL     1      -9.059   3.702 -32.340  1.00  0.00    -0.081 SA
ENDROOT
BRANCH   1   2
HETATM    2  C   UNL     1      -7.973   2.686 -33.216  1.00  0.00     0.192 A 
HETATM    3  N   UNL     1      -7.823   1.336 -33.038  1.00  0.00    -0.304 N 
HETATM    4  C   UNL     1      -6.764   0.980 -33.853  1.00  0.00     0.167 A 
HETATM    5  N   UNL     1      -6.360   2.058 -34.507  1.00  0.00    -0.128 NA
HETATM    6  N   UNL     1      -7.131   3.117 -34.123  1.00  0.00    -0.122 NA
BRANCH   3   7
HETATM    7  C   UNL     1      -8.563   0.487 -32.121  1.00  0.00     0.159 C 
BRANCH   7   8
HETATM    8  C   UNL     1      -9.733  -0.184 -32.779  1.00  0.00    -0.017 C 
HETATM    9  C   UNL     1     -10.824   0.461 -33.214  1.00  0.00     0.008 C 
ENDBRANCH   7   8
ENDBRANCH   3   7
BRANCH   4  10
HETATM   10  C   UNL     1      -6.046  -0.293 -33.881  1.00  0.00     0.046 A 
HETATM   11  C   UNL     1      -4.757  -0.378 -33.324  1.00  0.00     0.079 A 
HETATM   12  C   UNL     1      -4.059  -1.583 -33.287  1.00  0.00     0.039 A 
HETATM   13  C   UNL     1      -4.629  -2.726 -33.842  1.00  0.00     0.022 A 
HETATM   14  C   UNL     1      -5.887  -2.647 -34.438  1.00  0.00     0.012 A 
HETATM   15 BR   UNL     1      -6.652  -4.193 -35.211  1.00  0.00    -0.051 Br
HETATM   16  C   UNL     1      -6.593  -1.440 -34.468  1.00  0.00     0.037 A 
BRANCH  11  17
HETATM   17  O   UNL     1      -4.117   0.708 -32.786  1.00  0.00    -0.360 OA
HETATM   18  H   UNL     1      -3.965   0.536 -31.833  1.00  0.00     0.217 HD
ENDBRANCH  11  17
ENDBRANCH   4  10
ENDBRANCH   1   2
BRANCH   1  19
HETATM   19  C   UNL     1      -8.357   3.557 -30.664  1.00  0.00     0.185 C 
BRANCH  19  20
HETATM   20  C   UNL     1      -6.834   3.520 -30.650  1.00  0.00     0.231 C 
HETATM   21  N   UNL     1      -6.227   4.566 -31.318  1.00  0.00    -0.326 N 
HETATM   22  H   UNL     1      -6.844   5.303 -31.655  1.00  0.00     0.169 HD
HETATM   23  O   UNL     1      -6.247   2.577 -30.122  1.00  0.00    -0.272 OA
BRANCH  21  24
HETATM   24  C   UNL     1      -4.854   4.757 -31.569  1.00  0.00     0.037 A 
HETATM   25  C   UNL     1      -3.979   5.359 -30.658  1.00  0.00     0.061 A 
HETATM   26  C   UNL     1      -2.654   5.439 -31.026  1.00  0.00     0.065 A 
HETATM   27  C   UNL     1      -2.187   4.970 -32.252  1.00  0.00     0.063 A 
HETATM   28  N   UNL     1      -1.566   5.944 -30.320  1.00  0.00    -0.306 N 
HETATM   29  N   UNL     1      -0.817   5.196 -32.304  1.00  0.00    -0.307 N 
HETATM   30  C   UNL     1      -3.018   4.386 -33.172  1.00  0.00     0.034 A 
HETATM   31  C   UNL     1      -0.412   5.795 -31.102  1.00  0.00     0.325 A 
HETATM   32  H   UNL     1      -0.186   4.963 -33.053  1.00  0.00     0.170 HD
HETATM   33  O   UNL     1       0.722   6.118 -30.798  1.00  0.00    -0.247 OA
HETATM   34  C   UNL     1      -4.367   4.271 -32.812  1.00  0.00     0.032 A 
HETATM   35  H   UNL     1      -1.574   6.340 -29.394  1.00  0.00     0.170 HD
ENDBRANCH  21  24
ENDBRANCH  19  20
ENDBRANCH   1  19
TORSDOF 8
ENDMDL
MODEL 7
REMARK VINA RESULT:      -8.2      1.913      2.512
REMARK  8 active torsions:
REMARK  status: ('A' for Active; 'I' for Inactive)
REMARK    1  A    between atoms: C_2  and  C_3 
REMARK    2  A    between atoms: C_3  and  N_4 
REMARK    3  A    between atoms: C_5  and  S_6 
REMARK    4  A    between atoms: S_6  and  C_7 
REMARK    5  A    between atoms: C_7  and  C_8 
REMARK       I    between atoms: C_8  and  N_9 
REMARK    6  A    between atoms: N_9  and  C_10 
REMARK    7  A    between atoms: C_23  and  C_24 
REMARK    8  A    between atoms: C_25  and  O_26 
ROOT
HETATM    1  S   UNL     1      -5.256   5.028 -30.973  1.00  0.00    -0.081 SA
ENDROOT
BRANCH   1   2
HETATM    2  C   UNL     1      -4.453   3.691 -31.713  1.00  0.00     0.192 A 
HETATM    3  N   UNL     1      -4.977   2.435 -31.874  1.00  0.00    -0.304 N 
HETATM    4  C   UNL     1      -3.942   1.674 -32.386  1.00  0.00     0.167 A 
HETATM    5  N   UNL     1      -2.893   2.464 -32.562  1.00  0.00    -0.128 NA
HETATM    6  N   UNL     1      -3.223   3.727 -32.162  1.00  0.00    -0.122 NA
BRANCH   3   7
HETATM    7  C   UNL     1      -6.307   1.987 -31.499  1.00  0.00     0.159 C 
BRANCH   7   8
HETATM    8  C   UNL     1      -6.299   1.146 -30.256  1.00  0.00    -0.017 C 
HETATM    9  C   UNL     1      -6.645  -0.148 -30.220  1.00  0.00     0.008 C 
ENDBRANCH   7   8
ENDBRANCH   3   7
BRANCH   4  10
HETATM   10  C   UNL     1      -3.889   0.222 -32.537  1.00  0.00     0.046 A 
HETATM   11  C   UNL     1      -3.010  -0.530 -31.736  1.00  0.00     0.079 A 
HETATM   12  C   UNL     1      -2.964  -1.920 -31.815  1.00  0.00     0.039 A 
HETATM   13  C   UNL     1      -3.778  -2.586 -32.728  1.00  0.00     0.022 A 
HETATM   14  C   UNL     1      -4.622  -1.850 -33.560  1.00  0.00     0.012 A 
HETATM   15 BR   UNL     1      -5.712  -2.751 -34.815  1.00  0.00    -0.051 Br
HETATM   16  C   UNL     1      -4.676  -0.456 -33.475  1.00  0.00     0.037 A 
BRANCH  11  17
HETATM   17  O   UNL     1      -2.156   0.053 -30.836  1.00  0.00    -0.360 OA
HETATM   18  H   UNL     1      -1.237  -0.088 -31.147  1.00  0.00     0.217 HD
ENDBRANCH  11  17
ENDBRANCH   4  10
ENDBRANCH   1   2
BRANCH   1  19
HETATM   19  C   UNL     1      -5.744   5.972 -32.454  1.00  0.00     0.185 C 
BRANCH  19  20
HETATM   20  C   UNL     1      -6.687   5.206 -33.373  1.00  0.00     0.231 C 
HETATM   21  N   UNL     1      -7.994   5.139 -32.930  1.00  0.00    -0.326 N 
HETATM   22  H   UNL     1      -8.217   5.689 -32.102  1.00  0.00     0.169 HD
HETATM   23  O   UNL     1      -6.250   4.661 -34.386  1.00  0.00    -0.272 OA
BRANCH  21  24
HETATM   24  C   UNL     1      -9.068   4.424 -33.495  1.00  0.00     0.037 A 
HETATM   25  C   UNL     1      -9.563   3.228 -32.964  1.00  0.00     0.061 A 
HETATM   26  C   UNL     1     -10.645   2.663 -33.603  1.00  0.00     0.065 A 
HETATM   27  C   UNL     1     -11.223   3.227 -34.738  1.00  0.00     0.063 A 
HETATM   28  N   UNL     1     -11.363   1.514 -33.285  1.00  0.00    -0.306 N 
HETATM   29  N   UNL     1     -12.287   2.420 -35.124  1.00  0.00    -0.307 N 
HETATM   30  C   UNL     1     -10.756   4.391 -35.291  1.00  0.00     0.034 A 
HETATM   31  C   UNL     1     -12.393   1.351 -34.222  1.00  0.00     0.325 A 
HETATM   32  H   UNL     1     -12.910   2.559 -35.901  1.00  0.00     0.170 HD
HETATM   33  O   UNL     1     -13.222   0.460 -34.247  1.00  0.00    -0.247 OA
HETATM   34  C   UNL     1      -9.671   4.997 -34.647  1.00  0.00     0.032 A 
HETATM   35  H   UNL     1     -11.202   0.894 -32.507  1.00  0.00     0.170 HD
ENDBRANCH  21  24
ENDBRANCH  19  20
ENDBRANCH   1  19
TORSDOF 8
ENDMDL
MODEL 8
REMARK VINA RESULT:      -8.2      5.087      8.270
REMARK  8 active torsions:
REMARK  status: ('A' for Active; 'I' for Inactive)
REMARK    1  A    between atoms: C_2  and  C_3 
REMARK    2  A    between atoms: C_3  and  N_4 
REMARK    3  A    between atoms: C_5  and  S_6 
REMARK    4  A    between atoms: S_6  and  C_7 
REMARK    5  A    between atoms: C_7  and  C_8 
REMARK       I    between atoms: C_8  and  N_9 
REMARK    6  A    between atoms: N_9  and  C_10 
REMARK    7  A    between atoms: C_23  and  C_24 
REMARK    8  A    between atoms: C_25  and  O_26 
ROOT
HETATM    1  S   UNL     1      -6.219   4.469 -33.850  1.00  0.00    -0.081 SA
ENDROOT
BRANCH   1   2
HETATM    2  C   UNL     1      -5.131   5.566 -33.081  1.00  0.00     0.192 A 
HETATM    3  N   UNL     1      -3.784   5.374 -32.920  1.00  0.00    -0.304 N 
HETATM    4  C   UNL     1      -3.357   6.436 -32.143  1.00  0.00     0.167 A 
HETATM    5  N   UNL     1      -4.394   7.228 -31.915  1.00  0.00    -0.128 NA
HETATM    6  N   UNL     1      -5.495   6.693 -32.520  1.00  0.00    -0.122 NA
BRANCH   3   7
HETATM    7  C   UNL     1      -2.999   4.247 -33.391  1.00  0.00     0.159 C 
BRANCH   7   8
HETATM    8  C   UNL     1      -2.703   3.259 -32.301  1.00  0.00    -0.017 C 
HETATM    9  C   UNL     1      -3.508   3.029 -31.255  1.00  0.00     0.008 C 
ENDBRANCH   7   8
ENDBRANCH   3   7
BRANCH   4  10
HETATM   10  C   UNL     1      -2.059   6.605 -31.494  1.00  0.00     0.046 A 
HETATM   11  C   UNL     1      -0.931   6.933 -32.268  1.00  0.00     0.079 A 
HETATM   12  C   UNL     1       0.314   7.150 -31.682  1.00  0.00     0.039 A 
HETATM   13  C   UNL     1       0.461   7.007 -30.304  1.00  0.00     0.022 A 
HETATM   14  C   UNL     1      -0.638   6.637 -29.530  1.00  0.00     0.012 A 
HETATM   15 BR   UNL     1      -0.435   6.421 -27.663  1.00  0.00    -0.051 Br
HETATM   16  C   UNL     1      -1.891   6.428 -30.116  1.00  0.00     0.037 A 
BRANCH  11  17
HETATM   17  O   UNL     1      -0.988   7.062 -33.631  1.00  0.00    -0.360 OA
HETATM   18  H   UNL     1      -0.072   7.092 -33.976  1.00  0.00     0.217 HD
ENDBRANCH  11  17
ENDBRANCH   4  10
ENDBRANCH   1   2
BRANCH   1  19
HETATM   19  C   UNL     1      -7.018   3.729 -32.389  1.00  0.00     0.185 C 
BRANCH  19  20
HETATM   20  C   UNL     1      -6.813   2.223 -32.286  1.00  0.00     0.231 C 
HETATM   21  N   UNL     1      -6.015   1.684 -33.277  1.00  0.00    -0.326 N 
HETATM   22  H   UNL     1      -5.564   2.348 -33.904  1.00  0.00     0.169 HD
HETATM   23  O   UNL     1      -7.384   1.583 -31.405  1.00  0.00    -0.272 OA
BRANCH  21  24
HETATM   24  C   UNL     1      -5.724   0.326 -33.515  1.00  0.00     0.037 A 
HETATM   25  C   UNL     1      -6.628  -0.566 -34.102  1.00  0.00     0.061 A 
HETATM   26  C   UNL     1      -6.188  -1.854 -34.309  1.00  0.00     0.065 A 
HETATM   27  C   UNL     1      -4.914  -2.279 -33.940  1.00  0.00     0.063 A 
HETATM   28  N   UNL     1      -6.843  -2.932 -34.897  1.00  0.00    -0.306 N 
HETATM   29  N   UNL     1      -4.789  -3.618 -34.291  1.00  0.00    -0.307 N 
HETATM   30  C   UNL     1      -4.007  -1.435 -33.353  1.00  0.00     0.034 A 
HETATM   31  C   UNL     1      -5.982  -4.038 -34.898  1.00  0.00     0.325 A 
HETATM   32  H   UNL     1      -3.987  -4.211 -34.165  1.00  0.00     0.170 HD
HETATM   33  O   UNL     1      -6.219  -5.147 -35.342  1.00  0.00    -0.247 OA
HETATM   34  C   UNL     1      -4.422  -0.113 -33.152  1.00  0.00     0.032 A 
HETATM   35  H   UNL     1      -7.774  -2.939 -35.283  1.00  0.00     0.170 HD
ENDBRANCH  21  24
ENDBRANCH  19  20
ENDBRANCH   1  19
TORSDOF 8
ENDMDL
MODEL 9
REMARK VINA RESULT:      -8.1      2.320      3.366
REMARK  8 active torsions:
REMARK  status: ('A' for Active; 'I' for Inactive)
REMARK    1  A    between atoms: C_2  and  C_3 
REMARK    2  A    between atoms: C_3  and  N_4 
REMARK    3  A    between atoms: C_5  and  S_6 
REMARK    4  A    between atoms: S_6  and  C_7 
REMARK    5  A    between atoms: C_7  and  C_8 
REMARK       I    between atoms: C_8  and  N_9 
REMARK    6  A    between atoms: N_9  and  C_10 
REMARK    7  A    between atoms: C_23  and  C_24 
REMARK    8  A    between atoms: C_25  and  O_26 
ROOT
HETATM    1  S   UNL     1      -7.964   4.283 -32.116  1.00  0.00    -0.081 SA
ENDROOT
BRANCH   1   2
HETATM    2  C   UNL     1      -7.721   2.575 -32.090  1.00  0.00     0.192 A 
HETATM    3  N   UNL     1      -6.616   1.918 -32.562  1.00  0.00    -0.304 N 
HETATM    4  C   UNL     1      -6.920   0.573 -32.454  1.00  0.00     0.167 A 
HETATM    5  N   UNL     1      -8.117   0.461 -31.897  1.00  0.00    -0.128 NA
HETATM    6  N   UNL     1      -8.604   1.712 -31.651  1.00  0.00    -0.122 NA
BRANCH   3   7
HETATM    7  C   UNL     1      -5.422   2.515 -33.136  1.00  0.00     0.159 C 
BRANCH   7   8
HETATM    8  C   UNL     1      -4.248   2.458 -32.203  1.00  0.00    -0.017 C 
HETATM    9  C   UNL     1      -4.302   2.779 -30.904  1.00  0.00     0.008 C 
ENDBRANCH   7   8
ENDBRANCH   3   7
BRANCH   4  10
HETATM   10  C   UNL     1      -6.186  -0.558 -33.016  1.00  0.00     0.046 A 
HETATM   11  C   UNL     1      -6.557  -1.074 -34.271  1.00  0.00     0.079 A 
HETATM   12  C   UNL     1      -5.853  -2.120 -34.864  1.00  0.00     0.039 A 
HETATM   13  C   UNL     1      -4.777  -2.695 -34.191  1.00  0.00     0.022 A 
HETATM   14  C   UNL     1      -4.426  -2.223 -32.926  1.00  0.00     0.012 A 
HETATM   15 BR   UNL     1      -2.981  -3.018 -32.002  1.00  0.00    -0.051 Br
HETATM   16  C   UNL     1      -5.127  -1.168 -32.334  1.00  0.00     0.037 A 
BRANCH  11  17
HETATM   17  O   UNL     1      -7.620  -0.583 -34.982  1.00  0.00    -0.360 OA
HETATM   18  H   UNL     1      -8.278  -1.302 -35.091  1.00  0.00     0.217 HD
ENDBRANCH  11  17
ENDBRANCH   4  10
ENDBRANCH   1   2
BRANCH   1  19
HETATM   19  C   UNL     1      -8.447   4.515 -33.858  1.00  0.00     0.185 C 
BRANCH  19  20
HETATM   20  C   UNL     1      -9.933   4.287 -34.107  1.00  0.00     0.231 C 
HETATM   21  N   UNL     1     -10.528   3.385 -33.246  1.00  0.00    -0.326 N 
HETATM   22  H   UNL     1      -9.951   3.048 -32.477  1.00  0.00     0.169 HD
HETATM   23  O   UNL     1     -10.491   4.846 -35.050  1.00  0.00    -0.272 OA
BRANCH  21  24
HETATM   24  C   UNL     1     -11.847   2.890 -33.283  1.00  0.00     0.037 A 
HETATM   25  C   UNL     1     -12.872   3.364 -32.457  1.00  0.00     0.061 A 
HETATM   26  C   UNL     1     -14.121   2.812 -32.635  1.00  0.00     0.065 A 
HETATM   27  C   UNL     1     -14.371   1.812 -33.571  1.00  0.00     0.063 A 
HETATM   28  N   UNL     1     -15.321   3.107 -31.995  1.00  0.00    -0.306 N 
HETATM   29  N   UNL     1     -15.720   1.485 -33.500  1.00  0.00    -0.307 N 
HETATM   30  C   UNL     1     -13.388   1.316 -34.388  1.00  0.00     0.034 A 
HETATM   31  C   UNL     1     -16.329   2.291 -32.527  1.00  0.00     0.325 A 
HETATM   32  H   UNL     1     -16.215   0.804 -34.052  1.00  0.00     0.170 HD
HETATM   33  O   UNL     1     -17.505   2.284 -32.211  1.00  0.00    -0.247 OA
HETATM   34  C   UNL     1     -12.114   1.877 -34.242  1.00  0.00     0.032 A 
HETATM   35  H   UNL     1     -15.473   3.799 -31.279  1.00  0.00     0.170 HD
ENDBRANCH  21  24
ENDBRANCH  19  20
ENDBRANCH   1  19
TORSDOF 8
ENDMDL
MODEL 10
REMARK VINA RESULT:      -8.0      3.365      7.298
REMARK  8 active torsions:
REMARK  status: ('A' for Active; 'I' for Inactive)
REMARK    1  A    between atoms: C_2  and  C_3 
REMARK    2  A    between atoms: C_3  and  N_4 
REMARK    3  A    between atoms: C_5  and  S_6 
REMARK    4  A    between atoms: S_6  and  C_7 
REMARK    5  A    between atoms: C_7  and  C_8 
REMARK       I    between atoms: C_8  and  N_9 
REMARK    6  A    between atoms: N_9  and  C_10 
REMARK    7  A    between atoms: C_23  and  C_24 
REMARK    8  A    between atoms: C_25  and  O_26 
ROOT
HETATM    1  S   UNL     1      -4.962   4.258 -30.928  1.00  0.00    -0.081 SA
ENDROOT
BRANCH   1   2
HETATM    2  C   UNL     1      -6.101   3.787 -32.136  1.00  0.00     0.192 A 
HETATM    3  N   UNL     1      -7.415   3.468 -31.914  1.00  0.00    -0.304 N 
HETATM    4  C   UNL     1      -7.892   3.031 -33.137  1.00  0.00     0.167 A 
HETATM    5  N   UNL     1      -6.920   3.145 -34.029  1.00  0.00    -0.128 NA
HETATM    6  N   UNL     1      -5.809   3.638 -33.405  1.00  0.00    -0.122 NA
BRANCH   3   7
HETATM    7  C   UNL     1      -8.120   3.498 -30.645  1.00  0.00     0.159 C 
BRANCH   7   8
HETATM    8  C   UNL     1      -8.756   4.830 -30.374  1.00  0.00    -0.017 C 
HETATM    9  C   UNL     1      -8.463   5.604 -29.321  1.00  0.00     0.008 C 
ENDBRANCH   7   8
ENDBRANCH   3   7
BRANCH   4  10
HETATM   10  C   UNL     1      -9.164   2.366 -33.415  1.00  0.00     0.046 A 
HETATM   11  C   UNL     1      -9.417   1.093 -32.872  1.00  0.00     0.079 A 
HETATM   12  C   UNL     1     -10.634   0.447 -33.073  1.00  0.00     0.039 A 
HETATM   13  C   UNL     1     -11.615   1.052 -33.855  1.00  0.00     0.022 A 
HETATM   14  C   UNL     1     -11.361   2.294 -34.436  1.00  0.00     0.012 A 
HETATM   15 BR   UNL     1     -12.683   3.107 -35.516  1.00  0.00    -0.051 Br
HETATM   16  C   UNL     1     -10.143   2.948 -34.228  1.00  0.00     0.037 A 
BRANCH  11  17
HETATM   17  O   UNL     1      -8.492   0.420 -32.118  1.00  0.00    -0.360 OA
HETATM   18  H   UNL     1      -7.723   1.010 -31.974  1.00  0.00     0.217 HD
ENDBRANCH  11  17
ENDBRANCH   4  10
ENDBRANCH   1   2
BRANCH   1  19
HETATM   19  C   UNL     1      -3.722   2.936 -31.120  1.00  0.00     0.185 C 
BRANCH  19  20
HETATM   20  C   UNL     1      -4.335   1.572 -31.412  1.00  0.00     0.231 C 
HETATM   21  N   UNL     1      -4.044   1.068 -32.666  1.00  0.00    -0.326 N 
HETATM   22  H   UNL     1      -3.374   1.599 -33.220  1.00  0.00     0.169 HD
HETATM   23  O   UNL     1      -5.069   1.038 -30.583  1.00  0.00    -0.272 OA
BRANCH  21  24
HETATM   24  C   UNL     1      -4.540  -0.106 -33.267  1.00  0.00     0.037 A 
HETATM   25  C   UNL     1      -3.889  -1.343 -33.196  1.00  0.00     0.061 A 
HETATM   26  C   UNL     1      -4.515  -2.411 -33.798  1.00  0.00     0.065 A 
HETATM   27  C   UNL     1      -5.729  -2.287 -34.470  1.00  0.00     0.063 A 
HETATM   28  N   UNL     1      -4.130  -3.747 -33.857  1.00  0.00    -0.306 N 
HETATM   29  N   UNL     1      -6.085  -3.542 -34.950  1.00  0.00    -0.307 N 
HETATM   30  C   UNL     1      -6.388  -1.089 -34.568  1.00  0.00     0.034 A 
HETATM   31  C   UNL     1      -5.101  -4.466 -34.568  1.00  0.00     0.325 A 
HETATM   32  H   UNL     1      -6.910  -3.787 -35.470  1.00  0.00     0.170 HD
HETATM   33  O   UNL     1      -5.096  -5.660 -34.805  1.00  0.00    -0.247 OA
HETATM   34  C   UNL     1      -5.783   0.009 -33.944  1.00  0.00     0.032 A 
HETATM   35  H   UNL     1      -3.306  -4.160 -33.450  1.00  0.00     0.170 HD
ENDBRANCH  21  24
ENDBRANCH  19  20
ENDBRANCH   1  19
TORSDOF 8
ENDMDL
