MODEL 1
REMARK VINA RESULT:      -8.3      0.000      0.000
REMARK  6 active torsions:
REMARK  status: ('A' for Active; 'I' for Inactive)
REMARK    1  A    between atoms: C_2  and  C_3 
REMARK    2  A    between atoms: C_3  and  N_4 
REMARK    3  A    between atoms: C_3  and  C_11 
REMARK    4  A    between atoms: N_4  and  C_5 
REMARK       I    between atoms: C_11  and  N_12 
REMARK    5  A    between atoms: N_12  and  N_13 
REMARK    6  A    between atoms: C_14  and  C_15 
ROOT
HETATM    1  C   UNL     1      -3.706   0.422 -31.835  1.00  0.00     0.255 C 
HETATM    2  N   UNL     1      -4.002   1.622 -32.477  1.00  0.00    -0.246 N 
HETATM    3  O   UNL     1      -2.665   0.150 -31.243  1.00  0.00    -0.270 OA
HETATM    4  H   UNL     1      -4.946   1.717 -32.850  1.00  0.00     0.192 HD
ENDROOT
BRANCH   2   5
HETATM    5  N   UNL     1      -3.206   2.723 -32.641  1.00  0.00    -0.184 NA
HETATM    6  C   UNL     1      -3.737   3.881 -32.861  1.00  0.00     0.152 C 
BRANCH   6   7
HETATM    7  C   UNL     1      -2.873   5.035 -33.025  1.00  0.00     0.011 A 
HETATM    8  C   UNL     1      -1.776   5.415 -32.186  1.00  0.00     0.004 A 
HETATM    9  C   UNL     1      -1.217   6.575 -32.726  1.00  0.00     0.043 A 
HETATM   10  C   UNL     1      -1.198   4.875 -31.016  1.00  0.00     0.014 A 
HETATM   11  C   UNL     1      -0.111   7.220 -32.159  1.00  0.00     0.030 A 
HETATM   12  N   UNL     1      -1.951   6.894 -33.845  1.00  0.00    -0.364 N 
HETATM   13  C   UNL     1       0.440   6.663 -31.002  1.00  0.00     0.002 A 
HETATM   14  C   UNL     1      -0.093   5.509 -30.436  1.00  0.00     0.001 A 
HETATM   15  H   UNL     1      -1.771   7.691 -34.440  1.00  0.00     0.165 HD
HETATM   16  C   UNL     1      -2.947   5.976 -34.035  1.00  0.00     0.102 A 
ENDBRANCH   6   7
ENDBRANCH   2   5
BRANCH   1  17
HETATM   17  C   UNL     1      -4.880  -0.584 -31.911  1.00  0.00     0.154 C 
BRANCH  17  18
HETATM   18  C   UNL     1      -6.013  -0.145 -30.968  1.00  0.00     0.025 C 
HETATM   19  C   UNL     1      -7.277   0.255 -31.716  1.00  0.00     0.007 C 
ENDBRANCH  17  18
BRANCH  17  20
HETATM   20  N   UNL     1      -5.382  -0.623 -33.318  1.00  0.00    -0.280 NA
HETATM   21  H   UNL     1      -4.730  -0.107 -33.917  1.00  0.00     0.128 HD
BRANCH  20  22
HETATM   22  C   UNL     1      -5.488  -1.909 -33.888  1.00  0.00     0.009 A 
HETATM   23  C   UNL     1      -4.376  -2.755 -33.827  1.00  0.00     0.023 A 
HETATM   24  C   UNL     1      -4.445  -4.064 -34.308  1.00  0.00     0.002 A 
HETATM   25  C   UNL     1      -5.640  -4.550 -34.834  1.00  0.00     0.000 A 
HETATM   26  C   UNL     1      -6.765  -3.728 -34.871  1.00  0.00     0.002 A 
HETATM   27  C   UNL     1      -6.691  -2.417 -34.392  1.00  0.00     0.023 A 
ENDBRANCH  20  22
ENDBRANCH  17  20
ENDBRANCH   1  17
TORSDOF 6
ENDMDL
MODEL 2
REMARK VINA RESULT:      -8.3      2.837      9.572
REMARK  6 active torsions:
REMARK  status: ('A' for Active; 'I' for Inactive)
REMARK    1  A    between atoms: C_2  and  C_3 
REMARK    2  A    between atoms: C_3  and  N_4 
REMARK    3  A    between atoms: C_3  and  C_11 
REMARK    4  A    between atoms: N_4  and  C_5 
REMARK       I    between atoms: C_11  and  N_12 
REMARK    5  A    between atoms: N_12  and  N_13 
REMARK    6  A    between atoms: C_14  and  C_15 
ROOT
HETATM    1  C   UNL     1      -1.154   5.080 -31.009  1.00  0.00     0.255 C 
HETATM    2  N   UNL     1      -2.372   4.411 -31.094  1.00  0.00    -0.246 N 
HETATM    3  O   UNL     1      -0.066   4.666 -31.400  1.00  0.00    -0.270 OA
HETATM    4  H   UNL     1      -3.198   4.930 -30.797  1.00  0.00     0.192 HD
ENDROOT
BRANCH   2   5
HETATM    5  N   UNL     1      -2.625   3.153 -31.569  1.00  0.00    -0.184 NA
HETATM    6  C   UNL     1      -3.670   2.506 -31.167  1.00  0.00     0.152 C 
BRANCH   6   7
HETATM    7  C   UNL     1      -3.921   1.174 -31.688  1.00  0.00     0.011 A 
HETATM    8  C   UNL     1      -4.875   0.810 -32.693  1.00  0.00     0.004 A 
HETATM    9  C   UNL     1      -4.763  -0.566 -32.898  1.00  0.00     0.043 A 
HETATM   10  C   UNL     1      -5.825   1.525 -33.454  1.00  0.00     0.014 A 
HETATM   11  C   UNL     1      -5.547  -1.262 -33.826  1.00  0.00     0.030 A 
HETATM   12  N   UNL     1      -3.784  -1.023 -32.047  1.00  0.00    -0.364 N 
HETATM   13  C   UNL     1      -6.479  -0.529 -34.566  1.00  0.00     0.002 A 
HETATM   14  C   UNL     1      -6.619   0.844 -34.384  1.00  0.00     0.001 A 
HETATM   15  H   UNL     1      -3.488  -1.988 -31.978  1.00  0.00     0.165 HD
HETATM   16  C   UNL     1      -3.270   0.013 -31.316  1.00  0.00     0.102 A 
ENDBRANCH   6   7
ENDBRANCH   2   5
BRANCH   1  17
HETATM   17  C   UNL     1      -1.303   6.482 -30.369  1.00  0.00     0.154 C 
BRANCH  17  18
HETATM   18  C   UNL     1      -2.586   7.160 -30.878  1.00  0.00     0.025 C 
HETATM   19  C   UNL     1      -2.349   8.591 -31.340  1.00  0.00     0.007 C 
ENDBRANCH  17  18
BRANCH  17  20
HETATM   20  N   UNL     1      -1.371   6.322 -28.885  1.00  0.00    -0.280 NA
HETATM   21  H   UNL     1      -1.345   5.323 -28.657  1.00  0.00     0.128 HD
BRANCH  20  22
HETATM   22  C   UNL     1      -0.308   6.906 -28.163  1.00  0.00     0.009 A 
HETATM   23  C   UNL     1       0.487   7.858 -28.808  1.00  0.00     0.023 A 
HETATM   24  C   UNL     1       1.505   8.523 -28.121  1.00  0.00     0.002 A 
HETATM   25  C   UNL     1       1.722   8.259 -26.771  1.00  0.00     0.000 A 
HETATM   26  C   UNL     1       0.915   7.336 -26.109  1.00  0.00     0.002 A 
HETATM   27  C   UNL     1      -0.101   6.670 -26.799  1.00  0.00     0.023 A 
ENDBRANCH  20  22
ENDBRANCH  17  20
ENDBRANCH   1  17
TORSDOF 6
ENDMDL
MODEL 3
REMARK VINA RESULT:      -8.2      1.701      2.437
REMARK  6 active torsions:
REMARK  status: ('A' for Active; 'I' for Inactive)
REMARK    1  A    between atoms: C_2  and  C_3 
REMARK    2  A    between atoms: C_3  and  N_4 
REMARK    3  A    between atoms: C_3  and  C_11 
REMARK    4  A    between atoms: N_4  and  C_5 
REMARK       I    between atoms: C_11  and  N_12 
REMARK    5  A    between atoms: N_12  and  N_13 
REMARK    6  A    between atoms: C_14  and  C_15 
ROOT
HETATM    1  C   UNL     1      -6.452   0.079 -32.384  1.00  0.00     0.255 C 
HETATM    2  N   UNL     1      -5.832   1.168 -32.989  1.00  0.00    -0.246 N 
HETATM    3  O   UNL     1      -6.374  -0.239 -31.200  1.00  0.00    -0.270 OA
HETATM    4  H   UNL     1      -6.066   1.340 -33.966  1.00  0.00     0.192 HD
ENDROOT
BRANCH   2   5
HETATM    5  N   UNL     1      -4.973   2.079 -32.435  1.00  0.00    -0.184 NA
HETATM    6  C   UNL     1      -4.988   3.309 -32.832  1.00  0.00     0.152 C 
BRANCH   6   7
HETATM    7  C   UNL     1      -4.072   4.259 -32.227  1.00  0.00     0.011 A 
HETATM    8  C   UNL     1      -3.014   4.970 -32.880  1.00  0.00     0.004 A 
HETATM    9  C   UNL     1      -2.405   5.786 -31.925  1.00  0.00     0.043 A 
HETATM   10  C   UNL     1      -2.518   5.001 -34.203  1.00  0.00     0.014 A 
HETATM   11  C   UNL     1      -1.330   6.632 -32.224  1.00  0.00     0.030 A 
HETATM   12  N   UNL     1      -3.060   5.574 -30.735  1.00  0.00    -0.364 N 
HETATM   13  C   UNL     1      -0.860   6.643 -33.541  1.00  0.00     0.002 A 
HETATM   14  C   UNL     1      -1.443   5.840 -34.517  1.00  0.00     0.001 A 
HETATM   15  H   UNL     1      -2.831   6.034 -29.865  1.00  0.00     0.165 HD
HETATM   16  C   UNL     1      -4.064   4.660 -30.904  1.00  0.00     0.102 A 
ENDBRANCH   6   7
ENDBRANCH   2   5
BRANCH   1  17
HETATM   17  C   UNL     1      -7.321  -0.724 -33.381  1.00  0.00     0.154 C 
BRANCH  17  18
HETATM   18  C   UNL     1      -8.537   0.111 -33.813  1.00  0.00     0.025 C 
HETATM   19  C   UNL     1      -9.695   0.015 -32.829  1.00  0.00     0.007 C 
ENDBRANCH  17  18
BRANCH  17  20
HETATM   20  N   UNL     1      -6.488  -1.058 -34.576  1.00  0.00    -0.280 NA
HETATM   21  H   UNL     1      -5.674  -0.434 -34.597  1.00  0.00     0.128 HD
BRANCH  20  22
HETATM   22  C   UNL     1      -5.964  -2.367 -34.604  1.00  0.00     0.009 A 
HETATM   23  C   UNL     1      -4.658  -2.569 -34.149  1.00  0.00     0.023 A 
HETATM   24  C   UNL     1      -4.113  -3.853 -34.083  1.00  0.00     0.002 A 
HETATM   25  C   UNL     1      -4.882  -4.955 -34.450  1.00  0.00     0.000 A 
HETATM   26  C   UNL     1      -6.196  -4.771 -34.874  1.00  0.00     0.002 A 
HETATM   27  C   UNL     1      -6.737  -3.484 -34.942  1.00  0.00     0.023 A 
ENDBRANCH  20  22
ENDBRANCH  17  20
ENDBRANCH   1  17
TORSDOF 6
ENDMDL
MODEL 4
REMARK VINA RESULT:      -8.1      5.265      8.819
REMARK  6 active torsions:
REMARK  status: ('A' for Active; 'I' for Inactive)
REMARK    1  A    between atoms: C_2  and  C_3 
REMARK    2  A    between atoms: C_3  and  N_4 
REMARK    3  A    between atoms: C_3  and  C_11 
REMARK    4  A    between atoms: N_4  and  C_5 
REMARK       I    between atoms: C_11  and  N_12 
REMARK    5  A    between atoms: N_12  and  N_13 
REMARK    6  A    between atoms: C_14  and  C_15 
ROOT
HETATM    1  C   UNL     1      -9.409   1.739 -32.510  1.00  0.00     0.255 C 
HETATM    2  N   UNL     1      -8.819   0.956 -33.498  1.00  0.00    -0.246 N 
HETATM    3  O   UNL     1      -9.105   1.763 -31.320  1.00  0.00    -0.270 OA
HETATM    4  H   UNL     1      -9.135   1.117 -34.454  1.00  0.00     0.192 HD
ENDROOT
BRANCH   2   5
HETATM    5  N   UNL     1      -7.830   0.019 -33.369  1.00  0.00    -0.184 NA
HETATM    6  C   UNL     1      -6.705   0.174 -33.989  1.00  0.00     0.152 C 
BRANCH   6   7
HETATM    7  C   UNL     1      -5.668  -0.830 -33.833  1.00  0.00     0.011 A 
HETATM    8  C   UNL     1      -5.742  -2.209 -34.210  1.00  0.00     0.004 A 
HETATM    9  C   UNL     1      -4.515  -2.797 -33.896  1.00  0.00     0.043 A 
HETATM   10  C   UNL     1      -6.741  -3.017 -34.798  1.00  0.00     0.014 A 
HETATM   11  C   UNL     1      -4.235  -4.146 -34.141  1.00  0.00     0.030 A 
HETATM   12  N   UNL     1      -3.728  -1.815 -33.341  1.00  0.00    -0.364 N 
HETATM   13  C   UNL     1      -5.241  -4.922 -34.724  1.00  0.00     0.002 A 
HETATM   14  C   UNL     1      -6.476  -4.369 -35.048  1.00  0.00     0.001 A 
HETATM   15  H   UNL     1      -2.781  -1.955 -33.017  1.00  0.00     0.165 HD
HETATM   16  C   UNL     1      -4.409  -0.629 -33.299  1.00  0.00     0.102 A 
ENDBRANCH   6   7
ENDBRANCH   2   5
BRANCH   1  17
HETATM   17  C   UNL     1     -10.525   2.649 -33.077  1.00  0.00     0.154 C 
BRANCH  17  18
HETATM   18  C   UNL     1      -9.906   3.873 -33.771  1.00  0.00     0.025 C 
HETATM   19  C   UNL     1     -10.532   4.157 -35.130  1.00  0.00     0.007 C 
ENDBRANCH  17  18
BRANCH  17  20
HETATM   20  N   UNL     1     -11.325   1.862 -34.064  1.00  0.00    -0.280 NA
HETATM   21  H   UNL     1     -10.996   0.891 -34.058  1.00  0.00     0.128 HD
BRANCH  20  22
HETATM   22  C   UNL     1     -12.711   1.796 -33.806  1.00  0.00     0.009 A 
HETATM   23  C   UNL     1     -13.468   0.839 -34.489  1.00  0.00     0.023 A 
HETATM   24  C   UNL     1     -14.828   0.677 -34.221  1.00  0.00     0.002 A 
HETATM   25  C   UNL     1     -15.442   1.456 -33.243  1.00  0.00     0.000 A 
HETATM   26  C   UNL     1     -14.692   2.391 -32.532  1.00  0.00     0.002 A 
HETATM   27  C   UNL     1     -13.331   2.553 -32.805  1.00  0.00     0.023 A 
ENDBRANCH  20  22
ENDBRANCH  17  20
ENDBRANCH   1  17
TORSDOF 6
ENDMDL
MODEL 5
REMARK VINA RESULT:      -8.1      1.325      1.655
REMARK  6 active torsions:
REMARK  status: ('A' for Active; 'I' for Inactive)
REMARK    1  A    between atoms: C_2  and  C_3 
REMARK    2  A    between atoms: C_3  and  N_4 
REMARK    3  A    between atoms: C_3  and  C_11 
REMARK    4  A    between atoms: N_4  and  C_5 
REMARK       I    between atoms: C_11  and  N_12 
REMARK    5  A    between atoms: N_12  and  N_13 
REMARK    6  A    between atoms: C_14  and  C_15 
ROOT
HETATM    1  C   UNL     1      -5.572   1.577 -33.078  1.00  0.00     0.255 C 
HETATM    2  N   UNL     1      -4.501   2.003 -32.298  1.00  0.00    -0.246 N 
HETATM    3  O   UNL     1      -6.132   2.221 -33.962  1.00  0.00    -0.270 OA
HETATM    4  H   UNL     1      -4.099   1.313 -31.663  1.00  0.00     0.192 HD
ENDROOT
BRANCH   2   5
HETATM    5  N   UNL     1      -3.875   3.220 -32.296  1.00  0.00    -0.184 NA
HETATM    6  C   UNL     1      -2.882   3.439 -33.094  1.00  0.00     0.152 C 
BRANCH   6   7
HETATM    7  C   UNL     1      -2.237   4.740 -33.079  1.00  0.00     0.011 A 
HETATM    8  C   UNL     1      -1.349   5.248 -32.076  1.00  0.00     0.004 A 
HETATM    9  C   UNL     1      -0.954   6.527 -32.474  1.00  0.00     0.043 A 
HETATM   10  C   UNL     1      -0.838   4.737 -30.863  1.00  0.00     0.014 A 
HETATM   11  C   UNL     1      -0.073   7.317 -31.726  1.00  0.00     0.030 A 
HETATM   12  N   UNL     1      -1.583   6.789 -33.669  1.00  0.00    -0.364 N 
HETATM   13  C   UNL     1       0.418   6.785 -30.531  1.00  0.00     0.002 A 
HETATM   14  C   UNL     1       0.043   5.515 -30.102  1.00  0.00     0.001 A 
HETATM   15  H   UNL     1      -1.481   7.648 -34.193  1.00  0.00     0.165 HD
HETATM   16  C   UNL     1      -2.355   5.724 -34.043  1.00  0.00     0.102 A 
ENDBRANCH   6   7
ENDBRANCH   2   5
BRANCH   1  17
HETATM   17  C   UNL     1      -6.004   0.130 -32.736  1.00  0.00     0.154 C 
BRANCH  17  18
HETATM   18  C   UNL     1      -7.145   0.149 -31.706  1.00  0.00     0.025 C 
HETATM   19  C   UNL     1      -8.515   0.308 -32.352  1.00  0.00     0.007 C 
ENDBRANCH  17  18
BRANCH  17  20
HETATM   20  N   UNL     1      -6.467  -0.536 -33.991  1.00  0.00    -0.280 NA
HETATM   21  H   UNL     1      -6.083  -0.031 -34.796  1.00  0.00     0.128 HD
BRANCH  20  22
HETATM   22  C   UNL     1      -6.058  -1.877 -34.152  1.00  0.00     0.009 A 
HETATM   23  C   UNL     1      -7.007  -2.813 -34.576  1.00  0.00     0.023 A 
HETATM   24  C   UNL     1      -6.643  -4.138 -34.825  1.00  0.00     0.002 A 
HETATM   25  C   UNL     1      -5.317  -4.535 -34.675  1.00  0.00     0.000 A 
HETATM   26  C   UNL     1      -4.356  -3.605 -34.284  1.00  0.00     0.002 A 
HETATM   27  C   UNL     1      -4.724  -2.280 -34.033  1.00  0.00     0.023 A 
ENDBRANCH  20  22
ENDBRANCH  17  20
ENDBRANCH   1  17
TORSDOF 6
ENDMDL
MODEL 6
REMARK VINA RESULT:      -7.8      1.864      8.734
REMARK  6 active torsions:
REMARK  status: ('A' for Active; 'I' for Inactive)
REMARK    1  A    between atoms: C_2  and  C_3 
REMARK    2  A    between atoms: C_3  and  N_4 
REMARK    3  A    between atoms: C_3  and  C_11 
REMARK    4  A    between atoms: N_4  and  C_5 
REMARK       I    between atoms: C_11  and  N_12 
REMARK    5  A    between atoms: N_12  and  N_13 
REMARK    6  A    between atoms: C_14  and  C_15 
ROOT
HETATM    1  C   UNL     1      -4.483   2.436 -32.317  1.00  0.00     0.255 C 
HETATM    2  N   UNL     1      -3.510   1.478 -32.053  1.00  0.00    -0.246 N 
HETATM    3  O   UNL     1      -5.496   2.280 -32.995  1.00  0.00    -0.270 OA
HETATM    4  H   UNL     1      -2.772   1.746 -31.401  1.00  0.00     0.192 HD
ENDROOT
BRANCH   2   5
HETATM    5  N   UNL     1      -3.426   0.193 -32.517  1.00  0.00    -0.184 NA
HETATM    6  C   UNL     1      -3.964  -0.775 -31.849  1.00  0.00     0.152 C 
BRANCH   6   7
HETATM    7  C   UNL     1      -3.868  -2.129 -32.364  1.00  0.00     0.011 A 
HETATM    8  C   UNL     1      -4.684  -2.722 -33.381  1.00  0.00     0.004 A 
HETATM    9  C   UNL     1      -4.231  -4.028 -33.574  1.00  0.00     0.043 A 
HETATM   10  C   UNL     1      -5.768  -2.266 -34.163  1.00  0.00     0.014 A 
HETATM   11  C   UNL     1      -4.802  -4.899 -34.509  1.00  0.00     0.030 A 
HETATM   12  N   UNL     1      -3.185  -4.225 -32.703  1.00  0.00    -0.364 N 
HETATM   13  C   UNL     1      -5.873  -4.422 -35.270  1.00  0.00     0.002 A 
HETATM   14  C   UNL     1      -6.351  -3.126 -35.102  1.00  0.00     0.001 A 
HETATM   15  H   UNL     1      -2.661  -5.086 -32.623  1.00  0.00     0.165 HD
HETATM   16  C   UNL     1      -2.957  -3.091 -31.972  1.00  0.00     0.102 A 
ENDBRANCH   6   7
ENDBRANCH   2   5
BRANCH   1  17
HETATM   17  C   UNL     1      -4.179   3.784 -31.618  1.00  0.00     0.154 C 
BRANCH  17  18
HETATM   18  C   UNL     1      -4.961   3.883 -30.299  1.00  0.00     0.025 C 
HETATM   19  C   UNL     1      -6.284   4.622 -30.455  1.00  0.00     0.007 C 
ENDBRANCH  17  18
BRANCH  17  20
HETATM   20  N   UNL     1      -2.712   3.854 -31.341  1.00  0.00    -0.280 NA
HETATM   21  H   UNL     1      -2.278   2.969 -31.623  1.00  0.00     0.128 HD
BRANCH  20  22
HETATM   22  C   UNL     1      -2.011   4.861 -32.039  1.00  0.00     0.009 A 
HETATM   23  C   UNL     1      -2.088   4.877 -33.435  1.00  0.00     0.023 A 
HETATM   24  C   UNL     1      -1.477   5.892 -34.174  1.00  0.00     0.002 A 
HETATM   25  C   UNL     1      -0.801   6.918 -33.519  1.00  0.00     0.000 A 
HETATM   26  C   UNL     1      -0.745   6.932 -32.127  1.00  0.00     0.002 A 
HETATM   27  C   UNL     1      -1.355   5.913 -31.391  1.00  0.00     0.023 A 
ENDBRANCH  20  22
ENDBRANCH  17  20
ENDBRANCH   1  17
TORSDOF 6
ENDMDL
MODEL 7
REMARK VINA RESULT:      -7.7      5.899      9.696
REMARK  6 active torsions:
REMARK  status: ('A' for Active; 'I' for Inactive)
REMARK    1  A    between atoms: C_2  and  C_3 
REMARK    2  A    between atoms: C_3  and  N_4 
REMARK    3  A    between atoms: C_3  and  C_11 
REMARK    4  A    between atoms: N_4  and  C_5 
REMARK       I    between atoms: C_11  and  N_12 
REMARK    5  A    between atoms: N_12  and  N_13 
REMARK    6  A    between atoms: C_14  and  C_15 
ROOT
HETATM    1  C   UNL     1     -11.390   2.355 -33.807  1.00  0.00     0.255 C 
HETATM    2  N   UNL     1     -10.929   1.480 -32.827  1.00  0.00    -0.246 N 
HETATM    3  O   UNL     1     -10.700   2.980 -34.608  1.00  0.00    -0.270 OA
HETATM    4  H   UNL     1     -11.640   0.976 -32.296  1.00  0.00     0.192 HD
ENDROOT
BRANCH   2   5
HETATM    5  N   UNL     1      -9.638   1.163 -32.502  1.00  0.00    -0.184 NA
HETATM    6  C   UNL     1      -9.042   0.181 -33.095  1.00  0.00     0.152 C 
BRANCH   6   7
HETATM    7  C   UNL     1      -7.670  -0.132 -32.738  1.00  0.00     0.011 A 
HETATM    8  C   UNL     1      -6.787  -1.030 -33.420  1.00  0.00     0.004 A 
HETATM    9  C   UNL     1      -5.565  -1.010 -32.746  1.00  0.00     0.043 A 
HETATM   10  C   UNL     1      -6.911  -1.858 -34.558  1.00  0.00     0.014 A 
HETATM   11  C   UNL     1      -4.462  -1.772 -33.151  1.00  0.00     0.030 A 
HETATM   12  N   UNL     1      -5.701  -0.140 -31.689  1.00  0.00    -0.364 N 
HETATM   13  C   UNL     1      -4.613  -2.582 -34.280  1.00  0.00     0.002 A 
HETATM   14  C   UNL     1      -5.818  -2.627 -34.974  1.00  0.00     0.001 A 
HETATM   15  H   UNL     1      -4.970   0.072 -31.024  1.00  0.00     0.165 HD
HETATM   16  C   UNL     1      -6.960   0.394 -31.675  1.00  0.00     0.102 A 
ENDBRANCH   6   7
ENDBRANCH   2   5
BRANCH   1  17
HETATM   17  C   UNL     1     -12.935   2.455 -33.819  1.00  0.00     0.154 C 
BRANCH  17  18
HETATM   18  C   UNL     1     -13.528   1.350 -34.708  1.00  0.00     0.025 C 
HETATM   19  C   UNL     1     -14.486   0.439 -33.953  1.00  0.00     0.007 C 
ENDBRANCH  17  18
BRANCH  17  20
HETATM   20  N   UNL     1     -13.432   2.296 -32.419  1.00  0.00    -0.280 NA
HETATM   21  H   UNL     1     -12.672   1.929 -31.836  1.00  0.00     0.128 HD
BRANCH  20  22
HETATM   22  C   UNL     1     -13.856   3.484 -31.787  1.00  0.00     0.009 A 
HETATM   23  C   UNL     1     -15.100   4.016 -32.141  1.00  0.00     0.023 A 
HETATM   24  C   UNL     1     -15.605   5.147 -31.496  1.00  0.00     0.002 A 
HETATM   25  C   UNL     1     -14.877   5.745 -30.470  1.00  0.00     0.000 A 
HETATM   26  C   UNL     1     -13.651   5.207 -30.086  1.00  0.00     0.002 A 
HETATM   27  C   UNL     1     -13.148   4.076 -30.735  1.00  0.00     0.023 A 
ENDBRANCH  20  22
ENDBRANCH  17  20
ENDBRANCH   1  17
TORSDOF 6
ENDMDL
MODEL 8
REMARK VINA RESULT:      -7.6      2.810      9.328
REMARK  6 active torsions:
REMARK  status: ('A' for Active; 'I' for Inactive)
REMARK    1  A    between atoms: C_2  and  C_3 
REMARK    2  A    between atoms: C_3  and  N_4 
REMARK    3  A    between atoms: C_3  and  C_11 
REMARK    4  A    between atoms: N_4  and  C_5 
REMARK       I    between atoms: C_11  and  N_12 
REMARK    5  A    between atoms: N_12  and  N_13 
REMARK    6  A    between atoms: C_14  and  C_15 
ROOT
HETATM    1  C   UNL     1      -1.440   5.074 -31.332  1.00  0.00     0.255 C 
HETATM    2  N   UNL     1      -2.451   4.223 -30.895  1.00  0.00    -0.246 N 
HETATM    3  O   UNL     1      -0.843   5.007 -32.404  1.00  0.00    -0.270 OA
HETATM    4  H   UNL     1      -2.901   4.467 -30.013  1.00  0.00     0.192 HD
ENDROOT
BRANCH   2   5
HETATM    5  N   UNL     1      -2.962   3.115 -31.513  1.00  0.00    -0.184 NA
HETATM    6  C   UNL     1      -4.196   3.098 -31.898  1.00  0.00     0.152 C 
BRANCH   6   7
HETATM    7  C   UNL     1      -4.715   1.913 -32.557  1.00  0.00     0.011 A 
HETATM    8  C   UNL     1      -4.218   0.575 -32.439  1.00  0.00     0.004 A 
HETATM    9  C   UNL     1      -5.027  -0.245 -33.227  1.00  0.00     0.043 A 
HETATM   10  C   UNL     1      -3.153  -0.020 -31.726  1.00  0.00     0.014 A 
HETATM   11  C   UNL     1      -4.829  -1.626 -33.338  1.00  0.00     0.030 A 
HETATM   12  N   UNL     1      -5.975   0.564 -33.810  1.00  0.00    -0.364 N 
HETATM   13  C   UNL     1      -3.768  -2.188 -32.622  1.00  0.00     0.002 A 
HETATM   14  C   UNL     1      -2.941  -1.400 -31.828  1.00  0.00     0.001 A 
HETATM   15  H   UNL     1      -6.698   0.239 -34.437  1.00  0.00     0.165 HD
HETATM   16  C   UNL     1      -5.798   1.861 -33.414  1.00  0.00     0.102 A 
ENDBRANCH   6   7
ENDBRANCH   2   5
BRANCH   1  17
HETATM   17  C   UNL     1      -1.136   6.193 -30.307  1.00  0.00     0.154 C 
BRANCH  17  18
HETATM   18  C   UNL     1      -2.444   6.858 -29.847  1.00  0.00     0.025 C 
HETATM   19  C   UNL     1      -2.612   8.267 -30.399  1.00  0.00     0.007 C 
ENDBRANCH  17  18
BRANCH  17  20
HETATM   20  N   UNL     1      -0.440   5.586 -29.132  1.00  0.00    -0.280 NA
HETATM   21  H   UNL     1       0.278   4.938 -29.472  1.00  0.00     0.128 HD
BRANCH  20  22
HETATM   22  C   UNL     1       0.234   6.495 -28.290  1.00  0.00     0.009 A 
HETATM   23  C   UNL     1       0.883   7.586 -28.876  1.00  0.00     0.023 A 
HETATM   24  C   UNL     1       1.503   8.558 -28.088  1.00  0.00     0.002 A 
HETATM   25  C   UNL     1       1.458   8.460 -26.700  1.00  0.00     0.000 A 
HETATM   26  C   UNL     1       0.787   7.395 -26.102  1.00  0.00     0.002 A 
HETATM   27  C   UNL     1       0.170   6.423 -26.894  1.00  0.00     0.023 A 
ENDBRANCH  20  22
ENDBRANCH  17  20
ENDBRANCH   1  17
TORSDOF 6
ENDMDL
MODEL 9
REMARK VINA RESULT:      -7.6      1.628      1.802
REMARK  6 active torsions:
REMARK  status: ('A' for Active; 'I' for Inactive)
REMARK    1  A    between atoms: C_2  and  C_3 
REMARK    2  A    between atoms: C_3  and  N_4 
REMARK    3  A    between atoms: C_3  and  C_11 
REMARK    4  A    between atoms: N_4  and  C_5 
REMARK       I    between atoms: C_11  and  N_12 
REMARK    5  A    between atoms: N_12  and  N_13 
REMARK    6  A    between atoms: C_14  and  C_15 
ROOT
HETATM    1  C   UNL     1      -4.342   0.475 -31.764  1.00  0.00     0.255 C 
HETATM    2  N   UNL     1      -4.715   1.816 -31.788  1.00  0.00    -0.246 N 
HETATM    3  O   UNL     1      -3.367   0.001 -31.186  1.00  0.00    -0.270 OA
HETATM    4  H   UNL     1      -5.600   2.033 -32.246  1.00  0.00     0.192 HD
ENDROOT
BRANCH   2   5
HETATM    5  N   UNL     1      -4.074   2.893 -31.238  1.00  0.00    -0.184 NA
HETATM    6  C   UNL     1      -4.407   4.093 -31.585  1.00  0.00     0.152 C 
BRANCH   6   7
HETATM    7  C   UNL     1      -3.717   5.220 -30.984  1.00  0.00     0.011 A 
HETATM    8  C   UNL     1      -2.325   5.536 -31.098  1.00  0.00     0.004 A 
HETATM    9  C   UNL     1      -2.101   6.711 -30.378  1.00  0.00     0.043 A 
HETATM   10  C   UNL     1      -1.228   4.934 -31.754  1.00  0.00     0.014 A 
HETATM   11  C   UNL     1      -0.842   7.316 -30.283  1.00  0.00     0.030 A 
HETATM   12  N   UNL     1      -3.309   7.091 -29.840  1.00  0.00    -0.364 N 
HETATM   13  C   UNL     1       0.224   6.698 -30.943  1.00  0.00     0.002 A 
HETATM   14  C   UNL     1       0.037   5.525 -31.667  1.00  0.00     0.001 A 
HETATM   15  H   UNL     1      -3.448   7.912 -29.267  1.00  0.00     0.165 HD
HETATM   16  C   UNL     1      -4.287   6.204 -30.198  1.00  0.00     0.102 A 
ENDBRANCH   6   7
ENDBRANCH   2   5
BRANCH   1  17
HETATM   17  C   UNL     1      -5.333  -0.420 -32.546  1.00  0.00     0.154 C 
BRANCH  17  18
HETATM   18  C   UNL     1      -6.599   0.377 -32.899  1.00  0.00     0.025 C 
HETATM   19  C   UNL     1      -7.761  -0.518 -33.309  1.00  0.00     0.007 C 
ENDBRANCH  17  18
BRANCH  17  20
HETATM   20  N   UNL     1      -4.665  -0.886 -33.799  1.00  0.00    -0.280 NA
HETATM   21  H   UNL     1      -3.682  -0.593 -33.780  1.00  0.00     0.128 HD
BRANCH  20  22
HETATM   22  C   UNL     1      -4.641  -2.283 -33.990  1.00  0.00     0.009 A 
HETATM   23  C   UNL     1      -3.715  -3.037 -33.262  1.00  0.00     0.023 A 
HETATM   24  C   UNL     1      -3.695  -4.430 -33.354  1.00  0.00     0.002 A 
HETATM   25  C   UNL     1      -4.622  -5.087 -34.159  1.00  0.00     0.000 A 
HETATM   26  C   UNL     1      -5.572  -4.350 -34.864  1.00  0.00     0.002 A 
HETATM   27  C   UNL     1      -5.587  -2.956 -34.772  1.00  0.00     0.023 A 
ENDBRANCH  20  22
ENDBRANCH  17  20
ENDBRANCH   1  17
TORSDOF 6
ENDMDL
MODEL 10
REMARK VINA RESULT:      -7.4      2.378      8.372
REMARK  6 active torsions:
REMARK  status: ('A' for Active; 'I' for Inactive)
REMARK    1  A    between atoms: C_2  and  C_3 
REMARK    2  A    between atoms: C_3  and  N_4 
REMARK    3  A    between atoms: C_3  and  C_11 
REMARK    4  A    between atoms: N_4  and  C_5 
REMARK       I    between atoms: C_11  and  N_12 
REMARK    5  A    between atoms: N_12  and  N_13 
REMARK    6  A    between atoms: C_14  and  C_15 
ROOT
HETATM    1  C   UNL     1      -5.174   3.872 -31.089  1.00  0.00     0.255 C 
HETATM    2  N   UNL     1      -4.306   2.863 -30.683  1.00  0.00    -0.246 N 
HETATM    3  O   UNL     1      -6.171   3.736 -31.795  1.00  0.00    -0.270 OA
HETATM    4  H   UNL     1      -3.572   3.131 -30.029  1.00  0.00     0.192 HD
ENDROOT
BRANCH   2   5
HETATM    5  N   UNL     1      -4.327   1.534 -31.010  1.00  0.00    -0.184 NA
HETATM    6  C   UNL     1      -3.744   1.122 -32.089  1.00  0.00     0.152 C 
BRANCH   6   7
HETATM    7  C   UNL     1      -3.774  -0.293 -32.413  1.00  0.00     0.011 A 
HETATM    8  C   UNL     1      -4.684  -0.953 -33.300  1.00  0.00     0.004 A 
HETATM    9  C   UNL     1      -4.337  -2.305 -33.326  1.00  0.00     0.043 A 
HETATM   10  C   UNL     1      -5.774  -0.525 -34.091  1.00  0.00     0.014 A 
HETATM   11  C   UNL     1      -5.019  -3.249 -34.104  1.00  0.00     0.030 A 
HETATM   12  N   UNL     1      -3.262  -2.463 -32.483  1.00  0.00    -0.364 N 
HETATM   13  C   UNL     1      -6.092  -2.798 -34.878  1.00  0.00     0.002 A 
HETATM   14  C   UNL     1      -6.466  -1.457 -34.872  1.00  0.00     0.001 A 
HETATM   15  H   UNL     1      -2.798  -3.343 -32.305  1.00  0.00     0.165 HD
HETATM   16  C   UNL     1      -2.915  -1.261 -31.929  1.00  0.00     0.102 A 
ENDBRANCH   6   7
ENDBRANCH   2   5
BRANCH   1  17
HETATM   17  C   UNL     1      -4.771   5.253 -30.518  1.00  0.00     0.154 C 
BRANCH  17  18
HETATM   18  C   UNL     1      -5.403   5.456 -29.132  1.00  0.00     0.025 C 
HETATM   19  C   UNL     1      -5.910   6.876 -28.920  1.00  0.00     0.007 C 
ENDBRANCH  17  18
BRANCH  17  20
HETATM   20  N   UNL     1      -3.281   5.303 -30.406  1.00  0.00    -0.280 NA
HETATM   21  H   UNL     1      -2.927   4.351 -30.266  1.00  0.00     0.128 HD
BRANCH  20  22
HETATM   22  C   UNL     1      -2.604   5.800 -31.539  1.00  0.00     0.009 A 
HETATM   23  C   UNL     1      -2.516   7.186 -31.705  1.00  0.00     0.023 A 
HETATM   24  C   UNL     1      -1.794   7.735 -32.767  1.00  0.00     0.002 A 
HETATM   25  C   UNL     1      -1.131   6.901 -33.662  1.00  0.00     0.000 A 
HETATM   26  C   UNL     1      -1.183   5.519 -33.490  1.00  0.00     0.002 A 
HETATM   27  C   UNL     1      -1.909   4.972 -32.428  1.00  0.00     0.023 A 
ENDBRANCH  20  22
ENDBRANCH  17  20
ENDBRANCH   1  17
TORSDOF 6
ENDMDL
