MODEL 1
REMARK VINA RESULT:      -8.2      0.000      0.000
REMARK  6 active torsions:
REMARK  status: ('A' for Active; 'I' for Inactive)
REMARK    1  A    between atoms: C_2  and  N_3 
REMARK    2  A    between atoms: N_3  and  C_5 
REMARK    3  A    between atoms: N_3  and  C_28 
REMARK    4  A    between atoms: C_8  and  C_9 
REMARK    5  A    between atoms: N_10  and  C_11 
REMARK    6  A    between atoms: C_11  and  C_12 
ROOT
HETATM    1  C   UNL     1      -6.686   3.210 -33.939  1.00  0.00     0.222 C 
HETATM    2  N   UNL     1      -7.146   3.698 -32.657  1.00  0.00    -0.316 N 
HETATM    3  C   UNL     1      -6.251   4.011 -31.647  1.00  0.00     0.258 C 
HETATM    4  O   UNL     1      -6.571   4.107 -30.465  1.00  0.00    -0.267 OA
HETATM    5  C   UNL     1      -4.849   4.251 -32.055  1.00  0.00     0.058 A 
HETATM    6  C   UNL     1      -4.551   4.238 -33.421  1.00  0.00     0.045 A 
HETATM    7  N   UNL     1      -5.546   4.002 -34.369  1.00  0.00    -0.364 N 
HETATM    8  C   UNL     1      -3.872   4.560 -31.101  1.00  0.00     0.019 A 
HETATM    9  C   UNL     1      -2.582   4.888 -31.518  1.00  0.00     0.001 A 
HETATM   10  C   UNL     1      -2.283   4.921 -32.879  1.00  0.00     0.002 A 
HETATM   11  C   UNL     1      -3.265   4.612 -33.823  1.00  0.00     0.030 A 
HETATM   12  H   UNL     1      -5.198   3.786 -35.293  1.00  0.00     0.162 HD
ENDROOT
BRANCH   1  13
HETATM   13  C   UNL     1      -6.363   1.705 -33.980  1.00  0.00    -0.016 A 
HETATM   14  C   UNL     1      -5.555   1.073 -33.016  1.00  0.00     0.013 A 
HETATM   15  C   UNL     1      -5.341  -0.311 -33.038  1.00  0.00     0.038 A 
HETATM   16  C   UNL     1      -5.911  -1.091 -34.040  1.00  0.00     0.134 A 
HETATM   17  C   UNL     1      -6.702  -0.484 -35.019  1.00  0.00     0.038 A 
HETATM   18  C   UNL     1      -6.935   0.896 -34.979  1.00  0.00     0.013 A 
BRANCH  16  19
HETATM   19  N   UNL     1      -5.755  -2.563 -34.075  1.00  0.00    -0.042 N 
HETATM   20  H   UNL     1      -5.816  -2.858 -33.092  1.00  0.00     0.286 HD
BRANCH  19  21
HETATM   21  C   UNL     1      -4.381  -3.009 -34.519  1.00  0.00     0.237 C 
HETATM   22  C   UNL     1      -3.691  -3.812 -33.426  1.00  0.00     0.035 C 
ENDBRANCH  19  21
BRANCH  19  23
HETATM   23  C   UNL     1      -6.927  -3.264 -34.722  1.00  0.00     0.237 C 
HETATM   24  C   UNL     1      -6.574  -4.562 -35.425  1.00  0.00     0.035 C 
ENDBRANCH  19  23
ENDBRANCH  16  19
ENDBRANCH   1  13
BRANCH   2  25
HETATM   25  C   UNL     1      -8.570   3.632 -32.356  1.00  0.00     0.193 C 
BRANCH  25  26
HETATM   26  C   UNL     1      -9.026   2.219 -32.382  1.00  0.00     0.070 A 
HETATM   27  O   UNL     1      -9.844   1.859 -33.414  1.00  0.00    -0.325 OA
HETATM   28  C   UNL     1     -10.135   0.543 -33.245  1.00  0.00     0.142 A 
HETATM   29  C   UNL     1      -9.524   0.055 -32.114  1.00  0.00     0.027 A 
HETATM   30  C   UNL     1      -8.807   1.139 -31.553  1.00  0.00     0.036 A 
ENDBRANCH  25  26
ENDBRANCH   2  25
TORSDOF 6
ENDMDL
MODEL 2
REMARK VINA RESULT:      -8.0      1.895      5.196
REMARK  6 active torsions:
REMARK  status: ('A' for Active; 'I' for Inactive)
REMARK    1  A    between atoms: C_2  and  N_3 
REMARK    2  A    between atoms: N_3  and  C_5 
REMARK    3  A    between atoms: N_3  and  C_28 
REMARK    4  A    between atoms: C_8  and  C_9 
REMARK    5  A    between atoms: N_10  and  C_11 
REMARK    6  A    between atoms: C_11  and  C_12 
ROOT
HETATM    1  C   UNL     1      -8.771   1.819 -31.887  1.00  0.00     0.222 C 
HETATM    2  N   UNL     1      -8.604   3.180 -32.351  1.00  0.00    -0.316 N 
HETATM    3  C   UNL     1      -9.196   3.613 -33.526  1.00  0.00     0.258 C 
HETATM    4  O   UNL     1      -8.838   4.619 -34.132  1.00  0.00    -0.267 OA
HETATM    5  C   UNL     1     -10.326   2.806 -34.036  1.00  0.00     0.058 A 
HETATM    6  C   UNL     1     -10.771   1.733 -33.258  1.00  0.00     0.045 A 
HETATM    7  N   UNL     1     -10.163   1.431 -32.040  1.00  0.00    -0.364 N 
HETATM    8  C   UNL     1     -10.977   3.161 -35.223  1.00  0.00     0.019 A 
HETATM    9  C   UNL     1     -12.106   2.450 -35.628  1.00  0.00     0.001 A 
HETATM   10  C   UNL     1     -12.586   1.406 -34.840  1.00  0.00     0.002 A 
HETATM   11  C   UNL     1     -11.930   1.059 -33.656  1.00  0.00     0.030 A 
HETATM   12  H   UNL     1     -10.397   0.519 -31.672  1.00  0.00     0.162 HD
ENDROOT
BRANCH   1  13
HETATM   13  C   UNL     1      -7.834   0.791 -32.549  1.00  0.00    -0.016 A 
HETATM   14  C   UNL     1      -7.728   0.645 -33.945  1.00  0.00     0.013 A 
HETATM   15  C   UNL     1      -6.812  -0.245 -34.518  1.00  0.00     0.038 A 
HETATM   16  C   UNL     1      -5.998  -1.030 -33.705  1.00  0.00     0.134 A 
HETATM   17  C   UNL     1      -6.098  -0.917 -32.316  1.00  0.00     0.038 A 
HETATM   18  C   UNL     1      -6.997  -0.006 -31.748  1.00  0.00     0.013 A 
BRANCH  16  19
HETATM   19  N   UNL     1      -4.979  -1.948 -34.264  1.00  0.00    -0.042 N 
HETATM   20  H   UNL     1      -4.371  -1.350 -34.837  1.00  0.00     0.286 HD
BRANCH  19  21
HETATM   21  C   UNL     1      -5.550  -2.950 -35.241  1.00  0.00     0.237 C 
HETATM   22  C   UNL     1      -6.782  -3.631 -34.664  1.00  0.00     0.035 C 
ENDBRANCH  19  21
BRANCH  19  23
HETATM   23  C   UNL     1      -4.042  -2.497 -33.214  1.00  0.00     0.237 C 
HETATM   24  C   UNL     1      -3.619  -3.937 -33.439  1.00  0.00     0.035 C 
ENDBRANCH  19  23
ENDBRANCH  16  19
ENDBRANCH   1  13
BRANCH   2  25
HETATM   25  C   UNL     1      -7.614   4.022 -31.695  1.00  0.00     0.193 C 
BRANCH  25  26
HETATM   26  C   UNL     1      -6.253   3.474 -31.923  1.00  0.00     0.070 A 
HETATM   27  O   UNL     1      -5.585   3.017 -30.824  1.00  0.00    -0.325 OA
HETATM   28  C   UNL     1      -4.379   2.565 -31.255  1.00  0.00     0.142 A 
HETATM   29  C   UNL     1      -4.259   2.735 -32.615  1.00  0.00     0.027 A 
HETATM   30  C   UNL     1      -5.470   3.324 -33.049  1.00  0.00     0.036 A 
ENDBRANCH  25  26
ENDBRANCH   2  25
TORSDOF 6
ENDMDL
MODEL 3
REMARK VINA RESULT:      -7.9      1.633      2.376
REMARK  6 active torsions:
REMARK  status: ('A' for Active; 'I' for Inactive)
REMARK    1  A    between atoms: C_2  and  N_3 
REMARK    2  A    between atoms: N_3  and  C_5 
REMARK    3  A    between atoms: N_3  and  C_28 
REMARK    4  A    between atoms: C_8  and  C_9 
REMARK    5  A    between atoms: N_10  and  C_11 
REMARK    6  A    between atoms: C_11  and  C_12 
ROOT
HETATM    1  C   UNL     1      -6.725   2.735 -33.004  1.00  0.00     0.222 C 
HETATM    2  N   UNL     1      -6.225   3.064 -31.686  1.00  0.00    -0.316 N 
HETATM    3  C   UNL     1      -4.935   3.535 -31.507  1.00  0.00     0.258 C 
HETATM    4  O   UNL     1      -4.353   3.518 -30.426  1.00  0.00    -0.267 OA
HETATM    5  C   UNL     1      -4.263   4.097 -32.699  1.00  0.00     0.058 A 
HETATM    6  C   UNL     1      -5.000   4.197 -33.883  1.00  0.00     0.045 A 
HETATM    7  N   UNL     1      -6.328   3.775 -33.937  1.00  0.00    -0.364 N 
HETATM    8  C   UNL     1      -2.953   4.585 -32.616  1.00  0.00     0.019 A 
HETATM    9  C   UNL     1      -2.379   5.207 -33.724  1.00  0.00     0.001 A 
HETATM   10  C   UNL     1      -3.117   5.352 -34.896  1.00  0.00     0.002 A 
HETATM   11  C   UNL     1      -4.424   4.862 -34.970  1.00  0.00     0.030 A 
HETATM   12  H   UNL     1      -6.695   3.674 -34.874  1.00  0.00     0.162 HD
ENDROOT
BRANCH   1  13
HETATM   13  C   UNL     1      -6.317   1.343 -33.520  1.00  0.00    -0.016 A 
HETATM   14  C   UNL     1      -5.244   0.612 -32.976  1.00  0.00     0.013 A 
HETATM   15  C   UNL     1      -4.945  -0.683 -33.416  1.00  0.00     0.038 A 
HETATM   16  C   UNL     1      -5.698  -1.268 -34.431  1.00  0.00     0.134 A 
HETATM   17  C   UNL     1      -6.757  -0.555 -35.000  1.00  0.00     0.038 A 
HETATM   18  C   UNL     1      -7.068   0.729 -34.539  1.00  0.00     0.013 A 
BRANCH  16  19
HETATM   19  N   UNL     1      -5.452  -2.653 -34.894  1.00  0.00    -0.042 N 
HETATM   20  H   UNL     1      -5.483  -2.598 -35.920  1.00  0.00     0.286 HD
BRANCH  19  21
HETATM   21  C   UNL     1      -6.563  -3.611 -34.533  1.00  0.00     0.237 C 
HETATM   22  C   UNL     1      -6.780  -4.633 -35.639  1.00  0.00     0.035 C 
ENDBRANCH  19  21
BRANCH  19  23
HETATM   23  C   UNL     1      -4.045  -3.125 -34.613  1.00  0.00     0.237 C 
HETATM   24  C   UNL     1      -3.954  -4.306 -33.663  1.00  0.00     0.035 C 
ENDBRANCH  19  23
ENDBRANCH  16  19
ENDBRANCH   1  13
BRANCH   2  25
HETATM   25  C   UNL     1      -7.012   2.671 -30.525  1.00  0.00     0.193 C 
BRANCH  25  26
HETATM   26  C   UNL     1      -8.297   3.413 -30.511  1.00  0.00     0.070 A 
HETATM   27  O   UNL     1      -8.220   4.768 -30.371  1.00  0.00    -0.325 OA
HETATM   28  C   UNL     1      -9.494   5.239 -30.385  1.00  0.00     0.142 A 
HETATM   29  C   UNL     1     -10.390   4.204 -30.522  1.00  0.00     0.027 A 
HETATM   30  C   UNL     1      -9.617   3.021 -30.603  1.00  0.00     0.036 A 
ENDBRANCH  25  26
ENDBRANCH   2  25
TORSDOF 6
ENDMDL
MODEL 4
REMARK VINA RESULT:      -7.9      2.527      5.372
REMARK  6 active torsions:
REMARK  status: ('A' for Active; 'I' for Inactive)
REMARK    1  A    between atoms: C_2  and  N_3 
REMARK    2  A    between atoms: N_3  and  C_5 
REMARK    3  A    between atoms: N_3  and  C_28 
REMARK    4  A    between atoms: C_8  and  C_9 
REMARK    5  A    between atoms: N_10  and  C_11 
REMARK    6  A    between atoms: C_11  and  C_12 
ROOT
HETATM    1  C   UNL     1      -3.617   2.856 -31.420  1.00  0.00     0.222 C 
HETATM    2  N   UNL     1      -3.630   3.862 -32.460  1.00  0.00    -0.316 N 
HETATM    3  C   UNL     1      -4.814   4.447 -32.876  1.00  0.00     0.258 C 
HETATM    4  O   UNL     1      -4.937   5.040 -33.943  1.00  0.00    -0.267 OA
HETATM    5  C   UNL     1      -5.963   4.346 -31.950  1.00  0.00     0.058 A 
HETATM    6  C   UNL     1      -5.751   3.758 -30.700  1.00  0.00     0.045 A 
HETATM    7  N   UNL     1      -4.492   3.278 -30.339  1.00  0.00    -0.364 N 
HETATM    8  C   UNL     1      -7.205   4.896 -32.291  1.00  0.00     0.019 A 
HETATM    9  C   UNL     1      -8.243   4.884 -31.361  1.00  0.00     0.001 A 
HETATM   10  C   UNL     1      -8.032   4.340 -30.095  1.00  0.00     0.002 A 
HETATM   11  C   UNL     1      -6.789   3.793 -29.763  1.00  0.00     0.030 A 
HETATM   12  H   UNL     1      -4.493   2.674 -29.528  1.00  0.00     0.162 HD
ENDROOT
BRANCH   1  13
HETATM   13  C   UNL     1      -3.967   1.433 -31.893  1.00  0.00    -0.016 A 
HETATM   14  C   UNL     1      -4.902   1.177 -32.912  1.00  0.00     0.013 A 
HETATM   15  C   UNL     1      -5.143  -0.124 -33.372  1.00  0.00     0.038 A 
HETATM   16  C   UNL     1      -4.470  -1.202 -32.804  1.00  0.00     0.134 A 
HETATM   17  C   UNL     1      -3.550  -0.976 -31.777  1.00  0.00     0.038 A 
HETATM   18  C   UNL     1      -3.294   0.329 -31.338  1.00  0.00     0.013 A 
BRANCH  16  19
HETATM   19  N   UNL     1      -4.654  -2.588 -33.291  1.00  0.00    -0.042 N 
HETATM   20  H   UNL     1      -5.398  -2.980 -32.699  1.00  0.00     0.286 HD
BRANCH  19  21
HETATM   21  C   UNL     1      -3.459  -3.477 -33.032  1.00  0.00     0.237 C 
HETATM   22  C   UNL     1      -3.744  -4.909 -33.463  1.00  0.00     0.035 C 
ENDBRANCH  19  21
BRANCH  19  23
HETATM   23  C   UNL     1      -5.244  -2.650 -34.680  1.00  0.00     0.237 C 
HETATM   24  C   UNL     1      -6.678  -3.147 -34.734  1.00  0.00     0.035 C 
ENDBRANCH  19  23
ENDBRANCH  16  19
ENDBRANCH   1  13
BRANCH   2  25
HETATM   25  C   UNL     1      -2.413   4.081 -33.231  1.00  0.00     0.193 C 
BRANCH  25  26
HETATM   26  C   UNL     1      -1.543   5.061 -32.534  1.00  0.00     0.070 A 
HETATM   27  O   UNL     1      -0.754   4.575 -31.532  1.00  0.00    -0.325 OA
HETATM   28  C   UNL     1      -0.050   5.627 -31.040  1.00  0.00     0.142 A 
HETATM   29  C   UNL     1      -0.383   6.784 -31.705  1.00  0.00     0.027 A 
HETATM   30  C   UNL     1      -1.350   6.420 -32.671  1.00  0.00     0.036 A 
ENDBRANCH  25  26
ENDBRANCH   2  25
TORSDOF 6
ENDMDL
MODEL 5
REMARK VINA RESULT:      -7.8      2.107      6.210
REMARK  6 active torsions:
REMARK  status: ('A' for Active; 'I' for Inactive)
REMARK    1  A    between atoms: C_2  and  N_3 
REMARK    2  A    between atoms: N_3  and  C_5 
REMARK    3  A    between atoms: N_3  and  C_28 
REMARK    4  A    between atoms: C_8  and  C_9 
REMARK    5  A    between atoms: N_10  and  C_11 
REMARK    6  A    between atoms: C_11  and  C_12 
ROOT
HETATM    1  C   UNL     1      -6.464   1.919 -32.305  1.00  0.00     0.222 C 
HETATM    2  N   UNL     1      -7.164   1.548 -33.516  1.00  0.00    -0.316 N 
HETATM    3  C   UNL     1      -6.662   0.574 -34.365  1.00  0.00     0.258 C 
HETATM    4  O   UNL     1      -7.014   0.449 -35.534  1.00  0.00    -0.267 OA
HETATM    5  C   UNL     1      -5.664  -0.354 -33.790  1.00  0.00     0.058 A 
HETATM    6  C   UNL     1      -5.373  -0.245 -32.426  1.00  0.00     0.045 A 
HETATM    7  N   UNL     1      -6.003   0.715 -31.635  1.00  0.00    -0.364 N 
HETATM    8  C   UNL     1      -5.092  -1.362 -34.575  1.00  0.00     0.019 A 
HETATM    9  C   UNL     1      -4.236  -2.292 -33.986  1.00  0.00     0.001 A 
HETATM   10  C   UNL     1      -3.971  -2.220 -32.620  1.00  0.00     0.002 A 
HETATM   11  C   UNL     1      -4.547  -1.211 -31.844  1.00  0.00     0.030 A 
HETATM   12  H   UNL     1      -5.565   0.866 -30.736  1.00  0.00     0.162 HD
ENDROOT
BRANCH   1  13
HETATM   13  C   UNL     1      -5.310   2.918 -32.507  1.00  0.00    -0.016 A 
HETATM   14  C   UNL     1      -5.304   3.879 -33.535  1.00  0.00     0.013 A 
HETATM   15  C   UNL     1      -4.275   4.822 -33.646  1.00  0.00     0.038 A 
HETATM   16  C   UNL     1      -3.214   4.810 -32.744  1.00  0.00     0.134 A 
HETATM   17  C   UNL     1      -3.188   3.854 -31.725  1.00  0.00     0.038 A 
HETATM   18  C   UNL     1      -4.231   2.929 -31.602  1.00  0.00     0.013 A 
BRANCH  16  19
HETATM   19  N   UNL     1      -2.131   5.819 -32.791  1.00  0.00    -0.042 N 
HETATM   20  H   UNL     1      -2.490   6.616 -32.251  1.00  0.00     0.286 HD
BRANCH  19  21
HETATM   21  C   UNL     1      -1.892   6.376 -34.175  1.00  0.00     0.237 C 
HETATM   22  C   UNL     1      -1.072   5.410 -35.016  1.00  0.00     0.035 C 
ENDBRANCH  19  21
BRANCH  19  23
HETATM   23  C   UNL     1      -0.903   5.399 -32.018  1.00  0.00     0.237 C 
HETATM   24  C   UNL     1      -0.102   6.549 -31.435  1.00  0.00     0.035 C 
ENDBRANCH  19  23
ENDBRANCH  16  19
ENDBRANCH   1  13
BRANCH   2  25
HETATM   25  C   UNL     1      -8.280   2.375 -33.957  1.00  0.00     0.193 C 
BRANCH  25  26
HETATM   26  C   UNL     1      -9.556   1.640 -33.773  1.00  0.00     0.070 A 
HETATM   27  O   UNL     1     -10.651   2.146 -34.412  1.00  0.00    -0.325 OA
HETATM   28  C   UNL     1     -11.695   1.330 -34.113  1.00  0.00     0.142 A 
HETATM   29  C   UNL     1     -11.288   0.312 -33.281  1.00  0.00     0.027 A 
HETATM   30  C   UNL     1      -9.905   0.512 -33.059  1.00  0.00     0.036 A 
ENDBRANCH  25  26
ENDBRANCH   2  25
TORSDOF 6
ENDMDL
MODEL 6
REMARK VINA RESULT:      -7.7      1.835      6.309
REMARK  6 active torsions:
REMARK  status: ('A' for Active; 'I' for Inactive)
REMARK    1  A    between atoms: C_2  and  N_3 
REMARK    2  A    between atoms: N_3  and  C_5 
REMARK    3  A    between atoms: N_3  and  C_28 
REMARK    4  A    between atoms: C_8  and  C_9 
REMARK    5  A    between atoms: N_10  and  C_11 
REMARK    6  A    between atoms: C_11  and  C_12 
ROOT
HETATM    1  C   UNL     1      -6.277   0.896 -31.258  1.00  0.00     0.222 C 
HETATM    2  N   UNL     1      -7.601   0.661 -31.795  1.00  0.00    -0.316 N 
HETATM    3  C   UNL     1      -7.779  -0.019 -32.988  1.00  0.00     0.258 C 
HETATM    4  O   UNL     1      -8.812   0.035 -33.649  1.00  0.00    -0.267 OA
HETATM    5  C   UNL     1      -6.650  -0.857 -33.448  1.00  0.00     0.058 A 
HETATM    6  C   UNL     1      -5.537  -0.977 -32.611  1.00  0.00     0.045 A 
HETATM    7  N   UNL     1      -5.491  -0.320 -31.382  1.00  0.00    -0.364 N 
HETATM    8  C   UNL     1      -6.735  -1.571 -34.649  1.00  0.00     0.019 A 
HETATM    9  C   UNL     1      -5.704  -2.438 -35.010  1.00  0.00     0.001 A 
HETATM   10  C   UNL     1      -4.608  -2.599 -34.164  1.00  0.00     0.002 A 
HETATM   11  C   UNL     1      -4.532  -1.883 -32.967  1.00  0.00     0.030 A 
HETATM   12  H   UNL     1      -4.571  -0.280 -30.964  1.00  0.00     0.162 HD
ENDROOT
BRANCH   1  13
HETATM   13  C   UNL     1      -5.536   2.099 -31.869  1.00  0.00    -0.016 A 
HETATM   14  C   UNL     1      -5.738   2.526 -33.195  1.00  0.00     0.013 A 
HETATM   15  C   UNL     1      -5.106   3.669 -33.698  1.00  0.00     0.038 A 
HETATM   16  C   UNL     1      -4.236   4.399 -32.892  1.00  0.00     0.134 A 
HETATM   17  C   UNL     1      -4.005   3.985 -31.577  1.00  0.00     0.038 A 
HETATM   18  C   UNL     1      -4.659   2.856 -31.071  1.00  0.00     0.013 A 
BRANCH  16  19
HETATM   19  N   UNL     1      -3.585   5.643 -33.363  1.00  0.00    -0.042 N 
HETATM   20  H   UNL     1      -4.333   6.347 -33.368  1.00  0.00     0.286 HD
BRANCH  19  21
HETATM   21  C   UNL     1      -3.126   5.570 -34.801  1.00  0.00     0.237 C 
HETATM   22  C   UNL     1      -1.666   5.149 -34.885  1.00  0.00     0.035 C 
ENDBRANCH  19  21
BRANCH  19  23
HETATM   23  C   UNL     1      -2.589   6.197 -32.371  1.00  0.00     0.237 C 
HETATM   24  C   UNL     1      -2.541   7.713 -32.308  1.00  0.00     0.035 C 
ENDBRANCH  19  23
ENDBRANCH  16  19
ENDBRANCH   1  13
BRANCH   2  25
HETATM   25  C   UNL     1      -8.730   1.354 -31.190  1.00  0.00     0.193 C 
BRANCH  25  26
HETATM   26  C   UNL     1      -8.652   2.806 -31.490  1.00  0.00     0.070 A 
HETATM   27  O   UNL     1      -9.017   3.192 -32.747  1.00  0.00    -0.325 OA
HETATM   28  C   UNL     1      -8.873   4.541 -32.802  1.00  0.00     0.142 A 
HETATM   29  C   UNL     1      -8.410   5.027 -31.601  1.00  0.00     0.027 A 
HETATM   30  C   UNL     1      -8.265   3.905 -30.751  1.00  0.00     0.036 A 
ENDBRANCH  25  26
ENDBRANCH   2  25
TORSDOF 6
ENDMDL
MODEL 7
REMARK VINA RESULT:      -7.4      2.235      6.514
REMARK  6 active torsions:
REMARK  status: ('A' for Active; 'I' for Inactive)
REMARK    1  A    between atoms: C_2  and  N_3 
REMARK    2  A    between atoms: N_3  and  C_5 
REMARK    3  A    between atoms: N_3  and  C_28 
REMARK    4  A    between atoms: C_8  and  C_9 
REMARK    5  A    between atoms: N_10  and  C_11 
REMARK    6  A    between atoms: C_11  and  C_12 
ROOT
HETATM    1  C   UNL     1      -5.936   2.081 -33.550  1.00  0.00     0.222 C 
HETATM    2  N   UNL     1      -6.081   1.069 -32.524  1.00  0.00    -0.316 N 
HETATM    3  C   UNL     1      -6.921   1.264 -31.440  1.00  0.00     0.258 C 
HETATM    4  O   UNL     1      -6.843   0.618 -30.400  1.00  0.00    -0.267 OA
HETATM    5  C   UNL     1      -7.965   2.302 -31.589  1.00  0.00     0.058 A 
HETATM    6  C   UNL     1      -8.087   2.938 -32.828  1.00  0.00     0.045 A 
HETATM    7  N   UNL     1      -7.247   2.605 -33.890  1.00  0.00    -0.364 N 
HETATM    8  C   UNL     1      -8.851   2.578 -30.541  1.00  0.00     0.019 A 
HETATM    9  C   UNL     1      -9.893   3.483 -30.740  1.00  0.00     0.001 A 
HETATM   10  C   UNL     1     -10.053   4.091 -31.984  1.00  0.00     0.002 A 
HETATM   11  C   UNL     1      -9.163   3.809 -33.025  1.00  0.00     0.030 A 
HETATM   12  H   UNL     1      -7.259   3.267 -34.655  1.00  0.00     0.162 HD
ENDROOT
BRANCH   1  13
HETATM   13  C   UNL     1      -4.958   3.218 -33.201  1.00  0.00    -0.016 A 
HETATM   14  C   UNL     1      -3.818   3.024 -32.398  1.00  0.00     0.013 A 
HETATM   15  C   UNL     1      -2.908   4.061 -32.161  1.00  0.00     0.038 A 
HETATM   16  C   UNL     1      -3.130   5.324 -32.703  1.00  0.00     0.134 A 
HETATM   17  C   UNL     1      -4.264   5.547 -33.488  1.00  0.00     0.038 A 
HETATM   18  C   UNL     1      -5.158   4.500 -33.744  1.00  0.00     0.013 A 
BRANCH  16  19
HETATM   19  N   UNL     1      -2.170   6.437 -32.522  1.00  0.00    -0.042 N 
HETATM   20  H   UNL     1      -2.745   7.238 -32.232  1.00  0.00     0.286 HD
BRANCH  19  21
HETATM   21  C   UNL     1      -1.522   6.885 -33.812  1.00  0.00     0.237 C 
HETATM   22  C   UNL     1      -1.151   5.690 -34.677  1.00  0.00     0.035 C 
ENDBRANCH  19  21
BRANCH  19  23
HETATM   23  C   UNL     1      -1.244   6.229 -31.347  1.00  0.00     0.237 C 
HETATM   24  C   UNL     1       0.117   6.886 -31.493  1.00  0.00     0.035 C 
ENDBRANCH  19  23
ENDBRANCH  16  19
ENDBRANCH   1  13
BRANCH   2  25
HETATM   25  C   UNL     1      -5.156  -0.056 -32.520  1.00  0.00     0.193 C 
BRANCH  25  26
HETATM   26  C   UNL     1      -5.648  -1.118 -33.432  1.00  0.00     0.070 A 
HETATM   27  O   UNL     1      -4.707  -1.951 -33.966  1.00  0.00    -0.325 OA
HETATM   28  C   UNL     1      -5.368  -2.836 -34.757  1.00  0.00     0.142 A 
HETATM   29  C   UNL     1      -6.719  -2.576 -34.748  1.00  0.00     0.027 A 
HETATM   30  C   UNL     1      -6.902  -1.464 -33.892  1.00  0.00     0.036 A 
ENDBRANCH  25  26
ENDBRANCH   2  25
TORSDOF 6
ENDMDL
MODEL 8
REMARK VINA RESULT:      -7.4      1.781      2.639
REMARK  6 active torsions:
REMARK  status: ('A' for Active; 'I' for Inactive)
REMARK    1  A    between atoms: C_2  and  N_3 
REMARK    2  A    between atoms: N_3  and  C_5 
REMARK    3  A    between atoms: N_3  and  C_28 
REMARK    4  A    between atoms: C_8  and  C_9 
REMARK    5  A    between atoms: N_10  and  C_11 
REMARK    6  A    between atoms: C_11  and  C_12 
ROOT
HETATM    1  C   UNL     1      -8.031   2.508 -33.920  1.00  0.00     0.222 C 
HETATM    2  N   UNL     1      -8.855   2.571 -32.732  1.00  0.00    -0.316 N 
HETATM    3  C   UNL     1      -8.306   2.867 -31.495  1.00  0.00     0.258 C 
HETATM    4  O   UNL     1      -8.865   2.619 -30.431  1.00  0.00    -0.267 OA
HETATM    5  C   UNL     1      -6.986   3.534 -31.499  1.00  0.00     0.058 A 
HETATM    6  C   UNL     1      -6.436   3.897 -32.732  1.00  0.00     0.045 A 
HETATM    7  N   UNL     1      -7.112   3.633 -33.923  1.00  0.00    -0.364 N 
HETATM    8  C   UNL     1      -6.348   3.860 -30.296  1.00  0.00     0.019 A 
HETATM    9  C   UNL     1      -5.156   4.583 -30.322  1.00  0.00     0.001 A 
HETATM   10  C   UNL     1      -4.620   4.989 -31.543  1.00  0.00     0.002 A 
HETATM   11  C   UNL     1      -5.264   4.659 -32.739  1.00  0.00     0.030 A 
HETATM   12  H   UNL     1      -6.543   3.720 -34.754  1.00  0.00     0.162 HD
ENDROOT
BRANCH   1  13
HETATM   13  C   UNL     1      -7.278   1.178 -34.115  1.00  0.00    -0.016 A 
HETATM   14  C   UNL     1      -6.029   0.916 -33.523  1.00  0.00     0.013 A 
HETATM   15  C   UNL     1      -5.405  -0.330 -33.657  1.00  0.00     0.038 A 
HETATM   16  C   UNL     1      -6.007  -1.337 -34.408  1.00  0.00     0.134 A 
HETATM   17  C   UNL     1      -7.239  -1.094 -35.022  1.00  0.00     0.038 A 
HETATM   18  C   UNL     1      -7.871   0.145 -34.863  1.00  0.00     0.013 A 
BRANCH  16  19
HETATM   19  N   UNL     1      -5.410  -2.686 -34.536  1.00  0.00    -0.042 N 
HETATM   20  H   UNL     1      -5.081  -2.738 -35.508  1.00  0.00     0.286 HD
BRANCH  19  21
HETATM   21  C   UNL     1      -6.423  -3.802 -34.420  1.00  0.00     0.237 C 
HETATM   22  C   UNL     1      -6.493  -4.607 -35.709  1.00  0.00     0.035 C 
ENDBRANCH  19  21
BRANCH  19  23
HETATM   23  C   UNL     1      -4.143  -2.847 -33.730  1.00  0.00     0.237 C 
HETATM   24  C   UNL     1      -3.690  -4.284 -33.549  1.00  0.00     0.035 C 
ENDBRANCH  19  23
ENDBRANCH  16  19
ENDBRANCH   1  13
BRANCH   2  25
HETATM   25  C   UNL     1     -10.227   2.086 -32.809  1.00  0.00     0.193 C 
BRANCH  25  26
HETATM   26  C   UNL     1     -10.929   2.738 -33.943  1.00  0.00     0.070 A 
HETATM   27  O   UNL     1     -10.930   4.102 -33.960  1.00  0.00    -0.325 OA
HETATM   28  C   UNL     1     -11.616   4.483 -35.069  1.00  0.00     0.142 A 
HETATM   29  C   UNL     1     -12.066   3.381 -35.759  1.00  0.00     0.027 A 
HETATM   30  C   UNL     1     -11.623   2.251 -35.032  1.00  0.00     0.036 A 
ENDBRANCH  25  26
ENDBRANCH   2  25
TORSDOF 6
ENDMDL
MODEL 9
REMARK VINA RESULT:      -7.4      2.571      6.795
REMARK  6 active torsions:
REMARK  status: ('A' for Active; 'I' for Inactive)
REMARK    1  A    between atoms: C_2  and  N_3 
REMARK    2  A    between atoms: N_3  and  C_5 
REMARK    3  A    between atoms: N_3  and  C_28 
REMARK    4  A    between atoms: C_8  and  C_9 
REMARK    5  A    between atoms: N_10  and  C_11 
REMARK    6  A    between atoms: C_11  and  C_12 
ROOT
HETATM    1  C   UNL     1      -6.999   2.764 -34.126  1.00  0.00     0.222 C 
HETATM    2  N   UNL     1      -5.957   2.807 -33.123  1.00  0.00    -0.316 N 
HETATM    3  C   UNL     1      -5.547   1.658 -32.467  1.00  0.00     0.258 C 
HETATM    4  O   UNL     1      -4.927   1.670 -31.407  1.00  0.00    -0.267 OA
HETATM    5  C   UNL     1      -5.877   0.371 -33.116  1.00  0.00     0.058 A 
HETATM    6  C   UNL     1      -6.487   0.406 -34.374  1.00  0.00     0.045 A 
HETATM    7  N   UNL     1      -6.778   1.620 -34.994  1.00  0.00    -0.364 N 
HETATM    8  C   UNL     1      -5.514  -0.843 -32.519  1.00  0.00     0.019 A 
HETATM    9  C   UNL     1      -5.739  -2.039 -33.199  1.00  0.00     0.001 A 
HETATM   10  C   UNL     1      -6.307  -2.016 -34.471  1.00  0.00     0.002 A 
HETATM   11  C   UNL     1      -6.665  -0.799 -35.060  1.00  0.00     0.030 A 
HETATM   12  H   UNL     1      -7.415   1.547 -35.776  1.00  0.00     0.162 HD
ENDROOT
BRANCH   1  13
HETATM   13  C   UNL     1      -8.434   2.765 -33.566  1.00  0.00    -0.016 A 
HETATM   14  C   UNL     1      -8.748   3.230 -32.276  1.00  0.00     0.013 A 
HETATM   15  C   UNL     1     -10.072   3.289 -31.824  1.00  0.00     0.038 A 
HETATM   16  C   UNL     1     -11.111   2.860 -32.645  1.00  0.00     0.134 A 
HETATM   17  C   UNL     1     -10.823   2.376 -33.924  1.00  0.00     0.038 A 
HETATM   18  C   UNL     1      -9.501   2.344 -34.381  1.00  0.00     0.013 A 
BRANCH  16  19
HETATM   19  N   UNL     1     -12.530   2.950 -32.230  1.00  0.00    -0.042 N 
HETATM   20  H   UNL     1     -12.598   2.358 -31.393  1.00  0.00     0.286 HD
BRANCH  19  21
HETATM   21  C   UNL     1     -13.484   2.319 -33.217  1.00  0.00     0.237 C 
HETATM   22  C   UNL     1     -14.800   1.956 -32.545  1.00  0.00     0.035 C 
ENDBRANCH  19  21
BRANCH  19  23
HETATM   23  C   UNL     1     -12.907   4.321 -31.719  1.00  0.00     0.237 C 
HETATM   24  C   UNL     1     -13.181   4.384 -30.227  1.00  0.00     0.035 C 
ENDBRANCH  19  23
ENDBRANCH  16  19
ENDBRANCH   1  13
BRANCH   2  25
HETATM   25  C   UNL     1      -5.507   4.106 -32.641  1.00  0.00     0.193 C 
BRANCH  25  26
HETATM   26  C   UNL     1      -4.271   4.511 -33.357  1.00  0.00     0.070 A 
HETATM   27  O   UNL     1      -4.433   5.300 -34.459  1.00  0.00    -0.325 OA
HETATM   28  C   UNL     1      -3.191   5.549 -34.951  1.00  0.00     0.142 A 
HETATM   29  C   UNL     1      -2.235   4.921 -34.187  1.00  0.00     0.027 A 
HETATM   30  C   UNL     1      -2.932   4.248 -33.156  1.00  0.00     0.036 A 
ENDBRANCH  25  26
ENDBRANCH   2  25
TORSDOF 6
ENDMDL
MODEL 10
REMARK VINA RESULT:      -7.2      2.666      5.844
REMARK  6 active torsions:
REMARK  status: ('A' for Active; 'I' for Inactive)
REMARK    1  A    between atoms: C_2  and  N_3 
REMARK    2  A    between atoms: N_3  and  C_5 
REMARK    3  A    between atoms: N_3  and  C_28 
REMARK    4  A    between atoms: C_8  and  C_9 
REMARK    5  A    between atoms: N_10  and  C_11 
REMARK    6  A    between atoms: C_11  and  C_12 
ROOT
HETATM    1  C   UNL     1      -4.048   3.750 -31.157  1.00  0.00     0.222 C 
HETATM    2  N   UNL     1      -3.466   4.791 -31.978  1.00  0.00    -0.316 N 
HETATM    3  C   UNL     1      -4.186   5.925 -32.315  1.00  0.00     0.258 C 
HETATM    4  O   UNL     1      -3.886   6.664 -33.248  1.00  0.00    -0.267 OA
HETATM    5  C   UNL     1      -5.361   6.238 -31.473  1.00  0.00     0.058 A 
HETATM    6  C   UNL     1      -5.603   5.432 -30.356  1.00  0.00     0.045 A 
HETATM    7  N   UNL     1      -4.762   4.362 -30.050  1.00  0.00    -0.364 N 
HETATM    8  C   UNL     1      -6.157   7.357 -31.746  1.00  0.00     0.019 A 
HETATM    9  C   UNL     1      -7.194   7.693 -30.877  1.00  0.00     0.001 A 
HETATM   10  C   UNL     1      -7.419   6.924 -29.737  1.00  0.00     0.002 A 
HETATM   11  C   UNL     1      -6.619   5.808 -29.472  1.00  0.00     0.030 A 
HETATM   12  H   UNL     1      -5.143   3.713 -29.374  1.00  0.00     0.162 HD
ENDROOT
BRANCH   1  13
HETATM   13  C   UNL     1      -4.948   2.758 -31.916  1.00  0.00    -0.016 A 
HETATM   14  C   UNL     1      -5.379   1.540 -31.358  1.00  0.00     0.013 A 
HETATM   15  C   UNL     1      -6.258   0.693 -32.044  1.00  0.00     0.038 A 
HETATM   16  C   UNL     1      -6.708   1.035 -33.317  1.00  0.00     0.134 A 
HETATM   17  C   UNL     1      -6.279   2.230 -33.900  1.00  0.00     0.038 A 
HETATM   18  C   UNL     1      -5.421   3.086 -33.200  1.00  0.00     0.013 A 
BRANCH  16  19
HETATM   19  N   UNL     1      -7.677   0.197 -34.060  1.00  0.00    -0.042 N 
HETATM   20  H   UNL     1      -8.132   0.840 -34.718  1.00  0.00     0.286 HD
BRANCH  19  21
HETATM   21  C   UNL     1      -8.805  -0.321 -33.197  1.00  0.00     0.237 C 
HETATM   22  C   UNL     1      -9.907   0.719 -33.063  1.00  0.00     0.035 C 
ENDBRANCH  19  21
BRANCH  19  23
HETATM   23  C   UNL     1      -7.009  -0.813 -34.963  1.00  0.00     0.237 C 
HETATM   24  C   UNL     1      -6.821  -2.186 -34.344  1.00  0.00     0.035 C 
ENDBRANCH  19  23
ENDBRANCH  16  19
ENDBRANCH   1  13
BRANCH   2  25
HETATM   25  C   UNL     1      -2.197   4.524 -32.643  1.00  0.00     0.193 C 
BRANCH  25  26
HETATM   26  C   UNL     1      -1.089   5.169 -31.894  1.00  0.00     0.070 A 
HETATM   27  O   UNL     1      -0.553   4.456 -30.861  1.00  0.00    -0.325 OA
HETATM   28  C   UNL     1       0.432   5.221 -30.324  1.00  0.00     0.142 A 
HETATM   29  C   UNL     1       0.530   6.421 -30.990  1.00  0.00     0.027 A 
HETATM   30  C   UNL     1      -0.455   6.389 -32.006  1.00  0.00     0.036 A 
ENDBRANCH  25  26
ENDBRANCH   2  25
TORSDOF 6
ENDMDL
