MODEL 1
REMARK VINA RESULT:      -8.2      0.000      0.000
REMARK  7 active torsions:
REMARK  status: ('A' for Active; 'I' for Inactive)
REMARK    1  A    between atoms: O_2  and  C_3 
REMARK    2  A    between atoms: C_4  and  O_5 
REMARK    3  A    between atoms: C_9  and  C_10 
REMARK    4  A    between atoms: C_11  and  C_12 
REMARK       I    between atoms: C_12  and  N_13 
REMARK    5  A    between atoms: N_13  and  C_14 
REMARK    6  A    between atoms: C_14  and  C_15 
REMARK    7  A    between atoms: C_15  and  C_16 
ROOT
HETATM    1  C   UNL     1      -8.040   0.545 -34.687  1.00  0.00     0.040 C 
HETATM    2  C   UNL     1      -8.747   1.308 -33.829  1.00  0.00     0.113 C 
HETATM    3  C   UNL     1      -9.744   2.186 -34.343  1.00  0.00     0.105 C 
HETATM    4  N   UNL     1     -10.533   2.933 -34.748  1.00  0.00    -0.191 NA
ENDROOT
BRANCH   2   5
HETATM    5  C   UNL     1      -8.550   1.266 -32.348  1.00  0.00     0.262 C 
HETATM    6  N   UNL     1      -7.656   2.190 -31.849  1.00  0.00    -0.356 N 
HETATM    7  H   UNL     1      -7.294   2.929 -32.441  1.00  0.00     0.162 HD
HETATM    8  O   UNL     1      -9.130   0.453 -31.637  1.00  0.00    -0.267 OA
BRANCH   6   9
HETATM    9  C   UNL     1      -7.412   2.289 -30.418  1.00  0.00     0.127 C 
BRANCH   9  10
HETATM   10  C   UNL     1      -5.923   2.193 -30.084  1.00  0.00     0.060 C 
BRANCH  10  11
HETATM   11  C   UNL     1      -5.220   3.504 -30.227  1.00  0.00    -0.029 A 
HETATM   12  C   UNL     1      -4.205   3.834 -31.183  1.00  0.00    -0.002 A 
HETATM   13  C   UNL     1      -3.841   5.163 -30.961  1.00  0.00     0.042 A 
HETATM   14  C   UNL     1      -3.563   3.127 -32.219  1.00  0.00     0.014 A 
HETATM   15  C   UNL     1      -2.868   5.820 -31.723  1.00  0.00     0.030 A 
HETATM   16  N   UNL     1      -4.599   5.622 -29.910  1.00  0.00    -0.365 N 
HETATM   17  C   UNL     1      -2.248   5.097 -32.745  1.00  0.00     0.002 A 
HETATM   18  C   UNL     1      -2.588   3.769 -32.991  1.00  0.00     0.001 A 
HETATM   19  H   UNL     1      -4.545   6.556 -29.530  1.00  0.00     0.165 HD
HETATM   20  C   UNL     1      -5.433   4.633 -29.460  1.00  0.00     0.096 A 
ENDBRANCH  10  11
ENDBRANCH   9  10
ENDBRANCH   6   9
ENDBRANCH   2   5
BRANCH   1  21
HETATM   21  C   UNL     1      -6.948  -0.403 -34.401  1.00  0.00    -0.030 A 
HETATM   22  C   UNL     1      -7.122  -1.748 -34.755  1.00  0.00     0.033 A 
HETATM   23  C   UNL     1      -6.095  -2.675 -34.551  1.00  0.00     0.047 A 
HETATM   24  C   UNL     1      -4.891  -2.259 -33.987  1.00  0.00     0.116 A 
HETATM   25 BR   UNL     1      -6.385  -4.478 -35.055  1.00  0.00    -0.048 Br
HETATM   26  C   UNL     1      -4.704  -0.921 -33.620  1.00  0.00     0.103 A 
HETATM   27  C   UNL     1      -5.719   0.008 -33.861  1.00  0.00     0.051 A 
BRANCH  24  28
HETATM   28  O   UNL     1      -3.873  -3.151 -33.774  1.00  0.00    -0.357 OA
HETATM   29  H   UNL     1      -4.305  -3.967 -33.453  1.00  0.00     0.218 HD
ENDBRANCH  24  28
BRANCH  26  30
HETATM   30  O   UNL     1      -3.483  -0.629 -33.062  1.00  0.00    -0.353 OA
HETATM   31  C   UNL     1      -3.478  -0.494 -31.643  1.00  0.00     0.210 C 
ENDBRANCH  26  30
ENDBRANCH   1  21
TORSDOF 7
ENDMDL
MODEL 2
REMARK VINA RESULT:      -8.0      3.108      6.755
REMARK  7 active torsions:
REMARK  status: ('A' for Active; 'I' for Inactive)
REMARK    1  A    between atoms: O_2  and  C_3 
REMARK    2  A    between atoms: C_4  and  O_5 
REMARK    3  A    between atoms: C_9  and  C_10 
REMARK    4  A    between atoms: C_11  and  C_12 
REMARK       I    between atoms: C_12  and  N_13 
REMARK    5  A    between atoms: N_13  and  C_14 
REMARK    6  A    between atoms: C_14  and  C_15 
REMARK    7  A    between atoms: C_15  and  C_16 
ROOT
HETATM    1  C   UNL     1      -4.874   4.440 -33.409  1.00  0.00     0.040 C 
HETATM    2  C   UNL     1      -3.567   4.153 -33.239  1.00  0.00     0.113 C 
HETATM    3  C   UNL     1      -2.605   4.775 -34.083  1.00  0.00     0.105 C 
HETATM    4  N   UNL     1      -1.811   5.245 -34.787  1.00  0.00    -0.191 NA
ENDROOT
BRANCH   2   5
HETATM    5  C   UNL     1      -3.070   3.218 -32.183  1.00  0.00     0.262 C 
HETATM    6  N   UNL     1      -3.502   1.914 -32.305  1.00  0.00    -0.356 N 
HETATM    7  H   UNL     1      -3.989   1.608 -33.139  1.00  0.00     0.162 HD
HETATM    8  O   UNL     1      -2.347   3.595 -31.268  1.00  0.00    -0.267 OA
BRANCH   6   9
HETATM    9  C   UNL     1      -3.050   0.892 -31.373  1.00  0.00     0.127 C 
BRANCH   9  10
HETATM   10  C   UNL     1      -4.148  -0.125 -31.062  1.00  0.00     0.060 C 
BRANCH  10  11
HETATM   11  C   UNL     1      -4.105  -1.308 -31.974  1.00  0.00    -0.029 A 
HETATM   12  C   UNL     1      -5.021  -1.611 -33.033  1.00  0.00    -0.002 A 
HETATM   13  C   UNL     1      -4.595  -2.801 -33.624  1.00  0.00     0.042 A 
HETATM   14  C   UNL     1      -6.173  -0.982 -33.546  1.00  0.00     0.014 A 
HETATM   15  C   UNL     1      -5.263  -3.393 -34.703  1.00  0.00     0.030 A 
HETATM   16  N   UNL     1      -3.468  -3.209 -32.951  1.00  0.00    -0.365 N 
HETATM   17  C   UNL     1      -6.401  -2.747 -35.194  1.00  0.00     0.002 A 
HETATM   18  C   UNL     1      -6.852  -1.560 -34.625  1.00  0.00     0.001 A 
HETATM   19  H   UNL     1      -2.945  -4.046 -33.165  1.00  0.00     0.165 HD
HETATM   20  C   UNL     1      -3.164  -2.320 -31.956  1.00  0.00     0.096 A 
ENDBRANCH  10  11
ENDBRANCH   9  10
ENDBRANCH   6   9
ENDBRANCH   2   5
BRANCH   1  21
HETATM   21  C   UNL     1      -6.043   3.904 -32.690  1.00  0.00    -0.030 A 
HETATM   22  C   UNL     1      -6.916   3.049 -33.378  1.00  0.00     0.033 A 
HETATM   23  C   UNL     1      -8.010   2.474 -32.724  1.00  0.00     0.047 A 
HETATM   24  C   UNL     1      -8.237   2.757 -31.379  1.00  0.00     0.116 A 
HETATM   25 BR   UNL     1      -9.151   1.322 -33.704  1.00  0.00    -0.048 Br
HETATM   26  C   UNL     1      -7.380   3.615 -30.680  1.00  0.00     0.103 A 
HETATM   27  C   UNL     1      -6.267   4.156 -31.327  1.00  0.00     0.051 A 
BRANCH  24  28
HETATM   28  O   UNL     1      -9.306   2.208 -30.719  1.00  0.00    -0.357 OA
HETATM   29  H   UNL     1      -9.606   1.467 -31.282  1.00  0.00     0.218 HD
ENDBRANCH  24  28
BRANCH  26  30
HETATM   30  O   UNL     1      -7.709   3.830 -29.363  1.00  0.00    -0.353 OA
HETATM   31  C   UNL     1      -7.127   4.990 -28.771  1.00  0.00     0.210 C 
ENDBRANCH  26  30
ENDBRANCH   1  21
TORSDOF 7
ENDMDL
MODEL 3
REMARK VINA RESULT:      -8.0      5.134      9.210
REMARK  7 active torsions:
REMARK  status: ('A' for Active; 'I' for Inactive)
REMARK    1  A    between atoms: O_2  and  C_3 
REMARK    2  A    between atoms: C_4  and  O_5 
REMARK    3  A    between atoms: C_9  and  C_10 
REMARK    4  A    between atoms: C_11  and  C_12 
REMARK       I    between atoms: C_12  and  N_13 
REMARK    5  A    between atoms: N_13  and  C_14 
REMARK    6  A    between atoms: C_14  and  C_15 
REMARK    7  A    between atoms: C_15  and  C_16 
ROOT
HETATM    1  C   UNL     1      -1.439   6.940 -32.263  1.00  0.00     0.040 C 
HETATM    2  C   UNL     1      -1.604   5.685 -32.732  1.00  0.00     0.113 C 
HETATM    3  C   UNL     1      -1.487   5.448 -34.131  1.00  0.00     0.105 C 
HETATM    4  N   UNL     1      -1.431   5.244 -35.272  1.00  0.00    -0.191 NA
ENDROOT
BRANCH   2   5
HETATM    5  C   UNL     1      -1.889   4.515 -31.846  1.00  0.00     0.262 C 
HETATM    6  N   UNL     1      -3.092   3.881 -32.081  1.00  0.00    -0.356 N 
HETATM    7  H   UNL     1      -3.646   4.114 -32.897  1.00  0.00     0.162 HD
HETATM    8  O   UNL     1      -1.114   4.162 -30.965  1.00  0.00    -0.267 OA
BRANCH   6   9
HETATM    9  C   UNL     1      -3.466   2.696 -31.324  1.00  0.00     0.127 C 
BRANCH   9  10
HETATM   10  C   UNL     1      -4.615   1.935 -31.986  1.00  0.00     0.060 C 
BRANCH  10  11
HETATM   11  C   UNL     1      -4.254   0.520 -32.303  1.00  0.00    -0.029 A 
HETATM   12  C   UNL     1      -4.926  -0.354 -33.217  1.00  0.00    -0.002 A 
HETATM   13  C   UNL     1      -4.246  -1.573 -33.205  1.00  0.00     0.042 A 
HETATM   14  C   UNL     1      -6.050  -0.222 -34.057  1.00  0.00     0.014 A 
HETATM   15  C   UNL     1      -4.633  -2.665 -33.991  1.00  0.00     0.030 A 
HETATM   16  N   UNL     1      -3.205  -1.448 -32.316  1.00  0.00    -0.365 N 
HETATM   17  C   UNL     1      -5.749  -2.507 -34.817  1.00  0.00     0.002 A 
HETATM   18  C   UNL     1      -6.450  -1.304 -34.851  1.00  0.00     0.001 A 
HETATM   19  H   UNL     1      -2.543  -2.180 -32.104  1.00  0.00     0.165 HD
HETATM   20  C   UNL     1      -3.200  -0.194 -31.767  1.00  0.00     0.096 A 
ENDBRANCH  10  11
ENDBRANCH   9  10
ENDBRANCH   6   9
ENDBRANCH   2   5
BRANCH   1  21
HETATM   21  C   UNL     1      -1.545   7.432 -30.878  1.00  0.00    -0.030 A 
HETATM   22  C   UNL     1      -0.369   7.577 -30.129  1.00  0.00     0.033 A 
HETATM   23  C   UNL     1      -0.412   8.089 -28.829  1.00  0.00     0.047 A 
HETATM   24  C   UNL     1      -1.635   8.455 -28.272  1.00  0.00     0.116 A 
HETATM   25 BR   UNL     1       1.210   8.267 -27.868  1.00  0.00    -0.048 Br
HETATM   26  C   UNL     1      -2.820   8.309 -29.003  1.00  0.00     0.103 A 
HETATM   27  C   UNL     1      -2.767   7.833 -30.315  1.00  0.00     0.051 A 
BRANCH  24  28
HETATM   28  O   UNL     1      -1.702   8.955 -26.997  1.00  0.00    -0.357 OA
HETATM   29  H   UNL     1      -2.164   8.272 -26.474  1.00  0.00     0.218 HD
ENDBRANCH  24  28
BRANCH  26  30
HETATM   30  O   UNL     1      -3.966   8.691 -28.348  1.00  0.00    -0.353 OA
HETATM   31  C   UNL     1      -5.006   9.197 -29.183  1.00  0.00     0.210 C 
ENDBRANCH  26  30
ENDBRANCH   1  21
TORSDOF 7
ENDMDL
MODEL 4
REMARK VINA RESULT:      -7.8      3.519      6.821
REMARK  7 active torsions:
REMARK  status: ('A' for Active; 'I' for Inactive)
REMARK    1  A    between atoms: O_2  and  C_3 
REMARK    2  A    between atoms: C_4  and  O_5 
REMARK    3  A    between atoms: C_9  and  C_10 
REMARK    4  A    between atoms: C_11  and  C_12 
REMARK       I    between atoms: C_12  and  N_13 
REMARK    5  A    between atoms: N_13  and  C_14 
REMARK    6  A    between atoms: C_14  and  C_15 
REMARK    7  A    between atoms: C_15  and  C_16 
ROOT
HETATM    1  C   UNL     1      -7.534   5.114 -33.662  1.00  0.00     0.040 C 
HETATM    2  C   UNL     1      -8.429   4.120 -33.844  1.00  0.00     0.113 C 
HETATM    3  C   UNL     1      -9.647   4.401 -34.526  1.00  0.00     0.105 C 
HETATM    4  N   UNL     1     -10.660   4.622 -35.047  1.00  0.00    -0.191 NA
ENDROOT
BRANCH   2   5
HETATM    5  C   UNL     1      -8.196   2.719 -33.379  1.00  0.00     0.262 C 
HETATM    6  N   UNL     1      -8.576   1.735 -34.269  1.00  0.00    -0.356 N 
HETATM    7  H   UNL     1      -8.843   1.973 -35.217  1.00  0.00     0.162 HD
HETATM    8  O   UNL     1      -7.720   2.468 -32.278  1.00  0.00    -0.267 OA
BRANCH   6   9
HETATM    9  C   UNL     1      -8.356   0.330 -33.961  1.00  0.00     0.127 C 
BRANCH   9  10
HETATM   10  C   UNL     1      -7.536  -0.370 -35.045  1.00  0.00     0.060 C 
BRANCH  10  11
HETATM   11  C   UNL     1      -6.301  -1.012 -34.502  1.00  0.00    -0.029 A 
HETATM   12  C   UNL     1      -5.957  -2.401 -34.559  1.00  0.00    -0.002 A 
HETATM   13  C   UNL     1      -4.716  -2.549 -33.939  1.00  0.00     0.042 A 
HETATM   14  C   UNL     1      -6.586  -3.548 -35.085  1.00  0.00     0.014 A 
HETATM   15  C   UNL     1      -4.072  -3.786 -33.818  1.00  0.00     0.030 A 
HETATM   16  N   UNL     1      -4.322  -1.302 -33.516  1.00  0.00    -0.365 N 
HETATM   17  C   UNL     1      -4.715  -4.908 -34.349  1.00  0.00     0.002 A 
HETATM   18  C   UNL     1      -5.955  -4.793 -34.973  1.00  0.00     0.001 A 
HETATM   19  H   UNL     1      -3.457  -1.109 -33.031  1.00  0.00     0.165 HD
HETATM   20  C   UNL     1      -5.267  -0.369 -33.849  1.00  0.00     0.096 A 
ENDBRANCH  10  11
ENDBRANCH   9  10
ENDBRANCH   6   9
ENDBRANCH   2   5
BRANCH   1  21
HETATM   21  C   UNL     1      -6.236   5.076 -32.967  1.00  0.00    -0.030 A 
HETATM   22  C   UNL     1      -6.168   5.555 -31.651  1.00  0.00     0.033 A 
HETATM   23  C   UNL     1      -4.971   5.493 -30.932  1.00  0.00     0.047 A 
HETATM   24  C   UNL     1      -3.834   4.953 -31.530  1.00  0.00     0.116 A 
HETATM   25 BR   UNL     1      -4.943   6.151 -29.156  1.00  0.00    -0.048 Br
HETATM   26  C   UNL     1      -3.882   4.478 -32.845  1.00  0.00     0.103 A 
HETATM   27  C   UNL     1      -5.090   4.507 -33.546  1.00  0.00     0.051 A 
BRANCH  24  28
HETATM   28  O   UNL     1      -2.649   4.886 -30.844  1.00  0.00    -0.357 OA
HETATM   29  H   UNL     1      -2.825   4.308 -30.077  1.00  0.00     0.218 HD
ENDBRANCH  24  28
BRANCH  26  30
HETATM   30  O   UNL     1      -2.698   3.979 -33.334  1.00  0.00    -0.353 OA
HETATM   31  C   UNL     1      -1.977   4.857 -34.196  1.00  0.00     0.210 C 
ENDBRANCH  26  30
ENDBRANCH   1  21
TORSDOF 7
ENDMDL
MODEL 5
REMARK VINA RESULT:      -7.8     15.531     18.034
REMARK  7 active torsions:
REMARK  status: ('A' for Active; 'I' for Inactive)
REMARK    1  A    between atoms: O_2  and  C_3 
REMARK    2  A    between atoms: C_4  and  O_5 
REMARK    3  A    between atoms: C_9  and  C_10 
REMARK    4  A    between atoms: C_11  and  C_12 
REMARK       I    between atoms: C_12  and  N_13 
REMARK    5  A    between atoms: N_13  and  C_14 
REMARK    6  A    between atoms: C_14  and  C_15 
REMARK    7  A    between atoms: C_15  and  C_16 
ROOT
HETATM    1  C   UNL     1      -0.768 -15.085 -40.363  1.00  0.00     0.040 C 
HETATM    2  C   UNL     1      -0.265 -14.430 -39.295  1.00  0.00     0.113 C 
HETATM    3  C   UNL     1       1.128 -14.525 -39.017  1.00  0.00     0.105 C 
HETATM    4  N   UNL     1       2.253 -14.622 -38.754  1.00  0.00    -0.191 NA
ENDROOT
BRANCH   2   5
HETATM    5  C   UNL     1      -1.103 -13.584 -38.391  1.00  0.00     0.262 C 
HETATM    6  N   UNL     1      -1.933 -12.687 -39.031  1.00  0.00    -0.356 N 
HETATM    7  H   UNL     1      -2.060 -12.728 -40.035  1.00  0.00     0.162 HD
HETATM    8  O   UNL     1      -1.036 -13.672 -37.170  1.00  0.00    -0.267 OA
BRANCH   6   9
HETATM    9  C   UNL     1      -2.838 -11.840 -38.268  1.00  0.00     0.127 C 
BRANCH   9  10
HETATM   10  C   UNL     1      -4.110 -12.584 -37.861  1.00  0.00     0.060 C 
BRANCH  10  11
HETATM   11  C   UNL     1      -5.190 -12.474 -38.888  1.00  0.00    -0.029 A 
HETATM   12  C   UNL     1      -6.566 -12.839 -38.730  1.00  0.00    -0.002 A 
HETATM   13  C   UNL     1      -7.212 -12.560 -39.934  1.00  0.00     0.042 A 
HETATM   14  C   UNL     1      -7.324 -13.379 -37.671  1.00  0.00     0.014 A 
HETATM   15  C   UNL     1      -8.578 -12.793 -40.135  1.00  0.00     0.030 A 
HETATM   16  N   UNL     1      -6.267 -12.050 -40.793  1.00  0.00    -0.365 N 
HETATM   17  C   UNL     1      -9.307 -13.327 -39.069  1.00  0.00     0.002 A 
HETATM   18  C   UNL     1      -8.692 -13.618 -37.854  1.00  0.00     0.001 A 
HETATM   19  H   UNL     1      -6.454 -11.760 -41.743  1.00  0.00     0.165 HD
HETATM   20  C   UNL     1      -5.047 -11.994 -40.175  1.00  0.00     0.096 A 
ENDBRANCH  10  11
ENDBRANCH   9  10
ENDBRANCH   6   9
ENDBRANCH   2   5
BRANCH   1  21
HETATM   21  C   UNL     1      -2.163 -15.165 -40.829  1.00  0.00    -0.030 A 
HETATM   22  C   UNL     1      -3.120 -15.738 -39.979  1.00  0.00     0.033 A 
HETATM   23  C   UNL     1      -4.465 -15.790 -40.356  1.00  0.00     0.047 A 
HETATM   24  C   UNL     1      -4.858 -15.271 -41.587  1.00  0.00     0.116 A 
HETATM   25 BR   UNL     1      -5.713 -16.571 -39.163  1.00  0.00    -0.048 Br
HETATM   26  C   UNL     1      -3.914 -14.702 -42.452  1.00  0.00     0.103 A 
HETATM   27  C   UNL     1      -2.578 -14.619 -42.054  1.00  0.00     0.051 A 
BRANCH  24  28
HETATM   28  O   UNL     1      -6.171 -15.314 -41.978  1.00  0.00    -0.357 OA
HETATM   29  H   UNL     1      -6.655 -15.699 -41.222  1.00  0.00     0.218 HD
ENDBRANCH  24  28
BRANCH  26  30
HETATM   30  O   UNL     1      -4.414 -14.234 -43.643  1.00  0.00    -0.353 OA
HETATM   31  C   UNL     1      -4.075 -15.008 -44.792  1.00  0.00     0.210 C 
ENDBRANCH  26  30
ENDBRANCH   1  21
TORSDOF 7
ENDMDL
MODEL 6
REMARK VINA RESULT:      -7.8      5.135      9.096
REMARK  7 active torsions:
REMARK  status: ('A' for Active; 'I' for Inactive)
REMARK    1  A    between atoms: O_2  and  C_3 
REMARK    2  A    between atoms: C_4  and  O_5 
REMARK    3  A    between atoms: C_9  and  C_10 
REMARK    4  A    between atoms: C_11  and  C_12 
REMARK       I    between atoms: C_12  and  N_13 
REMARK    5  A    between atoms: N_13  and  C_14 
REMARK    6  A    between atoms: C_14  and  C_15 
REMARK    7  A    between atoms: C_15  and  C_16 
ROOT
HETATM    1  C   UNL     1      -1.128   7.022 -32.408  1.00  0.00     0.040 C 
HETATM    2  C   UNL     1      -1.510   5.807 -32.854  1.00  0.00     0.113 C 
HETATM    3  C   UNL     1      -1.303   5.475 -34.222  1.00  0.00     0.105 C 
HETATM    4  N   UNL     1      -1.175   5.203 -35.343  1.00  0.00    -0.191 NA
ENDROOT
BRANCH   2   5
HETATM    5  C   UNL     1      -2.127   4.772 -31.969  1.00  0.00     0.262 C 
HETATM    6  N   UNL     1      -3.496   4.642 -32.086  1.00  0.00    -0.356 N 
HETATM    7  H   UNL     1      -3.996   5.113 -32.831  1.00  0.00     0.162 HD
HETATM    8  O   UNL     1      -1.462   4.104 -31.186  1.00  0.00    -0.267 OA
BRANCH   6   9
HETATM    9  C   UNL     1      -4.214   3.635 -31.320  1.00  0.00     0.127 C 
BRANCH   9  10
HETATM   10  C   UNL     1      -5.163   2.819 -32.198  1.00  0.00     0.060 C 
BRANCH  10  11
HETATM   11  C   UNL     1      -4.656   1.438 -32.458  1.00  0.00    -0.029 A 
HETATM   12  C   UNL     1      -5.289   0.424 -33.247  1.00  0.00    -0.002 A 
HETATM   13  C   UNL     1      -4.462  -0.699 -33.223  1.00  0.00     0.042 A 
HETATM   14  C   UNL     1      -6.490   0.357 -33.982  1.00  0.00     0.014 A 
HETATM   15  C   UNL     1      -4.774  -1.886 -33.898  1.00  0.00     0.030 A 
HETATM   16  N   UNL     1      -3.371  -0.384 -32.448  1.00  0.00    -0.365 N 
HETATM   17  C   UNL     1      -5.969  -1.925 -34.621  1.00  0.00     0.002 A 
HETATM   18  C   UNL     1      -6.817  -0.821 -34.663  1.00  0.00     0.001 A 
HETATM   19  H   UNL     1      -2.605  -1.014 -32.255  1.00  0.00     0.165 HD
HETATM   20  C   UNL     1      -3.476   0.899 -31.982  1.00  0.00     0.096 A 
ENDBRANCH  10  11
ENDBRANCH   9  10
ENDBRANCH   6   9
ENDBRANCH   2   5
BRANCH   1  21
HETATM   21  C   UNL     1      -1.267   7.600 -31.060  1.00  0.00    -0.030 A 
HETATM   22  C   UNL     1      -2.408   8.363 -30.774  1.00  0.00     0.033 A 
HETATM   23  C   UNL     1      -2.609   8.889 -29.495  1.00  0.00     0.047 A 
HETATM   24  C   UNL     1      -1.666   8.657 -28.496  1.00  0.00     0.116 A 
HETATM   25 BR   UNL     1      -4.174   9.906 -29.166  1.00  0.00    -0.048 Br
HETATM   26  C   UNL     1      -0.517   7.905 -28.767  1.00  0.00     0.103 A 
HETATM   27  C   UNL     1      -0.339   7.350 -30.036  1.00  0.00     0.051 A 
BRANCH  24  28
HETATM   28  O   UNL     1      -1.841   9.167 -27.236  1.00  0.00    -0.357 OA
HETATM   29  H   UNL     1      -1.275   8.624 -26.655  1.00  0.00     0.218 HD
ENDBRANCH  24  28
BRANCH  26  30
HETATM   30  O   UNL     1       0.348   7.752 -27.710  1.00  0.00    -0.353 OA
HETATM   31  C   UNL     1       1.560   8.498 -27.802  1.00  0.00     0.210 C 
ENDBRANCH  26  30
ENDBRANCH   1  21
TORSDOF 7
ENDMDL
MODEL 7
REMARK VINA RESULT:      -7.8      1.694      2.422
REMARK  7 active torsions:
REMARK  status: ('A' for Active; 'I' for Inactive)
REMARK    1  A    between atoms: O_2  and  C_3 
REMARK    2  A    between atoms: C_4  and  O_5 
REMARK    3  A    between atoms: C_9  and  C_10 
REMARK    4  A    between atoms: C_11  and  C_12 
REMARK       I    between atoms: C_12  and  N_13 
REMARK    5  A    between atoms: N_13  and  C_14 
REMARK    6  A    between atoms: C_14  and  C_15 
REMARK    7  A    between atoms: C_15  and  C_16 
ROOT
HETATM    1  C   UNL     1      -8.326   0.050 -33.485  1.00  0.00     0.040 C 
HETATM    2  C   UNL     1      -8.453   1.241 -32.864  1.00  0.00     0.113 C 
HETATM    3  C   UNL     1      -9.723   1.885 -32.852  1.00  0.00     0.105 C 
HETATM    4  N   UNL     1     -10.742   2.439 -32.864  1.00  0.00    -0.191 NA
ENDROOT
BRANCH   2   5
HETATM    5  C   UNL     1      -7.320   1.920 -32.163  1.00  0.00     0.262 C 
HETATM    6  N   UNL     1      -6.682   2.900 -32.895  1.00  0.00    -0.356 N 
HETATM    7  H   UNL     1      -7.070   3.223 -33.774  1.00  0.00     0.162 HD
HETATM    8  O   UNL     1      -6.976   1.609 -31.029  1.00  0.00    -0.267 OA
BRANCH   6   9
HETATM    9  C   UNL     1      -5.596   3.674 -32.311  1.00  0.00     0.127 C 
BRANCH   9  10
HETATM   10  C   UNL     1      -4.240   3.296 -32.908  1.00  0.00     0.060 C 
BRANCH  10  11
HETATM   11  C   UNL     1      -3.477   4.487 -33.390  1.00  0.00    -0.029 A 
HETATM   12  C   UNL     1      -2.393   5.141 -32.720  1.00  0.00    -0.002 A 
HETATM   13  C   UNL     1      -1.977   6.196 -33.532  1.00  0.00     0.042 A 
HETATM   14  C   UNL     1      -1.724   4.932 -31.497  1.00  0.00     0.014 A 
HETATM   15  C   UNL     1      -0.925   7.052 -33.184  1.00  0.00     0.030 A 
HETATM   16  N   UNL     1      -2.778   6.189 -34.649  1.00  0.00    -0.365 N 
HETATM   17  C   UNL     1      -0.277   6.822 -31.968  1.00  0.00     0.002 A 
HETATM   18  C   UNL     1      -0.669   5.778 -31.134  1.00  0.00     0.001 A 
HETATM   19  H   UNL     1      -2.702   6.847 -35.412  1.00  0.00     0.165 HD
HETATM   20  C   UNL     1      -3.684   5.166 -34.575  1.00  0.00     0.096 A 
ENDBRANCH  10  11
ENDBRANCH   9  10
ENDBRANCH   6   9
ENDBRANCH   2   5
BRANCH   1  21
HETATM   21  C   UNL     1      -7.122  -0.781 -33.657  1.00  0.00    -0.030 A 
HETATM   22  C   UNL     1      -7.262  -2.043 -34.252  1.00  0.00     0.033 A 
HETATM   23  C   UNL     1      -6.142  -2.847 -34.484  1.00  0.00     0.047 A 
HETATM   24  C   UNL     1      -4.877  -2.393 -34.117  1.00  0.00     0.116 A 
HETATM   25 BR   UNL     1      -6.392  -4.540 -35.298  1.00  0.00    -0.048 Br
HETATM   26  C   UNL     1      -4.721  -1.139 -33.513  1.00  0.00     0.103 A 
HETATM   27  C   UNL     1      -5.839  -0.324 -33.319  1.00  0.00     0.051 A 
BRANCH  24  28
HETATM   28  O   UNL     1      -3.766  -3.167 -34.331  1.00  0.00    -0.357 OA
HETATM   29  H   UNL     1      -3.806  -3.872 -33.656  1.00  0.00     0.218 HD
ENDBRANCH  24  28
BRANCH  26  30
HETATM   30  O   UNL     1      -3.431  -0.802 -33.183  1.00  0.00    -0.353 OA
HETATM   31  C   UNL     1      -3.258  -0.260 -31.875  1.00  0.00     0.210 C 
ENDBRANCH  26  30
ENDBRANCH   1  21
TORSDOF 7
ENDMDL
MODEL 8
REMARK VINA RESULT:      -7.7      3.494      7.009
REMARK  7 active torsions:
REMARK  status: ('A' for Active; 'I' for Inactive)
REMARK    1  A    between atoms: O_2  and  C_3 
REMARK    2  A    between atoms: C_4  and  O_5 
REMARK    3  A    between atoms: C_9  and  C_10 
REMARK    4  A    between atoms: C_11  and  C_12 
REMARK       I    between atoms: C_12  and  N_13 
REMARK    5  A    between atoms: N_13  and  C_14 
REMARK    6  A    between atoms: C_14  and  C_15 
REMARK    7  A    between atoms: C_15  and  C_16 
ROOT
HETATM    1  C   UNL     1      -7.139   5.376 -33.653  1.00  0.00     0.040 C 
HETATM    2  C   UNL     1      -7.976   4.319 -33.707  1.00  0.00     0.113 C 
HETATM    3  C   UNL     1      -9.286   4.499 -34.236  1.00  0.00     0.105 C 
HETATM    4  N   UNL     1     -10.368   4.637 -34.630  1.00  0.00    -0.191 NA
ENDROOT
BRANCH   2   5
HETATM    5  C   UNL     1      -7.589   2.948 -33.253  1.00  0.00     0.262 C 
HETATM    6  N   UNL     1      -8.364   1.924 -33.756  1.00  0.00    -0.356 N 
HETATM    7  H   UNL     1      -9.036   2.100 -34.494  1.00  0.00     0.162 HD
HETATM    8  O   UNL     1      -6.661   2.758 -32.476  1.00  0.00    -0.267 OA
BRANCH   6   9
HETATM    9  C   UNL     1      -8.061   0.537 -33.434  1.00  0.00     0.127 C 
BRANCH   9  10
HETATM   10  C   UNL     1      -7.474  -0.211 -34.631  1.00  0.00     0.060 C 
BRANCH  10  11
HETATM   11  C   UNL     1      -6.226  -0.955 -34.282  1.00  0.00    -0.029 A 
HETATM   12  C   UNL     1      -5.990  -2.359 -34.441  1.00  0.00    -0.002 A 
HETATM   13  C   UNL     1      -4.693  -2.617 -33.997  1.00  0.00     0.042 A 
HETATM   14  C   UNL     1      -6.760  -3.437 -34.924  1.00  0.00     0.014 A 
HETATM   15  C   UNL     1      -4.125  -3.896 -34.012  1.00  0.00     0.030 A 
HETATM   16  N   UNL     1      -4.161  -1.419 -33.580  1.00  0.00    -0.365 N 
HETATM   17  C   UNL     1      -4.909  -4.947 -34.498  1.00  0.00     0.002 A 
HETATM   18  C   UNL     1      -6.208  -4.724 -34.947  1.00  0.00     0.001 A 
HETATM   19  H   UNL     1      -3.229  -1.306 -33.207  1.00  0.00     0.165 HD
HETATM   20  C   UNL     1      -5.074  -0.413 -33.747  1.00  0.00     0.096 A 
ENDBRANCH  10  11
ENDBRANCH   9  10
ENDBRANCH   6   9
ENDBRANCH   2   5
BRANCH   1  21
HETATM   21  C   UNL     1      -5.766   5.444 -33.123  1.00  0.00    -0.030 A 
HETATM   22  C   UNL     1      -4.698   5.248 -34.010  1.00  0.00     0.033 A 
HETATM   23  C   UNL     1      -3.377   5.353 -33.566  1.00  0.00     0.047 A 
HETATM   24  C   UNL     1      -3.119   5.652 -32.230  1.00  0.00     0.116 A 
HETATM   25 BR   UNL     1      -1.975   5.084 -34.812  1.00  0.00    -0.048 Br
HETATM   26  C   UNL     1      -4.173   5.842 -31.329  1.00  0.00     0.103 A 
HETATM   27  C   UNL     1      -5.492   5.773 -31.786  1.00  0.00     0.051 A 
BRANCH  24  28
HETATM   28  O   UNL     1      -1.831   5.756 -31.772  1.00  0.00    -0.357 OA
HETATM   29  H   UNL     1      -1.813   6.568 -31.230  1.00  0.00     0.218 HD
ENDBRANCH  24  28
BRANCH  26  30
HETATM   30  O   UNL     1      -3.800   6.119 -30.036  1.00  0.00    -0.353 OA
HETATM   31  C   UNL     1      -4.559   7.138 -29.388  1.00  0.00     0.210 C 
ENDBRANCH  26  30
ENDBRANCH   1  21
TORSDOF 7
ENDMDL
MODEL 9
REMARK VINA RESULT:      -7.7      3.729      6.642
REMARK  7 active torsions:
REMARK  status: ('A' for Active; 'I' for Inactive)
REMARK    1  A    between atoms: O_2  and  C_3 
REMARK    2  A    between atoms: C_4  and  O_5 
REMARK    3  A    between atoms: C_9  and  C_10 
REMARK    4  A    between atoms: C_11  and  C_12 
REMARK       I    between atoms: C_12  and  N_13 
REMARK    5  A    between atoms: N_13  and  C_14 
REMARK    6  A    between atoms: C_14  and  C_15 
REMARK    7  A    between atoms: C_15  and  C_16 
ROOT
HETATM    1  C   UNL     1      -7.409   4.572 -33.996  1.00  0.00     0.040 C 
HETATM    2  C   UNL     1      -6.205   4.566 -33.387  1.00  0.00     0.113 C 
HETATM    3  C   UNL     1      -5.081   5.111 -34.069  1.00  0.00     0.105 C 
HETATM    4  N   UNL     1      -4.148   5.518 -34.625  1.00  0.00    -0.191 NA
ENDROOT
BRANCH   2   5
HETATM    5  C   UNL     1      -5.992   4.026 -32.009  1.00  0.00     0.262 C 
HETATM    6  N   UNL     1      -5.756   2.669 -31.941  1.00  0.00    -0.356 N 
HETATM    7  H   UNL     1      -5.590   2.132 -32.784  1.00  0.00     0.162 HD
HETATM    8  O   UNL     1      -6.044   4.741 -31.015  1.00  0.00    -0.267 OA
BRANCH   6   9
HETATM    9  C   UNL     1      -5.481   2.026 -30.665  1.00  0.00     0.127 C 
BRANCH   9  10
HETATM   10  C   UNL     1      -5.935   0.567 -30.650  1.00  0.00     0.060 C 
BRANCH  10  11
HETATM   11  C   UNL     1      -5.076  -0.307 -31.506  1.00  0.00    -0.029 A 
HETATM   12  C   UNL     1      -5.485  -1.041 -32.666  1.00  0.00    -0.002 A 
HETATM   13  C   UNL     1      -4.361  -1.708 -33.154  1.00  0.00     0.042 A 
HETATM   14  C   UNL     1      -6.708  -1.199 -33.350  1.00  0.00     0.014 A 
HETATM   15  C   UNL     1      -4.397  -2.524 -34.291  1.00  0.00     0.030 A 
HETATM   16  N   UNL     1      -3.311  -1.397 -32.323  1.00  0.00    -0.365 N 
HETATM   17  C   UNL     1      -5.621  -2.662 -34.952  1.00  0.00     0.002 A 
HETATM   18  C   UNL     1      -6.762  -2.011 -34.489  1.00  0.00     0.001 A 
HETATM   19  H   UNL     1      -2.369  -1.743 -32.437  1.00  0.00     0.165 HD
HETATM   20  C   UNL     1      -3.729  -0.555 -31.328  1.00  0.00     0.096 A 
ENDBRANCH  10  11
ENDBRANCH   9  10
ENDBRANCH   6   9
ENDBRANCH   2   5
BRANCH   1  21
HETATM   21  C   UNL     1      -8.695   4.041 -33.512  1.00  0.00    -0.030 A 
HETATM   22  C   UNL     1      -9.572   4.914 -32.852  1.00  0.00     0.033 A 
HETATM   23  C   UNL     1     -10.825   4.470 -32.419  1.00  0.00     0.047 A 
HETATM   24  C   UNL     1     -11.204   3.148 -32.643  1.00  0.00     0.116 A 
HETATM   25 BR   UNL     1     -11.969   5.696 -31.539  1.00  0.00    -0.048 Br
HETATM   26  C   UNL     1     -10.338   2.261 -33.292  1.00  0.00     0.103 A 
HETATM   27  C   UNL     1      -9.102   2.720 -33.756  1.00  0.00     0.051 A 
BRANCH  24  28
HETATM   28  O   UNL     1     -12.426   2.690 -32.224  1.00  0.00    -0.357 OA
HETATM   29  H   UNL     1     -13.077   3.099 -32.827  1.00  0.00     0.218 HD
ENDBRANCH  24  28
BRANCH  26  30
HETATM   30  O   UNL     1     -10.812   0.981 -33.446  1.00  0.00    -0.353 OA
HETATM   31  C   UNL     1     -10.085  -0.027 -32.747  1.00  0.00     0.210 C 
ENDBRANCH  26  30
ENDBRANCH   1  21
TORSDOF 7
ENDMDL
MODEL 10
REMARK VINA RESULT:      -7.7      4.502      8.651
REMARK  7 active torsions:
REMARK  status: ('A' for Active; 'I' for Inactive)
REMARK    1  A    between atoms: O_2  and  C_3 
REMARK    2  A    between atoms: C_4  and  O_5 
REMARK    3  A    between atoms: C_9  and  C_10 
REMARK    4  A    between atoms: C_11  and  C_12 
REMARK       I    between atoms: C_12  and  N_13 
REMARK    5  A    between atoms: N_13  and  C_14 
REMARK    6  A    between atoms: C_14  and  C_15 
REMARK    7  A    between atoms: C_15  and  C_16 
ROOT
HETATM    1  C   UNL     1      -2.497   7.180 -31.239  1.00  0.00     0.040 C 
HETATM    2  C   UNL     1      -2.020   6.184 -32.015  1.00  0.00     0.113 C 
HETATM    3  C   UNL     1      -1.517   6.495 -33.310  1.00  0.00     0.105 C 
HETATM    4  N   UNL     1      -1.137   6.727 -34.381  1.00  0.00    -0.191 NA
ENDROOT
BRANCH   2   5
HETATM    5  C   UNL     1      -1.975   4.757 -31.573  1.00  0.00     0.262 C 
HETATM    6  N   UNL     1      -3.065   3.995 -31.940  1.00  0.00    -0.356 N 
HETATM    7  H   UNL     1      -3.751   4.358 -32.592  1.00  0.00     0.162 HD
HETATM    8  O   UNL     1      -1.044   4.308 -30.914  1.00  0.00    -0.267 OA
BRANCH   6   9
HETATM    9  C   UNL     1      -3.122   2.577 -31.618  1.00  0.00     0.127 C 
BRANCH   9  10
HETATM   10  C   UNL     1      -4.420   1.932 -32.103  1.00  0.00     0.060 C 
BRANCH  10  11
HETATM   11  C   UNL     1      -4.251   0.484 -32.429  1.00  0.00    -0.029 A 
HETATM   12  C   UNL     1      -5.056  -0.295 -33.322  1.00  0.00    -0.002 A 
HETATM   13  C   UNL     1      -4.535  -1.590 -33.330  1.00  0.00     0.042 A 
HETATM   14  C   UNL     1      -6.178  -0.018 -34.129  1.00  0.00     0.014 A 
HETATM   15  C   UNL     1      -5.080  -2.622 -34.104  1.00  0.00     0.030 A 
HETATM   16  N   UNL     1      -3.461  -1.601 -32.473  1.00  0.00    -0.365 N 
HETATM   17  C   UNL     1      -6.191  -2.320 -34.896  1.00  0.00     0.002 A 
HETATM   18  C   UNL     1      -6.735  -1.038 -34.910  1.00  0.00     0.001 A 
HETATM   19  H   UNL     1      -2.890  -2.412 -32.281  1.00  0.00     0.165 HD
HETATM   20  C   UNL     1      -3.280  -0.359 -31.924  1.00  0.00     0.096 A 
ENDBRANCH  10  11
ENDBRANCH   9  10
ENDBRANCH   6   9
ENDBRANCH   2   5
BRANCH   1  21
HETATM   21  C   UNL     1      -3.093   7.102 -29.894  1.00  0.00    -0.030 A 
HETATM   22  C   UNL     1      -4.464   6.827 -29.786  1.00  0.00     0.033 A 
HETATM   23  C   UNL     1      -5.064   6.693 -28.531  1.00  0.00     0.047 A 
HETATM   24  C   UNL     1      -4.296   6.838 -27.378  1.00  0.00     0.116 A 
HETATM   25 BR   UNL     1      -6.919   6.314 -28.447  1.00  0.00    -0.048 Br
HETATM   26  C   UNL     1      -2.928   7.121 -27.468  1.00  0.00     0.103 A 
HETATM   27  C   UNL     1      -2.325   7.217 -28.725  1.00  0.00     0.051 A 
BRANCH  24  28
HETATM   28  O   UNL     1      -4.865   6.714 -26.137  1.00  0.00    -0.357 OA
HETATM   29  H   UNL     1      -5.802   6.492 -26.302  1.00  0.00     0.218 HD
ENDBRANCH  24  28
BRANCH  26  30
HETATM   30  O   UNL     1      -2.274   7.255 -26.267  1.00  0.00    -0.353 OA
HETATM   31  C   UNL     1      -1.327   6.231 -25.971  1.00  0.00     0.210 C 
ENDBRANCH  26  30
ENDBRANCH   1  21
TORSDOF 7
ENDMDL
