MODEL 1
REMARK VINA RESULT:      -9.0      0.000      0.000
REMARK  8 active torsions:
REMARK  status: ('A' for Active; 'I' for Inactive)
REMARK    1  A    between atoms: C_2  and  O_3 
REMARK    2  A    between atoms: O_3  and  C_4 
REMARK    3  A    between atoms: C_5  and  N_6 
REMARK       I    between atoms: N_6  and  C_7 
REMARK    4  A    between atoms: C_7  and  C_8 
REMARK    5  A    between atoms: N_11  and  C_12 
REMARK    6  A    between atoms: C_12  and  C_13 
REMARK       I    between atoms: C_13  and  N_14 
REMARK    7  A    between atoms: N_14  and  C_15 
REMARK    8  A    between atoms: C_24  and  N_25 
ROOT
HETATM    1  C   UNL     1      -3.278   4.999 -33.856  1.00  0.00     0.187 C 
HETATM    2  N   UNL     1      -4.420   5.556 -34.391  1.00  0.00    -0.150 NA
HETATM    3  N   UNL     1      -5.470   4.954 -33.849  1.00  0.00     0.007 NA
HETATM    4  N   UNL     1      -4.999   3.995 -33.028  1.00  0.00    -0.248 N 
HETATM    5  C   UNL     1      -3.635   4.059 -32.903  1.00  0.00     0.151 C 
ENDROOT
BRANCH   1   6
HETATM    6  C   UNL     1      -1.935   5.385 -34.240  1.00  0.00     0.280 C 
HETATM    7  N   UNL     1      -1.090   5.972 -33.323  1.00  0.00    -0.319 N 
HETATM    8  H   UNL     1      -0.122   5.858 -33.588  1.00  0.00     0.169 HD
HETATM    9  O   UNL     1      -1.486   5.129 -35.361  1.00  0.00    -0.265 OA
BRANCH   7  10
HETATM   10  C   UNL     1      -1.339   6.760 -32.178  1.00  0.00     0.068 A 
HETATM   11  C   UNL     1      -1.245   6.342 -30.842  1.00  0.00     0.095 A 
HETATM   12  C   UNL     1      -1.516   7.229 -29.792  1.00  0.00     0.039 A 
HETATM   13  C   UNL     1      -1.951   8.523 -30.058  1.00  0.00     0.003 A 
HETATM   14  C   UNL     1      -2.110   8.936 -31.376  1.00  0.00     0.002 A 
HETATM   15  C   UNL     1      -1.809   8.059 -32.427  1.00  0.00     0.032 A 
BRANCH  11  16
HETATM   16  O   UNL     1      -0.917   5.066 -30.477  1.00  0.00    -0.349 OA
BRANCH  16  17
HETATM   17  C   UNL     1       0.333   5.017 -29.780  1.00  0.00     0.171 C 
HETATM   18  C   UNL     1       1.419   4.749 -30.807  1.00  0.00     0.034 C 
ENDBRANCH  16  17
ENDBRANCH  11  16
ENDBRANCH   7  10
ENDBRANCH   1   6
BRANCH   5  19
HETATM   19  N   UNL     1      -2.914   3.266 -32.072  1.00  0.00    -0.382 N 
HETATM   20  H   UNL     1      -2.023   3.567 -31.666  1.00  0.00     0.157 HD
HETATM   21  H   UNL     1      -2.933   2.257 -32.231  1.00  0.00     0.157 HD
ENDBRANCH   5  19
BRANCH   4  22
HETATM   22  C   UNL     1      -5.899   2.979 -32.548  1.00  0.00     0.251 C 
BRANCH  22  23
HETATM   23  C   UNL     1      -5.986   1.811 -33.496  1.00  0.00     0.241 C 
HETATM   24  N   UNL     1      -5.415   0.651 -33.000  1.00  0.00    -0.326 N 
HETATM   25  H   UNL     1      -4.744   0.749 -32.244  1.00  0.00     0.169 HD
HETATM   26  O   UNL     1      -6.526   1.932 -34.593  1.00  0.00    -0.271 OA
BRANCH  24  27
HETATM   27  C   UNL     1      -5.608  -0.653 -33.501  1.00  0.00     0.037 A 
HETATM   28  C   UNL     1      -4.559  -1.518 -33.812  1.00  0.00     0.072 A 
HETATM   29  C   UNL     1      -4.826  -2.760 -34.385  1.00  0.00     0.124 A 
HETATM   30  F   UNL     1      -3.795  -3.553 -34.713  1.00  0.00    -0.205 F 
HETATM   31  C   UNL     1      -6.133  -3.181 -34.640  1.00  0.00    -0.023 A 
HETATM   32  C   UNL     1      -6.396  -4.496 -35.305  1.00  0.00     0.051 C 
HETATM   33  C   UNL     1      -7.184  -2.314 -34.326  1.00  0.00     0.012 A 
HETATM   34  C   UNL     1      -6.923  -1.060 -33.764  1.00  0.00     0.030 A 
ENDBRANCH  24  27
ENDBRANCH  22  23
ENDBRANCH   4  22
TORSDOF 8
ENDMDL
MODEL 2
REMARK VINA RESULT:      -8.7      1.328      2.459
REMARK  8 active torsions:
REMARK  status: ('A' for Active; 'I' for Inactive)
REMARK    1  A    between atoms: C_2  and  O_3 
REMARK    2  A    between atoms: O_3  and  C_4 
REMARK    3  A    between atoms: C_5  and  N_6 
REMARK       I    between atoms: N_6  and  C_7 
REMARK    4  A    between atoms: C_7  and  C_8 
REMARK    5  A    between atoms: N_11  and  C_12 
REMARK    6  A    between atoms: C_12  and  C_13 
REMARK       I    between atoms: C_13  and  N_14 
REMARK    7  A    between atoms: N_14  and  C_15 
REMARK    8  A    between atoms: C_24  and  N_25 
ROOT
HETATM    1  C   UNL     1      -2.863   4.257 -33.243  1.00  0.00     0.187 C 
HETATM    2  N   UNL     1      -2.454   3.386 -32.255  1.00  0.00    -0.150 NA
HETATM    3  N   UNL     1      -3.528   2.784 -31.761  1.00  0.00     0.007 NA
HETATM    4  N   UNL     1      -4.601   3.307 -32.387  1.00  0.00    -0.248 N 
HETATM    5  C   UNL     1      -4.234   4.147 -33.407  1.00  0.00     0.151 C 
ENDROOT
BRANCH   1   6
HETATM    6  C   UNL     1      -1.963   5.117 -33.984  1.00  0.00     0.280 C 
HETATM    7  N   UNL     1      -0.930   5.765 -33.339  1.00  0.00    -0.319 N 
HETATM    8  H   UNL     1      -0.195   6.018 -33.983  1.00  0.00     0.169 HD
HETATM    9  O   UNL     1      -2.041   5.230 -35.211  1.00  0.00    -0.265 OA
BRANCH   7  10
HETATM   10  C   UNL     1      -0.779   6.207 -32.007  1.00  0.00     0.068 A 
HETATM   11  C   UNL     1      -1.412   7.313 -31.419  1.00  0.00     0.095 A 
HETATM   12  C   UNL     1      -1.177   7.645 -30.078  1.00  0.00     0.039 A 
HETATM   13  C   UNL     1      -0.258   6.922 -29.324  1.00  0.00     0.003 A 
HETATM   14  C   UNL     1       0.425   5.861 -29.909  1.00  0.00     0.002 A 
HETATM   15  C   UNL     1       0.168   5.510 -31.240  1.00  0.00     0.032 A 
BRANCH  11  16
HETATM   16  O   UNL     1      -2.259   8.142 -32.100  1.00  0.00    -0.349 OA
BRANCH  16  17
HETATM   17  C   UNL     1      -3.428   8.452 -31.334  1.00  0.00     0.171 C 
HETATM   18  C   UNL     1      -4.460   7.373 -31.616  1.00  0.00     0.034 C 
ENDBRANCH  16  17
ENDBRANCH  11  16
ENDBRANCH   7  10
ENDBRANCH   1   6
BRANCH   5  19
HETATM   19  N   UNL     1      -5.114   4.738 -34.253  1.00  0.00    -0.382 N 
HETATM   20  H   UNL     1      -4.861   5.000 -35.211  1.00  0.00     0.157 HD
HETATM   21  H   UNL     1      -5.805   5.380 -33.858  1.00  0.00     0.157 HD
ENDBRANCH   5  19
BRANCH   4  22
HETATM   22  C   UNL     1      -5.913   3.076 -31.840  1.00  0.00     0.251 C 
BRANCH  22  23
HETATM   23  C   UNL     1      -6.393   1.672 -32.106  1.00  0.00     0.241 C 
HETATM   24  N   UNL     1      -5.940   1.149 -33.305  1.00  0.00    -0.326 N 
HETATM   25  H   UNL     1      -5.624   1.808 -34.011  1.00  0.00     0.169 HD
HETATM   26  O   UNL     1      -7.115   1.093 -31.297  1.00  0.00    -0.271 OA
BRANCH  24  27
HETATM   27  C   UNL     1      -5.955  -0.211 -33.680  1.00  0.00     0.037 A 
HETATM   28  C   UNL     1      -4.852  -1.054 -33.550  1.00  0.00     0.072 A 
HETATM   29  C   UNL     1      -4.917  -2.364 -34.022  1.00  0.00     0.124 A 
HETATM   30  F   UNL     1      -3.827  -3.139 -33.921  1.00  0.00    -0.205 F 
HETATM   31  C   UNL     1      -6.076  -2.871 -34.610  1.00  0.00    -0.023 A 
HETATM   32  C   UNL     1      -6.108  -4.264 -35.160  1.00  0.00     0.051 C 
HETATM   33  C   UNL     1      -7.182  -2.026 -34.739  1.00  0.00     0.012 A 
HETATM   34  C   UNL     1      -7.121  -0.705 -34.280  1.00  0.00     0.030 A 
ENDBRANCH  24  27
ENDBRANCH  22  23
ENDBRANCH   4  22
TORSDOF 8
ENDMDL
MODEL 3
REMARK VINA RESULT:      -8.6      3.437      5.262
REMARK  8 active torsions:
REMARK  status: ('A' for Active; 'I' for Inactive)
REMARK    1  A    between atoms: C_2  and  O_3 
REMARK    2  A    between atoms: O_3  and  C_4 
REMARK    3  A    between atoms: C_5  and  N_6 
REMARK       I    between atoms: N_6  and  C_7 
REMARK    4  A    between atoms: C_7  and  C_8 
REMARK    5  A    between atoms: N_11  and  C_12 
REMARK    6  A    between atoms: C_12  and  C_13 
REMARK       I    between atoms: C_13  and  N_14 
REMARK    7  A    between atoms: N_14  and  C_15 
REMARK    8  A    between atoms: C_24  and  N_25 
ROOT
HETATM    1  C   UNL     1      -8.373   3.295 -31.759  1.00  0.00     0.187 C 
HETATM    2  N   UNL     1      -8.248   4.020 -32.926  1.00  0.00    -0.150 NA
HETATM    3  N   UNL     1      -8.683   3.270 -33.929  1.00  0.00     0.007 NA
HETATM    4  N   UNL     1      -9.023   2.072 -33.413  1.00  0.00    -0.248 N 
HETATM    5  C   UNL     1      -8.961   2.074 -32.043  1.00  0.00     0.151 C 
ENDROOT
BRANCH   1   6
HETATM    6  C   UNL     1      -7.962   3.784 -30.458  1.00  0.00     0.280 C 
HETATM    7  N   UNL     1      -6.651   3.661 -30.051  1.00  0.00    -0.319 N 
HETATM    8  H   UNL     1      -6.425   4.332 -29.330  1.00  0.00     0.169 HD
HETATM    9  O   UNL     1      -8.745   4.389 -29.719  1.00  0.00    -0.265 OA
BRANCH   7  10
HETATM   10  C   UNL     1      -5.642   2.730 -30.381  1.00  0.00     0.068 A 
HETATM   11  C   UNL     1      -4.490   2.985 -31.141  1.00  0.00     0.095 A 
HETATM   12  C   UNL     1      -3.560   1.969 -31.395  1.00  0.00     0.039 A 
HETATM   13  C   UNL     1      -3.797   0.670 -30.956  1.00  0.00     0.003 A 
HETATM   14  C   UNL     1      -4.964   0.386 -30.255  1.00  0.00     0.002 A 
HETATM   15  C   UNL     1      -5.880   1.408 -29.974  1.00  0.00     0.032 A 
BRANCH  11  16
HETATM   16  O   UNL     1      -4.212   4.202 -31.696  1.00  0.00    -0.349 OA
BRANCH  16  17
HETATM   17  C   UNL     1      -4.646   4.277 -33.058  1.00  0.00     0.171 C 
HETATM   18  C   UNL     1      -4.244   5.640 -33.593  1.00  0.00     0.034 C 
ENDBRANCH  16  17
ENDBRANCH  11  16
ENDBRANCH   7  10
ENDBRANCH   1   6
BRANCH   5  19
HETATM   19  N   UNL     1      -9.334   1.025 -31.269  1.00  0.00    -0.382 N 
HETATM   20  H   UNL     1      -8.712   0.232 -31.086  1.00  0.00     0.157 HD
HETATM   21  H   UNL     1     -10.315   0.737 -31.286  1.00  0.00     0.157 HD
ENDBRANCH   5  19
BRANCH   4  22
HETATM   22  C   UNL     1      -9.229   0.959 -34.303  1.00  0.00     0.251 C 
BRANCH  22  23
HETATM   23  C   UNL     1      -7.932   0.285 -34.670  1.00  0.00     0.241 C 
HETATM   24  N   UNL     1      -7.528  -0.675 -33.758  1.00  0.00    -0.326 N 
HETATM   25  H   UNL     1      -7.923  -0.625 -32.824  1.00  0.00     0.169 HD
HETATM   26  O   UNL     1      -7.332   0.597 -35.696  1.00  0.00    -0.271 OA
BRANCH  24  27
HETATM   27  C   UNL     1      -6.552  -1.670 -33.974  1.00  0.00     0.037 A 
HETATM   28  C   UNL     1      -6.813  -2.869 -34.638  1.00  0.00     0.072 A 
HETATM   29  C   UNL     1      -5.819  -3.841 -34.737  1.00  0.00     0.124 A 
HETATM   30  F   UNL     1      -6.111  -5.001 -35.344  1.00  0.00    -0.205 F 
HETATM   31  C   UNL     1      -4.545  -3.640 -34.202  1.00  0.00    -0.023 A 
HETATM   32  C   UNL     1      -3.508  -4.719 -34.271  1.00  0.00     0.051 C 
HETATM   33  C   UNL     1      -4.284  -2.438 -33.538  1.00  0.00     0.012 A 
HETATM   34  C   UNL     1      -5.281  -1.463 -33.422  1.00  0.00     0.030 A 
ENDBRANCH  24  27
ENDBRANCH  22  23
ENDBRANCH   4  22
TORSDOF 8
ENDMDL
MODEL 4
REMARK VINA RESULT:      -8.5      3.374      9.140
REMARK  8 active torsions:
REMARK  status: ('A' for Active; 'I' for Inactive)
REMARK    1  A    between atoms: C_2  and  O_3 
REMARK    2  A    between atoms: O_3  and  C_4 
REMARK    3  A    between atoms: C_5  and  N_6 
REMARK       I    between atoms: N_6  and  C_7 
REMARK    4  A    between atoms: C_7  and  C_8 
REMARK    5  A    between atoms: N_11  and  C_12 
REMARK    6  A    between atoms: C_12  and  C_13 
REMARK       I    between atoms: C_13  and  N_14 
REMARK    7  A    between atoms: N_14  and  C_15 
REMARK    8  A    between atoms: C_24  and  N_25 
ROOT
HETATM    1  C   UNL     1      -5.174   2.400 -31.104  1.00  0.00     0.187 C 
HETATM    2  N   UNL     1      -4.033   1.711 -30.750  1.00  0.00    -0.150 NA
HETATM    3  N   UNL     1      -2.991   2.320 -31.300  1.00  0.00     0.007 NA
HETATM    4  N   UNL     1      -3.471   3.343 -32.035  1.00  0.00    -0.248 N 
HETATM    5  C   UNL     1      -4.820   3.511 -31.851  1.00  0.00     0.151 C 
ENDROOT
BRANCH   1   6
HETATM    6  C   UNL     1      -6.511   2.003 -30.712  1.00  0.00     0.280 C 
HETATM    7  N   UNL     1      -7.098   0.888 -31.272  1.00  0.00    -0.319 N 
HETATM    8  H   UNL     1      -7.831   0.522 -30.682  1.00  0.00     0.169 HD
HETATM    9  O   UNL     1      -7.125   2.594 -29.819  1.00  0.00    -0.265 OA
BRANCH   7  10
HETATM   10  C   UNL     1      -6.925   0.258 -32.523  1.00  0.00     0.068 A 
HETATM   11  C   UNL     1      -5.979  -0.731 -32.835  1.00  0.00     0.095 A 
HETATM   12  C   UNL     1      -5.914  -1.282 -34.122  1.00  0.00     0.039 A 
HETATM   13  C   UNL     1      -6.742  -0.807 -35.133  1.00  0.00     0.003 A 
HETATM   14  C   UNL     1      -7.643   0.216 -34.858  1.00  0.00     0.002 A 
HETATM   15  C   UNL     1      -7.730   0.745 -33.565  1.00  0.00     0.032 A 
BRANCH  11  16
HETATM   16  O   UNL     1      -5.059  -1.198 -31.938  1.00  0.00    -0.349 OA
BRANCH  16  17
HETATM   17  C   UNL     1      -3.780  -1.403 -32.547  1.00  0.00     0.171 C 
HETATM   18  C   UNL     1      -3.180  -2.659 -31.941  1.00  0.00     0.034 C 
ENDBRANCH  16  17
ENDBRANCH  11  16
ENDBRANCH   7  10
ENDBRANCH   1   6
BRANCH   5  19
HETATM   19  N   UNL     1      -5.537   4.520 -32.404  1.00  0.00    -0.382 N 
HETATM   20  H   UNL     1      -6.270   5.017 -31.888  1.00  0.00     0.157 HD
HETATM   21  H   UNL     1      -5.749   4.471 -33.402  1.00  0.00     0.157 HD
ENDBRANCH   5  19
BRANCH   4  22
HETATM   22  C   UNL     1      -2.607   3.985 -32.991  1.00  0.00     0.251 C 
BRANCH  22  23
HETATM   23  C   UNL     1      -1.911   5.186 -32.402  1.00  0.00     0.241 C 
HETATM   24  N   UNL     1      -2.027   5.274 -31.025  1.00  0.00    -0.326 N 
HETATM   25  H   UNL     1      -2.785   4.758 -30.588  1.00  0.00     0.169 HD
HETATM   26  O   UNL     1      -1.310   5.978 -33.124  1.00  0.00    -0.271 OA
BRANCH  24  27
HETATM   27  C   UNL     1      -1.247   6.083 -30.174  1.00  0.00     0.037 A 
HETATM   28  C   UNL     1      -1.585   7.395 -29.843  1.00  0.00     0.072 A 
HETATM   29  C   UNL     1      -0.719   8.162 -29.063  1.00  0.00     0.124 A 
HETATM   30  F   UNL     1      -1.050   9.434 -28.797  1.00  0.00    -0.205 F 
HETATM   31  C   UNL     1       0.482   7.641 -28.579  1.00  0.00    -0.023 A 
HETATM   32  C   UNL     1       1.423   8.498 -27.790  1.00  0.00     0.051 C 
HETATM   33  C   UNL     1       0.819   6.326 -28.910  1.00  0.00     0.012 A 
HETATM   34  C   UNL     1      -0.038   5.554 -29.704  1.00  0.00     0.030 A 
ENDBRANCH  24  27
ENDBRANCH  22  23
ENDBRANCH   4  22
TORSDOF 8
ENDMDL
MODEL 5
REMARK VINA RESULT:      -8.4      2.056      2.724
REMARK  8 active torsions:
REMARK  status: ('A' for Active; 'I' for Inactive)
REMARK    1  A    between atoms: C_2  and  O_3 
REMARK    2  A    between atoms: O_3  and  C_4 
REMARK    3  A    between atoms: C_5  and  N_6 
REMARK       I    between atoms: N_6  and  C_7 
REMARK    4  A    between atoms: C_7  and  C_8 
REMARK    5  A    between atoms: N_11  and  C_12 
REMARK    6  A    between atoms: C_12  and  C_13 
REMARK       I    between atoms: C_13  and  N_14 
REMARK    7  A    between atoms: N_14  and  C_15 
REMARK    8  A    between atoms: C_24  and  N_25 
ROOT
HETATM    1  C   UNL     1      -4.760   5.785 -31.854  1.00  0.00     0.187 C 
HETATM    2  N   UNL     1      -4.772   5.193 -33.099  1.00  0.00    -0.150 NA
HETATM    3  N   UNL     1      -4.673   3.881 -32.937  1.00  0.00     0.007 NA
HETATM    4  N   UNL     1      -4.543   3.652 -31.616  1.00  0.00    -0.248 N 
HETATM    5  C   UNL     1      -4.711   4.798 -30.882  1.00  0.00     0.151 C 
ENDROOT
BRANCH   1   6
HETATM    6  C   UNL     1      -4.816   7.217 -31.640  1.00  0.00     0.280 C 
HETATM    7  N   UNL     1      -3.657   7.963 -31.612  1.00  0.00    -0.319 N 
HETATM    8  H   UNL     1      -3.839   8.934 -31.818  1.00  0.00     0.169 HD
HETATM    9  O   UNL     1      -5.893   7.816 -31.559  1.00  0.00    -0.265 OA
BRANCH   7  10
HETATM   10  C   UNL     1      -2.331   7.633 -31.258  1.00  0.00     0.068 A 
HETATM   11  C   UNL     1      -1.347   7.109 -32.110  1.00  0.00     0.095 A 
HETATM   12  C   UNL     1      -0.060   6.827 -31.633  1.00  0.00     0.039 A 
HETATM   13  C   UNL     1       0.245   6.999 -30.286  1.00  0.00     0.003 A 
HETATM   14  C   UNL     1      -0.736   7.459 -29.414  1.00  0.00     0.002 A 
HETATM   15  C   UNL     1      -2.014   7.769 -29.897  1.00  0.00     0.032 A 
BRANCH  11  16
HETATM   16  O   UNL     1      -1.572   6.816 -33.426  1.00  0.00    -0.349 OA
BRANCH  16  17
HETATM   17  C   UNL     1      -1.173   5.480 -33.750  1.00  0.00     0.171 C 
HETATM   18  C   UNL     1      -1.899   5.080 -35.022  1.00  0.00     0.034 C 
ENDBRANCH  16  17
ENDBRANCH  11  16
ENDBRANCH   7  10
ENDBRANCH   1   6
BRANCH   5  19
HETATM   19  N   UNL     1      -4.717   4.835 -29.527  1.00  0.00    -0.382 N 
HETATM   20  H   UNL     1      -5.535   5.142 -28.991  1.00  0.00     0.157 HD
HETATM   21  H   UNL     1      -3.845   5.065 -29.046  1.00  0.00     0.157 HD
ENDBRANCH   5  19
BRANCH   4  22
HETATM   22  C   UNL     1      -4.103   2.355 -31.169  1.00  0.00     0.251 C 
BRANCH  22  23
HETATM   23  C   UNL     1      -5.013   1.256 -31.654  1.00  0.00     0.241 C 
HETATM   24  N   UNL     1      -4.586   0.660 -32.828  1.00  0.00    -0.326 N 
HETATM   25  H   UNL     1      -3.933   1.183 -33.405  1.00  0.00     0.169 HD
HETATM   26  O   UNL     1      -6.025   0.955 -31.024  1.00  0.00    -0.271 OA
BRANCH  24  27
HETATM   27  C   UNL     1      -5.036  -0.570 -33.350  1.00  0.00     0.037 A 
HETATM   28  C   UNL     1      -4.184  -1.634 -33.648  1.00  0.00     0.072 A 
HETATM   29  C   UNL     1      -4.692  -2.788 -34.242  1.00  0.00     0.124 A 
HETATM   30  F   UNL     1      -3.843  -3.777 -34.557  1.00  0.00    -0.205 F 
HETATM   31  C   UNL     1      -6.051  -2.922 -34.533  1.00  0.00    -0.023 A 
HETATM   32  C   UNL     1      -6.568  -4.148 -35.221  1.00  0.00     0.051 C 
HETATM   33  C   UNL     1      -6.904  -1.856 -34.232  1.00  0.00     0.012 A 
HETATM   34  C   UNL     1      -6.400  -0.689 -33.648  1.00  0.00     0.030 A 
ENDBRANCH  24  27
ENDBRANCH  22  23
ENDBRANCH   4  22
TORSDOF 8
ENDMDL
MODEL 6
REMARK VINA RESULT:      -8.4      3.314      4.704
REMARK  8 active torsions:
REMARK  status: ('A' for Active; 'I' for Inactive)
REMARK    1  A    between atoms: C_2  and  O_3 
REMARK    2  A    between atoms: O_3  and  C_4 
REMARK    3  A    between atoms: C_5  and  N_6 
REMARK       I    between atoms: N_6  and  C_7 
REMARK    4  A    between atoms: C_7  and  C_8 
REMARK    5  A    between atoms: N_11  and  C_12 
REMARK    6  A    between atoms: C_12  and  C_13 
REMARK       I    between atoms: C_13  and  N_14 
REMARK    7  A    between atoms: N_14  and  C_15 
REMARK    8  A    between atoms: C_24  and  N_25 
ROOT
HETATM    1  C   UNL     1      -8.249   3.667 -32.037  1.00  0.00     0.187 C 
HETATM    2  N   UNL     1      -8.199   4.233 -33.294  1.00  0.00    -0.150 NA
HETATM    3  N   UNL     1      -8.681   3.357 -34.164  1.00  0.00     0.007 NA
HETATM    4  N   UNL     1      -8.977   2.235 -33.477  1.00  0.00    -0.248 N 
HETATM    5  C   UNL     1      -8.838   2.417 -32.125  1.00  0.00     0.151 C 
ENDROOT
BRANCH   1   6
HETATM    6  C   UNL     1      -7.771   4.323 -30.837  1.00  0.00     0.280 C 
HETATM    7  N   UNL     1      -6.510   4.880 -30.802  1.00  0.00    -0.319 N 
HETATM    8  H   UNL     1      -6.440   5.590 -30.087  1.00  0.00     0.169 HD
HETATM    9  O   UNL     1      -8.498   4.474 -29.850  1.00  0.00    -0.265 OA
BRANCH   7  10
HETATM   10  C   UNL     1      -5.321   4.568 -31.497  1.00  0.00     0.068 A 
HETATM   11  C   UNL     1      -4.505   3.445 -31.289  1.00  0.00     0.095 A 
HETATM   12  C   UNL     1      -3.347   3.249 -32.053  1.00  0.00     0.039 A 
HETATM   13  C   UNL     1      -2.949   4.202 -32.986  1.00  0.00     0.003 A 
HETATM   14  C   UNL     1      -3.712   5.351 -33.161  1.00  0.00     0.002 A 
HETATM   15  C   UNL     1      -4.886   5.532 -32.419  1.00  0.00     0.032 A 
BRANCH  11  16
HETATM   16  O   UNL     1      -4.757   2.501 -30.335  1.00  0.00    -0.349 OA
BRANCH  16  17
HETATM   17  C   UNL     1      -5.396   1.344 -30.887  1.00  0.00     0.171 C 
HETATM   18  C   UNL     1      -5.960   0.537 -29.731  1.00  0.00     0.034 C 
ENDBRANCH  16  17
ENDBRANCH  11  16
ENDBRANCH   7  10
ENDBRANCH   1   6
BRANCH   5  19
HETATM   19  N   UNL     1      -9.154   1.476 -31.200  1.00  0.00    -0.382 N 
HETATM   20  H   UNL     1      -8.655   0.583 -31.136  1.00  0.00     0.157 HD
HETATM   21  H   UNL     1     -10.133   1.380 -30.925  1.00  0.00     0.157 HD
ENDBRANCH   5  19
BRANCH   4  22
HETATM   22  C   UNL     1      -9.220   1.014 -34.201  1.00  0.00     0.251 C 
BRANCH  22  23
HETATM   23  C   UNL     1      -7.936   0.332 -34.600  1.00  0.00     0.241 C 
HETATM   24  N   UNL     1      -7.494  -0.600 -33.677  1.00  0.00    -0.326 N 
HETATM   25  H   UNL     1      -7.851  -0.523 -32.730  1.00  0.00     0.169 HD
HETATM   26  O   UNL     1      -7.379   0.615 -35.658  1.00  0.00    -0.271 OA
BRANCH  24  27
HETATM   27  C   UNL     1      -6.524  -1.599 -33.902  1.00  0.00     0.037 A 
HETATM   28  C   UNL     1      -6.790  -2.786 -34.586  1.00  0.00     0.072 A 
HETATM   29  C   UNL     1      -5.803  -3.764 -34.694  1.00  0.00     0.124 A 
HETATM   30  F   UNL     1      -6.101  -4.912 -35.319  1.00  0.00    -0.205 F 
HETATM   31  C   UNL     1      -4.530  -3.580 -34.150  1.00  0.00    -0.023 A 
HETATM   32  C   UNL     1      -3.501  -4.666 -34.230  1.00  0.00     0.051 C 
HETATM   33  C   UNL     1      -4.264  -2.390 -33.467  1.00  0.00     0.012 A 
HETATM   34  C   UNL     1      -5.254  -1.409 -33.342  1.00  0.00     0.030 A 
ENDBRANCH  24  27
ENDBRANCH  22  23
ENDBRANCH   4  22
TORSDOF 8
ENDMDL
MODEL 7
REMARK VINA RESULT:      -8.3      1.775      2.969
REMARK  8 active torsions:
REMARK  status: ('A' for Active; 'I' for Inactive)
REMARK    1  A    between atoms: C_2  and  O_3 
REMARK    2  A    between atoms: O_3  and  C_4 
REMARK    3  A    between atoms: C_5  and  N_6 
REMARK       I    between atoms: N_6  and  C_7 
REMARK    4  A    between atoms: C_7  and  C_8 
REMARK    5  A    between atoms: N_11  and  C_12 
REMARK    6  A    between atoms: C_12  and  C_13 
REMARK       I    between atoms: C_13  and  N_14 
REMARK    7  A    between atoms: N_14  and  C_15 
REMARK    8  A    between atoms: C_24  and  N_25 
ROOT
HETATM    1  C   UNL     1      -2.586   5.383 -32.902  1.00  0.00     0.187 C 
HETATM    2  N   UNL     1      -2.136   4.081 -32.843  1.00  0.00    -0.150 NA
HETATM    3  N   UNL     1      -3.158   3.302 -32.515  1.00  0.00     0.007 NA
HETATM    4  N   UNL     1      -4.222   4.105 -32.315  1.00  0.00    -0.248 N 
HETATM    5  C   UNL     1      -3.950   5.404 -32.660  1.00  0.00     0.151 C 
ENDROOT
BRANCH   1   6
HETATM    6  C   UNL     1      -1.736   6.519 -33.199  1.00  0.00     0.280 C 
HETATM    7  N   UNL     1      -0.624   6.776 -32.426  1.00  0.00    -0.319 N 
HETATM    8  H   UNL     1       0.052   7.335 -32.927  1.00  0.00     0.169 HD
HETATM    9  O   UNL     1      -1.932   7.232 -34.187  1.00  0.00    -0.265 OA
BRANCH   7  10
HETATM   10  C   UNL     1      -0.326   6.491 -31.075  1.00  0.00     0.068 A 
HETATM   11  C   UNL     1      -0.709   7.251 -29.959  1.00  0.00     0.095 A 
HETATM   12  C   UNL     1      -0.350   6.854 -28.664  1.00  0.00     0.039 A 
HETATM   13  C   UNL     1       0.453   5.736 -28.468  1.00  0.00     0.003 A 
HETATM   14  C   UNL     1       0.894   5.006 -29.566  1.00  0.00     0.002 A 
HETATM   15  C   UNL     1       0.510   5.384 -30.859  1.00  0.00     0.032 A 
BRANCH  11  16
HETATM   16  O   UNL     1      -1.419   8.415 -30.052  1.00  0.00    -0.349 OA
BRANCH  16  17
HETATM   17  C   UNL     1      -1.407   9.145 -28.820  1.00  0.00     0.171 C 
HETATM   18  C   UNL     1      -2.208  10.417 -29.034  1.00  0.00     0.034 C 
ENDBRANCH  16  17
ENDBRANCH  11  16
ENDBRANCH   7  10
ENDBRANCH   1   6
BRANCH   5  19
HETATM   19  N   UNL     1      -4.870   6.400 -32.638  1.00  0.00    -0.382 N 
HETATM   20  H   UNL     1      -5.816   6.262 -32.269  1.00  0.00     0.157 HD
HETATM   21  H   UNL     1      -4.859   7.084 -33.396  1.00  0.00     0.157 HD
ENDBRANCH   5  19
BRANCH   4  22
HETATM   22  C   UNL     1      -5.383   3.576 -31.647  1.00  0.00     0.251 C 
BRANCH  22  23
HETATM   23  C   UNL     1      -5.433   2.071 -31.714  1.00  0.00     0.241 C 
HETATM   24  N   UNL     1      -5.639   1.580 -32.992  1.00  0.00    -0.326 N 
HETATM   25  H   UNL     1      -6.040   2.214 -33.676  1.00  0.00     0.169 HD
HETATM   26  O   UNL     1      -5.295   1.393 -30.698  1.00  0.00    -0.271 OA
BRANCH  24  27
HETATM   27  C   UNL     1      -5.426   0.252 -33.418  1.00  0.00     0.037 A 
HETATM   28  C   UNL     1      -6.394  -0.505 -34.079  1.00  0.00     0.072 A 
HETATM   29  C   UNL     1      -6.140  -1.839 -34.393  1.00  0.00     0.124 A 
HETATM   30  F   UNL     1      -7.104  -2.555 -34.990  1.00  0.00    -0.205 F 
HETATM   31  C   UNL     1      -4.920  -2.444 -34.081  1.00  0.00    -0.023 A 
HETATM   32  C   UNL     1      -4.688  -3.893 -34.378  1.00  0.00     0.051 C 
HETATM   33  C   UNL     1      -3.951  -1.683 -33.421  1.00  0.00     0.012 A 
HETATM   34  C   UNL     1      -4.203  -0.347 -33.089  1.00  0.00     0.030 A 
ENDBRANCH  24  27
ENDBRANCH  22  23
ENDBRANCH   4  22
TORSDOF 8
ENDMDL
MODEL 8
REMARK VINA RESULT:      -8.2      3.153      9.182
REMARK  8 active torsions:
REMARK  status: ('A' for Active; 'I' for Inactive)
REMARK    1  A    between atoms: C_2  and  O_3 
REMARK    2  A    between atoms: O_3  and  C_4 
REMARK    3  A    between atoms: C_5  and  N_6 
REMARK       I    between atoms: N_6  and  C_7 
REMARK    4  A    between atoms: C_7  and  C_8 
REMARK    5  A    between atoms: N_11  and  C_12 
REMARK    6  A    between atoms: C_12  and  C_13 
REMARK       I    between atoms: C_13  and  N_14 
REMARK    7  A    between atoms: N_14  and  C_15 
REMARK    8  A    between atoms: C_24  and  N_25 
ROOT
HETATM    1  C   UNL     1      -4.819   1.691 -31.097  1.00  0.00     0.187 C 
HETATM    2  N   UNL     1      -3.458   1.527 -31.250  1.00  0.00    -0.150 NA
HETATM    3  N   UNL     1      -2.977   2.597 -31.868  1.00  0.00     0.007 NA
HETATM    4  N   UNL     1      -4.024   3.398 -32.150  1.00  0.00    -0.248 N 
HETATM    5  C   UNL     1      -5.184   2.936 -31.584  1.00  0.00     0.151 C 
ENDROOT
BRANCH   1   6
HETATM    6  C   UNL     1      -5.689   0.703 -30.492  1.00  0.00     0.280 C 
HETATM    7  N   UNL     1      -6.384  -0.189 -31.282  1.00  0.00    -0.319 N 
HETATM    8  H   UNL     1      -6.644  -1.015 -30.763  1.00  0.00     0.169 HD
HETATM    9  O   UNL     1      -5.769   0.576 -29.267  1.00  0.00    -0.265 OA
BRANCH   7  10
HETATM   10  C   UNL     1      -6.862  -0.102 -32.607  1.00  0.00     0.068 A 
HETATM   11  C   UNL     1      -7.920   0.701 -33.060  1.00  0.00     0.095 A 
HETATM   12  C   UNL     1      -8.296   0.698 -34.410  1.00  0.00     0.039 A 
HETATM   13  C   UNL     1      -7.670  -0.155 -35.313  1.00  0.00     0.003 A 
HETATM   14  C   UNL     1      -6.662  -1.003 -34.870  1.00  0.00     0.002 A 
HETATM   15  C   UNL     1      -6.265  -0.978 -33.527  1.00  0.00     0.032 A 
BRANCH  11  16
HETATM   16  O   UNL     1      -8.659   1.503 -32.236  1.00  0.00    -0.349 OA
BRANCH  16  17
HETATM   17  C   UNL     1      -9.879   1.923 -32.857  1.00  0.00     0.171 C 
HETATM   18  C   UNL     1     -10.011   3.420 -32.641  1.00  0.00     0.034 C 
ENDBRANCH  16  17
ENDBRANCH  11  16
ENDBRANCH   7  10
ENDBRANCH   1   6
BRANCH   5  19
HETATM   19  N   UNL     1      -6.367   3.596 -31.640  1.00  0.00    -0.382 N 
HETATM   20  H   UNL     1      -6.429   4.616 -31.552  1.00  0.00     0.157 HD
HETATM   21  H   UNL     1      -7.195   3.136 -31.258  1.00  0.00     0.157 HD
ENDBRANCH   5  19
BRANCH   4  22
HETATM   22  C   UNL     1      -3.848   4.475 -33.090  1.00  0.00     0.251 C 
BRANCH  22  23
HETATM   23  C   UNL     1      -2.801   5.456 -32.630  1.00  0.00     0.241 C 
HETATM   24  N   UNL     1      -2.763   5.624 -31.257  1.00  0.00    -0.326 N 
HETATM   25  H   UNL     1      -3.590   5.355 -30.732  1.00  0.00     0.169 HD
HETATM   26  O   UNL     1      -2.074   6.024 -33.443  1.00  0.00    -0.271 OA
BRANCH  24  27
HETATM   27  C   UNL     1      -1.718   6.217 -30.518  1.00  0.00     0.037 A 
HETATM   28  C   UNL     1      -0.647   5.494 -29.991  1.00  0.00     0.072 A 
HETATM   29  C   UNL     1       0.303   6.136 -29.199  1.00  0.00     0.124 A 
HETATM   30  F   UNL     1       1.298   5.407 -28.671  1.00  0.00    -0.205 F 
HETATM   31  C   UNL     1       0.227   7.503 -28.930  1.00  0.00    -0.023 A 
HETATM   32  C   UNL     1       1.228   8.163 -28.032  1.00  0.00     0.051 C 
HETATM   33  C   UNL     1      -0.845   8.226 -29.459  1.00  0.00     0.012 A 
HETATM   34  C   UNL     1      -1.811   7.588 -30.245  1.00  0.00     0.030 A 
ENDBRANCH  24  27
ENDBRANCH  22  23
ENDBRANCH   4  22
TORSDOF 8
ENDMDL
MODEL 9
REMARK VINA RESULT:      -8.2      2.246      3.409
REMARK  8 active torsions:
REMARK  status: ('A' for Active; 'I' for Inactive)
REMARK    1  A    between atoms: C_2  and  O_3 
REMARK    2  A    between atoms: O_3  and  C_4 
REMARK    3  A    between atoms: C_5  and  N_6 
REMARK       I    between atoms: N_6  and  C_7 
REMARK    4  A    between atoms: C_7  and  C_8 
REMARK    5  A    between atoms: N_11  and  C_12 
REMARK    6  A    between atoms: C_12  and  C_13 
REMARK       I    between atoms: C_13  and  N_14 
REMARK    7  A    between atoms: N_14  and  C_15 
REMARK    8  A    between atoms: C_24  and  N_25 
ROOT
HETATM    1  C   UNL     1      -5.555   4.325 -30.768  1.00  0.00     0.187 C 
HETATM    2  N   UNL     1      -5.280   3.046 -30.332  1.00  0.00    -0.150 NA
HETATM    3  N   UNL     1      -6.120   2.213 -30.931  1.00  0.00     0.007 NA
HETATM    4  N   UNL     1      -6.947   2.959 -31.689  1.00  0.00    -0.248 N 
HETATM    5  C   UNL     1      -6.563   4.275 -31.718  1.00  0.00     0.151 C 
ENDROOT
BRANCH   1   6
HETATM    6  C   UNL     1      -4.858   5.506 -30.300  1.00  0.00     0.280 C 
HETATM    7  N   UNL     1      -4.008   6.192 -31.140  1.00  0.00    -0.319 N 
HETATM    8  H   UNL     1      -3.881   7.147 -30.837  1.00  0.00     0.169 HD
HETATM    9  O   UNL     1      -5.063   5.973 -29.175  1.00  0.00    -0.265 OA
BRANCH   7  10
HETATM   10  C   UNL     1      -3.235   5.777 -32.247  1.00  0.00     0.068 A 
HETATM   11  C   UNL     1      -1.934   5.254 -32.205  1.00  0.00     0.095 A 
HETATM   12  C   UNL     1      -1.275   4.874 -33.382  1.00  0.00     0.039 A 
HETATM   13  C   UNL     1      -1.876   5.074 -34.621  1.00  0.00     0.003 A 
HETATM   14  C   UNL     1      -3.140   5.648 -34.685  1.00  0.00     0.002 A 
HETATM   15  C   UNL     1      -3.811   6.000 -33.507  1.00  0.00     0.032 A 
BRANCH  11  16
HETATM   16  O   UNL     1      -1.222   5.105 -31.048  1.00  0.00    -0.349 OA
BRANCH  16  17
HETATM   17  C   UNL     1       0.161   5.427 -31.230  1.00  0.00     0.171 C 
HETATM   18  C   UNL     1       0.395   6.802 -30.630  1.00  0.00     0.034 C 
ENDBRANCH  16  17
ENDBRANCH  11  16
ENDBRANCH   7  10
ENDBRANCH   1   6
BRANCH   5  19
HETATM   19  N   UNL     1      -7.170   5.223 -32.473  1.00  0.00    -0.382 N 
HETATM   20  H   UNL     1      -7.785   4.986 -33.258  1.00  0.00     0.157 HD
HETATM   21  H   UNL     1      -6.673   6.101 -32.637  1.00  0.00     0.157 HD
ENDBRANCH   5  19
BRANCH   4  22
HETATM   22  C   UNL     1      -8.153   2.363 -32.205  1.00  0.00     0.251 C 
BRANCH  22  23
HETATM   23  C   UNL     1      -7.945   0.923 -32.596  1.00  0.00     0.241 C 
HETATM   24  N   UNL     1      -6.876   0.730 -33.454  1.00  0.00    -0.326 N 
HETATM   25  H   UNL     1      -6.547   1.536 -33.976  1.00  0.00     0.169 HD
HETATM   26  O   UNL     1      -8.684   0.042 -32.162  1.00  0.00    -0.271 OA
BRANCH  24  27
HETATM   27  C   UNL     1      -6.249  -0.501 -33.741  1.00  0.00     0.037 A 
HETATM   28  C   UNL     1      -6.856  -1.515 -34.483  1.00  0.00     0.072 A 
HETATM   29  C   UNL     1      -6.208  -2.737 -34.653  1.00  0.00     0.124 A 
HETATM   30  F   UNL     1      -6.834  -3.707 -35.336  1.00  0.00    -0.205 F 
HETATM   31  C   UNL     1      -4.943  -2.974 -34.114  1.00  0.00    -0.023 A 
HETATM   32  C   UNL     1      -4.287  -4.312 -34.262  1.00  0.00     0.051 C 
HETATM   33  C   UNL     1      -4.335  -1.957 -33.372  1.00  0.00     0.012 A 
HETATM   34  C   UNL     1      -4.985  -0.732 -33.184  1.00  0.00     0.030 A 
ENDBRANCH  24  27
ENDBRANCH  22  23
ENDBRANCH   4  22
TORSDOF 8
ENDMDL
MODEL 10
REMARK VINA RESULT:      -8.1     17.146     18.945
REMARK  8 active torsions:
REMARK  status: ('A' for Active; 'I' for Inactive)
REMARK    1  A    between atoms: C_2  and  O_3 
REMARK    2  A    between atoms: O_3  and  C_4 
REMARK    3  A    between atoms: C_5  and  N_6 
REMARK       I    between atoms: N_6  and  C_7 
REMARK    4  A    between atoms: C_7  and  C_8 
REMARK    5  A    between atoms: N_11  and  C_12 
REMARK    6  A    between atoms: C_12  and  C_13 
REMARK       I    between atoms: C_13  and  N_14 
REMARK    7  A    between atoms: N_14  and  C_15 
REMARK    8  A    between atoms: C_24  and  N_25 
ROOT
HETATM    1  C   UNL     1      -3.500 -13.355 -36.987  1.00  0.00     0.187 C 
HETATM    2  N   UNL     1      -4.155 -12.724 -35.950  1.00  0.00    -0.150 NA
HETATM    3  N   UNL     1      -4.783 -13.646 -35.234  1.00  0.00     0.007 NA
HETATM    4  N   UNL     1      -4.576 -14.832 -35.841  1.00  0.00    -0.248 N 
HETATM    5  C   UNL     1      -3.681 -14.723 -36.874  1.00  0.00     0.151 C 
ENDROOT
BRANCH   1   6
HETATM    6  C   UNL     1      -2.733 -12.658 -38.000  1.00  0.00     0.280 C 
HETATM    7  N   UNL     1      -3.341 -12.230 -39.162  1.00  0.00    -0.319 N 
HETATM    8  H   UNL     1      -2.824 -11.477 -39.592  1.00  0.00     0.169 HD
HETATM    9  O   UNL     1      -1.549 -12.358 -37.822  1.00  0.00    -0.265 OA
BRANCH   7  10
HETATM   10  C   UNL     1      -4.459 -12.713 -39.876  1.00  0.00     0.068 A 
HETATM   11  C   UNL     1      -4.583 -13.975 -40.475  1.00  0.00     0.095 A 
HETATM   12  C   UNL     1      -5.754 -14.335 -41.155  1.00  0.00     0.039 A 
HETATM   13  C   UNL     1      -6.790 -13.418 -41.307  1.00  0.00     0.003 A 
HETATM   14  C   UNL     1      -6.659 -12.141 -40.773  1.00  0.00     0.002 A 
HETATM   15  C   UNL     1      -5.502 -11.792 -40.066  1.00  0.00     0.032 A 
BRANCH  11  16
HETATM   16  O   UNL     1      -3.588 -14.912 -40.464  1.00  0.00    -0.349 OA
BRANCH  16  17
HETATM   17  C   UNL     1      -2.666 -14.722 -41.543  1.00  0.00     0.171 C 
HETATM   18  C   UNL     1      -1.287 -14.529 -40.938  1.00  0.00     0.034 C 
ENDBRANCH  16  17
ENDBRANCH  11  16
ENDBRANCH   7  10
ENDBRANCH   1   6
BRANCH   5  19
HETATM   19  N   UNL     1      -3.230 -15.779 -37.597  1.00  0.00    -0.382 N 
HETATM   20  H   UNL     1      -2.242 -16.052 -37.607  1.00  0.00     0.157 HD
HETATM   21  H   UNL     1      -3.685 -15.984 -38.488  1.00  0.00     0.157 HD
ENDBRANCH   5  19
BRANCH   4  22
HETATM   22  C   UNL     1      -5.390 -15.961 -35.471  1.00  0.00     0.251 C 
BRANCH  22  23
HETATM   23  C   UNL     1      -6.788 -15.850 -36.023  1.00  0.00     0.241 C 
HETATM   24  N   UNL     1      -6.927 -14.867 -36.988  1.00  0.00    -0.326 N 
HETATM   25  H   UNL     1      -6.224 -14.134 -37.010  1.00  0.00     0.169 HD
HETATM   26  O   UNL     1      -7.682 -16.591 -35.620  1.00  0.00    -0.271 OA
BRANCH  24  27
HETATM   27  C   UNL     1      -8.001 -14.733 -37.893  1.00  0.00     0.037 A 
HETATM   28  C   UNL     1      -8.427 -15.761 -38.734  1.00  0.00     0.072 A 
HETATM   29  C   UNL     1      -9.440 -15.527 -39.662  1.00  0.00     0.124 A 
HETATM   30  F   UNL     1      -9.800 -16.521 -40.487  1.00  0.00    -0.205 F 
HETATM   31  C   UNL     1     -10.064 -14.282 -39.763  1.00  0.00    -0.023 A 
HETATM   32  C   UNL     1     -11.112 -14.035 -40.804  1.00  0.00     0.051 C 
HETATM   33  C   UNL     1      -9.637 -13.253 -38.919  1.00  0.00     0.012 A 
HETATM   34  C   UNL     1      -8.612 -13.476 -37.993  1.00  0.00     0.030 A 
ENDBRANCH  24  27
ENDBRANCH  22  23
ENDBRANCH   4  22
TORSDOF 8
ENDMDL
