MODEL 1
REMARK VINA RESULT:      -7.9      0.000      0.000
REMARK  4 active torsions:
REMARK  status: ('A' for Active; 'I' for Inactive)
REMARK    1  A    between atoms: C_6  and  C_7 
REMARK       I    between atoms: C_7  and  N_8 
REMARK    2  A    between atoms: N_8  and  C_9 
REMARK    3  A    between atoms: C_10  and  O_11 
REMARK    4  A    between atoms: N_13  and  C_15 
ROOT
HETATM    1  C   UNL     1      -7.276  -0.117 -34.642  1.00  0.00     0.252 C 
HETATM    2  N   UNL     1      -8.357   0.015 -33.793  1.00  0.00    -0.348 N 
HETATM    3  O   UNL     1      -7.113   0.663 -35.576  1.00  0.00    -0.268 OA
HETATM    4  H   UNL     1      -8.576  -0.730 -33.141  1.00  0.00     0.163 HD
ENDROOT
BRANCH   2   5
HETATM    5  C   UNL     1      -9.335   1.087 -33.963  1.00  0.00     0.141 C 
HETATM    6  C   UNL     1      -8.968   2.392 -33.231  1.00  0.00     0.168 C 
HETATM    7  C   UNL     1     -10.121   2.643 -32.259  1.00  0.00     0.269 C 
HETATM    8  N   UNL     1     -11.346   2.029 -32.931  1.00  0.00    -0.063 N 
HETATM    9  H   UNL     1     -12.020   1.797 -32.190  1.00  0.00     0.280 HD
HETATM   10  C   UNL     1     -10.760   0.738 -33.481  1.00  0.00     0.263 C 
BRANCH   6  11
HETATM   11  O   UNL     1      -8.903   3.463 -34.181  1.00  0.00    -0.392 OA
HETATM   12  H   UNL     1      -8.094   3.979 -33.998  1.00  0.00     0.210 HD
ENDBRANCH   6  11
BRANCH   8  13
HETATM   13  C   UNL     1     -12.062   2.901 -33.961  1.00  0.00     0.180 C 
HETATM   14  C   UNL     1     -12.757   1.997 -34.984  1.00  0.00     0.039 C 
HETATM   15  C   UNL     1     -13.118   3.775 -33.283  1.00  0.00     0.039 C 
ENDBRANCH   8  13
ENDBRANCH   2   5
BRANCH   1  16
HETATM   16  C   UNL     1      -6.324  -1.239 -34.401  1.00  0.00     0.035 A 
HETATM   17  C   UNL     1      -6.500  -2.508 -34.953  1.00  0.00     0.041 A 
HETATM   18  C   UNL     1      -5.583  -3.532 -34.675  1.00  0.00     0.042 A 
HETATM   19  C   UNL     1      -4.470  -3.315 -33.844  1.00  0.00    -0.018 A 
HETATM   20 CL   UNL     1      -5.913  -5.074 -35.386  1.00  0.00    -0.084 Cl
HETATM   21  C   UNL     1      -3.502  -4.423 -33.518  1.00  0.00     0.052 C 
HETATM   22  C   UNL     1      -4.334  -2.040 -33.265  1.00  0.00     0.042 A 
HETATM   23  C   UNL     1      -5.244  -1.014 -33.544  1.00  0.00     0.041 A 
HETATM   24 CL   UNL     1      -3.057  -1.670 -32.160  1.00  0.00    -0.084 Cl
ENDBRANCH   1  16
TORSDOF 4
ENDMDL
MODEL 2
REMARK VINA RESULT:      -7.8      0.135      1.997
REMARK  4 active torsions:
REMARK  status: ('A' for Active; 'I' for Inactive)
REMARK    1  A    between atoms: C_6  and  C_7 
REMARK       I    between atoms: C_7  and  N_8 
REMARK    2  A    between atoms: N_8  and  C_9 
REMARK    3  A    between atoms: C_10  and  O_11 
REMARK    4  A    between atoms: N_13  and  C_15 
ROOT
HETATM    1  C   UNL     1      -7.322  -0.054 -34.528  1.00  0.00     0.252 C 
HETATM    2  N   UNL     1      -8.419   0.077 -33.700  1.00  0.00    -0.348 N 
HETATM    3  O   UNL     1      -7.163   0.701 -35.482  1.00  0.00    -0.268 OA
HETATM    4  H   UNL     1      -8.631  -0.653 -33.029  1.00  0.00     0.163 HD
ENDROOT
BRANCH   2   5
HETATM    5  C   UNL     1      -9.420   1.118 -33.918  1.00  0.00     0.141 C 
HETATM    6  C   UNL     1      -9.092   2.458 -33.232  1.00  0.00     0.168 C 
HETATM    7  C   UNL     1     -10.260   2.717 -32.280  1.00  0.00     0.269 C 
HETATM    8  N   UNL     1     -11.464   2.049 -32.940  1.00  0.00    -0.063 N 
HETATM    9  H   UNL     1     -12.140   1.828 -32.197  1.00  0.00     0.280 HD
HETATM   10  C   UNL     1     -10.842   0.754 -33.437  1.00  0.00     0.263 C 
BRANCH   6  11
HETATM   11  O   UNL     1      -9.043   3.494 -34.219  1.00  0.00    -0.392 OA
HETATM   12  H   UNL     1      -9.870   4.010 -34.155  1.00  0.00     0.210 HD
ENDBRANCH   6  11
BRANCH   8  13
HETATM   13  C   UNL     1     -12.189   2.866 -34.008  1.00  0.00     0.180 C 
HETATM   14  C   UNL     1     -12.919   1.910 -34.958  1.00  0.00     0.039 C 
HETATM   15  C   UNL     1     -13.218   3.797 -33.364  1.00  0.00     0.039 C 
ENDBRANCH   8  13
ENDBRANCH   2   5
BRANCH   1  16
HETATM   16  C   UNL     1      -6.347  -1.143 -34.237  1.00  0.00     0.035 A 
HETATM   17  C   UNL     1      -5.231  -0.958 -33.421  1.00  0.00     0.041 A 
HETATM   18  C   UNL     1      -4.336  -2.014 -33.198  1.00  0.00     0.042 A 
HETATM   19  C   UNL     1      -4.534  -3.279 -33.780  1.00  0.00    -0.018 A 
HETATM   20 CL   UNL     1      -2.970  -1.666 -32.196  1.00  0.00    -0.084 Cl
HETATM   21  C   UNL     1      -3.555  -4.405 -33.568  1.00  0.00     0.052 C 
HETATM   22  C   UNL     1      -5.642  -3.433 -34.632  1.00  0.00     0.042 A 
HETATM   23  C   UNL     1      -6.540  -2.382 -34.853  1.00  0.00     0.041 A 
HETATM   24 CL   UNL     1      -5.950  -4.911 -35.474  1.00  0.00    -0.084 Cl
ENDBRANCH   1  16
TORSDOF 4
ENDMDL
MODEL 3
REMARK VINA RESULT:      -7.8      5.250      6.818
REMARK  4 active torsions:
REMARK  status: ('A' for Active; 'I' for Inactive)
REMARK    1  A    between atoms: C_6  and  C_7 
REMARK       I    between atoms: C_7  and  N_8 
REMARK    2  A    between atoms: N_8  and  C_9 
REMARK    3  A    between atoms: C_10  and  O_11 
REMARK    4  A    between atoms: N_13  and  C_15 
ROOT
HETATM    1  C   UNL     1      -3.623   0.974 -32.090  1.00  0.00     0.252 C 
HETATM    2  N   UNL     1      -3.961   2.259 -32.468  1.00  0.00    -0.348 N 
HETATM    3  O   UNL     1      -2.798   0.779 -31.202  1.00  0.00    -0.268 OA
HETATM    4  H   UNL     1      -4.503   2.407 -33.311  1.00  0.00     0.163 HD
ENDROOT
BRANCH   2   5
HETATM    5  C   UNL     1      -3.365   3.427 -31.822  1.00  0.00     0.141 C 
HETATM    6  C   UNL     1      -4.384   4.507 -31.416  1.00  0.00     0.168 C 
HETATM    7  C   UNL     1      -3.958   5.765 -32.174  1.00  0.00     0.269 C 
HETATM    8  N   UNL     1      -2.445   5.638 -32.331  1.00  0.00    -0.063 N 
HETATM    9  H   UNL     1      -2.172   6.196 -33.151  1.00  0.00     0.280 HD
HETATM   10  C   UNL     1      -2.310   4.164 -32.676  1.00  0.00     0.263 C 
BRANCH   6  11
HETATM   11  O   UNL     1      -4.284   4.744 -30.006  1.00  0.00    -0.392 OA
HETATM   12  H   UNL     1      -3.365   4.556 -29.734  1.00  0.00     0.210 HD
ENDBRANCH   6  11
BRANCH   8  13
HETATM   13  C   UNL     1      -1.601   6.102 -31.144  1.00  0.00     0.180 C 
HETATM   14  C   UNL     1      -0.245   5.389 -31.187  1.00  0.00     0.039 C 
HETATM   15  C   UNL     1      -1.363   7.611 -31.214  1.00  0.00     0.039 C 
ENDBRANCH   8  13
ENDBRANCH   2   5
BRANCH   1  16
HETATM   16  C   UNL     1      -4.275  -0.162 -32.799  1.00  0.00     0.035 A 
HETATM   17  C   UNL     1      -3.747  -1.454 -32.800  1.00  0.00     0.041 A 
HETATM   18  C   UNL     1      -4.394  -2.481 -33.502  1.00  0.00     0.042 A 
HETATM   19  C   UNL     1      -5.582  -2.246 -34.216  1.00  0.00    -0.018 A 
HETATM   20 CL   UNL     1      -3.636  -4.035 -33.462  1.00  0.00    -0.084 Cl
HETATM   21  C   UNL     1      -6.261  -3.342 -34.998  1.00  0.00     0.052 C 
HETATM   22  C   UNL     1      -6.076  -0.929 -34.236  1.00  0.00     0.042 A 
HETATM   23  C   UNL     1      -5.436   0.097 -33.532  1.00  0.00     0.041 A 
HETATM   24 CL   UNL     1      -7.481  -0.493 -35.144  1.00  0.00    -0.084 Cl
ENDBRANCH   1  16
TORSDOF 4
ENDMDL
MODEL 4
REMARK VINA RESULT:      -7.7      5.319      6.834
REMARK  4 active torsions:
REMARK  status: ('A' for Active; 'I' for Inactive)
REMARK    1  A    between atoms: C_6  and  C_7 
REMARK       I    between atoms: C_7  and  N_8 
REMARK    2  A    between atoms: N_8  and  C_9 
REMARK    3  A    between atoms: C_10  and  O_11 
REMARK    4  A    between atoms: N_13  and  C_15 
ROOT
HETATM    1  C   UNL     1      -3.634   1.070 -32.053  1.00  0.00     0.252 C 
HETATM    2  N   UNL     1      -3.983   2.373 -32.352  1.00  0.00    -0.348 N 
HETATM    3  O   UNL     1      -2.804   0.828 -31.182  1.00  0.00    -0.268 OA
HETATM    4  H   UNL     1      -4.530   2.568 -33.182  1.00  0.00     0.163 HD
ENDROOT
BRANCH   2   5
HETATM    5  C   UNL     1      -3.393   3.504 -31.638  1.00  0.00     0.141 C 
HETATM    6  C   UNL     1      -4.394   4.625 -31.303  1.00  0.00     0.168 C 
HETATM    7  C   UNL     1      -3.849   5.871 -32.002  1.00  0.00     0.269 C 
HETATM    8  N   UNL     1      -2.334   5.677 -32.031  1.00  0.00    -0.063 N 
HETATM    9  H   UNL     1      -1.967   6.232 -32.815  1.00  0.00     0.280 HD
HETATM   10  C   UNL     1      -2.237   4.202 -32.387  1.00  0.00     0.263 C 
BRANCH   6  11
HETATM   11  O   UNL     1      -4.405   4.840 -29.887  1.00  0.00    -0.392 OA
HETATM   12  H   UNL     1      -5.171   5.410 -29.675  1.00  0.00     0.210 HD
ENDBRANCH   6  11
BRANCH   8  13
HETATM   13  C   UNL     1      -1.576   6.087 -30.769  1.00  0.00     0.180 C 
HETATM   14  C   UNL     1      -0.227   5.361 -30.739  1.00  0.00     0.039 C 
HETATM   15  C   UNL     1      -1.320   7.595 -30.763  1.00  0.00     0.039 C 
ENDBRANCH   8  13
ENDBRANCH   2   5
BRANCH   1  16
HETATM   16  C   UNL     1      -4.281  -0.026 -32.828  1.00  0.00     0.035 A 
HETATM   17  C   UNL     1      -5.448   0.163 -33.569  1.00  0.00     0.041 A 
HETATM   18  C   UNL     1      -6.025  -0.911 -34.263  1.00  0.00     0.042 A 
HETATM   19  C   UNL     1      -5.451  -2.194 -34.237  1.00  0.00    -0.018 A 
HETATM   20 CL   UNL     1      -7.487  -0.573 -35.124  1.00  0.00    -0.084 Cl
HETATM   21  C   UNL     1      -6.088  -3.356 -34.956  1.00  0.00     0.052 C 
HETATM   22  C   UNL     1      -4.299  -2.372 -33.451  1.00  0.00     0.042 A 
HETATM   23  C   UNL     1      -3.717  -1.302 -32.762  1.00  0.00     0.041 A 
HETATM   24 CL   UNL     1      -3.546  -3.918 -33.269  1.00  0.00    -0.084 Cl
ENDBRANCH   1  16
TORSDOF 4
ENDMDL
MODEL 5
REMARK VINA RESULT:      -7.2      1.667      1.975
REMARK  4 active torsions:
REMARK  status: ('A' for Active; 'I' for Inactive)
REMARK    1  A    between atoms: C_6  and  C_7 
REMARK       I    between atoms: C_7  and  N_8 
REMARK    2  A    between atoms: N_8  and  C_9 
REMARK    3  A    between atoms: C_10  and  O_11 
REMARK    4  A    between atoms: N_13  and  C_15 
ROOT
HETATM    1  C   UNL     1      -6.329   0.203 -33.190  1.00  0.00     0.252 C 
HETATM    2  N   UNL     1      -7.707   0.245 -33.274  1.00  0.00    -0.348 N 
HETATM    3  O   UNL     1      -5.686   1.218 -32.943  1.00  0.00    -0.268 OA
HETATM    4  H   UNL     1      -8.211  -0.551 -33.649  1.00  0.00     0.163 HD
ENDROOT
BRANCH   2   5
HETATM    5  C   UNL     1      -8.448   1.486 -33.061  1.00  0.00     0.141 C 
HETATM    6  C   UNL     1      -9.802   1.295 -32.352  1.00  0.00     0.168 C 
HETATM    7  C   UNL     1     -10.845   1.833 -33.332  1.00  0.00     0.269 C 
HETATM    8  N   UNL     1     -10.124   2.925 -34.119  1.00  0.00    -0.063 N 
HETATM    9  H   UNL     1     -10.604   3.023 -35.022  1.00  0.00     0.280 HD
HETATM   10  C   UNL     1      -8.772   2.270 -34.351  1.00  0.00     0.263 C 
BRANCH   6  11
HETATM   11  O   UNL     1      -9.823   2.080 -31.155  1.00  0.00    -0.392 OA
HETATM   12  H   UNL     1      -9.221   1.661 -30.509  1.00  0.00     0.210 HD
ENDBRANCH   6  11
BRANCH   8  13
HETATM   13  C   UNL     1     -10.067   4.305 -33.464  1.00  0.00     0.180 C 
HETATM   14  C   UNL     1      -9.555   5.323 -34.489  1.00  0.00     0.039 C 
HETATM   15  C   UNL     1     -11.459   4.735 -32.999  1.00  0.00     0.039 C 
ENDBRANCH   8  13
ENDBRANCH   2   5
BRANCH   1  16
HETATM   16  C   UNL     1      -5.650  -1.103 -33.422  1.00  0.00     0.035 A 
HETATM   17  C   UNL     1      -6.104  -2.032 -34.359  1.00  0.00     0.041 A 
HETATM   18  C   UNL     1      -5.436  -3.255 -34.521  1.00  0.00     0.042 A 
HETATM   19  C   UNL     1      -4.302  -3.578 -33.756  1.00  0.00    -0.018 A 
HETATM   20 CL   UNL     1      -6.101  -4.346 -35.687  1.00  0.00    -0.084 Cl
HETATM   21  C   UNL     1      -3.603  -4.906 -33.906  1.00  0.00     0.052 C 
HETATM   22  C   UNL     1      -3.886  -2.646 -32.789  1.00  0.00     0.042 A 
HETATM   23  C   UNL     1      -4.546  -1.422 -32.628  1.00  0.00     0.041 A 
HETATM   24 CL   UNL     1      -2.557  -2.959 -31.729  1.00  0.00    -0.084 Cl
ENDBRANCH   1  16
TORSDOF 4
ENDMDL
MODEL 6
REMARK VINA RESULT:      -7.1      1.996      2.429
REMARK  4 active torsions:
REMARK  status: ('A' for Active; 'I' for Inactive)
REMARK    1  A    between atoms: C_6  and  C_7 
REMARK       I    between atoms: C_7  and  N_8 
REMARK    2  A    between atoms: N_8  and  C_9 
REMARK    3  A    between atoms: C_10  and  O_11 
REMARK    4  A    between atoms: N_13  and  C_15 
ROOT
HETATM    1  C   UNL     1      -6.638   0.190 -33.585  1.00  0.00     0.252 C 
HETATM    2  N   UNL     1      -6.770   0.750 -32.329  1.00  0.00    -0.348 N 
HETATM    3  O   UNL     1      -7.134   0.733 -34.568  1.00  0.00    -0.268 OA
HETATM    4  H   UNL     1      -6.513   0.210 -31.511  1.00  0.00     0.163 HD
ENDROOT
BRANCH   2   5
HETATM    5  C   UNL     1      -7.487   2.006 -32.125  1.00  0.00     0.141 C 
HETATM    6  C   UNL     1      -6.760   2.999 -31.198  1.00  0.00     0.168 C 
HETATM    7  C   UNL     1      -7.724   3.240 -30.036  1.00  0.00     0.269 C 
HETATM    8  N   UNL     1      -9.118   3.063 -30.634  1.00  0.00    -0.063 N 
HETATM    9  H   UNL     1      -9.752   2.803 -29.868  1.00  0.00     0.280 HD
HETATM   10  C   UNL     1      -8.900   1.849 -31.523  1.00  0.00     0.263 C 
BRANCH   6  11
HETATM   11  O   UNL     1      -6.543   4.229 -31.900  1.00  0.00    -0.392 OA
HETATM   12  H   UNL     1      -6.935   4.139 -32.791  1.00  0.00     0.210 HD
ENDBRANCH   6  11
BRANCH   8  13
HETATM   13  C   UNL     1      -9.710   4.281 -31.342  1.00  0.00     0.180 C 
HETATM   14  C   UNL     1     -11.111   3.929 -31.854  1.00  0.00     0.039 C 
HETATM   15  C   UNL     1      -9.824   5.460 -30.375  1.00  0.00     0.039 C 
ENDBRANCH   8  13
ENDBRANCH   2   5
BRANCH   1  16
HETATM   16  C   UNL     1      -5.893  -1.094 -33.708  1.00  0.00     0.035 A 
HETATM   17  C   UNL     1      -6.291  -2.117 -34.570  1.00  0.00     0.041 A 
HETATM   18  C   UNL     1      -5.562  -3.314 -34.629  1.00  0.00     0.042 A 
HETATM   19  C   UNL     1      -4.419  -3.517 -33.836  1.00  0.00    -0.018 A 
HETATM   20 CL   UNL     1      -6.161  -4.526 -35.708  1.00  0.00    -0.084 Cl
HETATM   21  C   UNL     1      -3.654  -4.815 -33.875  1.00  0.00     0.052 C 
HETATM   22  C   UNL     1      -4.059  -2.490 -32.944  1.00  0.00     0.042 A 
HETATM   23  C   UNL     1      -4.782  -1.293 -32.886  1.00  0.00     0.041 A 
HETATM   24 CL   UNL     1      -2.726  -2.651 -31.855  1.00  0.00    -0.084 Cl
ENDBRANCH   1  16
TORSDOF 4
ENDMDL
MODEL 7
REMARK VINA RESULT:      -7.0      1.864      2.364
REMARK  4 active torsions:
REMARK  status: ('A' for Active; 'I' for Inactive)
REMARK    1  A    between atoms: C_6  and  C_7 
REMARK       I    between atoms: C_7  and  N_8 
REMARK    2  A    between atoms: N_8  and  C_9 
REMARK    3  A    between atoms: C_10  and  O_11 
REMARK    4  A    between atoms: N_13  and  C_15 
ROOT
HETATM    1  C   UNL     1      -8.425   0.289 -33.152  1.00  0.00     0.252 C 
HETATM    2  N   UNL     1      -9.047   1.013 -34.150  1.00  0.00    -0.348 N 
HETATM    3  O   UNL     1      -8.773   0.407 -31.981  1.00  0.00    -0.268 OA
HETATM    4  H   UNL     1      -8.640   1.041 -35.078  1.00  0.00     0.163 HD
ENDROOT
BRANCH   2   5
HETATM    5  C   UNL     1     -10.145   1.932 -33.855  1.00  0.00     0.141 C 
HETATM    6  C   UNL     1     -11.536   1.389 -34.234  1.00  0.00     0.168 C 
HETATM    7  C   UNL     1     -12.093   2.389 -35.247  1.00  0.00     0.269 C 
HETATM    8  N   UNL     1     -11.466   3.729 -34.867  1.00  0.00    -0.063 N 
HETATM    9  H   UNL     1     -11.460   4.317 -35.710  1.00  0.00     0.280 HD
HETATM   10  C   UNL     1     -10.040   3.304 -34.556  1.00  0.00     0.263 C 
BRANCH   6  11
HETATM   11  O   UNL     1     -12.370   1.375 -33.070  1.00  0.00    -0.392 OA
HETATM   12  H   UNL     1     -12.331   2.262 -32.661  1.00  0.00     0.210 HD
ENDBRANCH   6  11
BRANCH   8  13
HETATM   13  C   UNL     1     -12.163   4.510 -33.753  1.00  0.00     0.180 C 
HETATM   14  C   UNL     1     -11.128   5.380 -33.031  1.00  0.00     0.039 C 
HETATM   15  C   UNL     1     -13.247   5.419 -34.334  1.00  0.00     0.039 C 
ENDBRANCH   8  13
ENDBRANCH   2   5
BRANCH   1  16
HETATM   16  C   UNL     1      -7.313  -0.625 -33.537  1.00  0.00     0.035 A 
HETATM   17  C   UNL     1      -7.531  -1.868 -34.133  1.00  0.00     0.041 A 
HETATM   18  C   UNL     1      -6.446  -2.696 -34.455  1.00  0.00     0.042 A 
HETATM   19  C   UNL     1      -5.121  -2.305 -34.195  1.00  0.00    -0.018 A 
HETATM   20 CL   UNL     1      -6.831  -4.227 -35.162  1.00  0.00    -0.084 Cl
HETATM   21  C   UNL     1      -3.957  -3.209 -34.510  1.00  0.00     0.052 C 
HETATM   22  C   UNL     1      -4.926  -1.068 -33.556  1.00  0.00     0.042 A 
HETATM   23  C   UNL     1      -6.005  -0.236 -33.237  1.00  0.00     0.041 A 
HETATM   24 CL   UNL     1      -3.352  -0.510 -33.105  1.00  0.00    -0.084 Cl
ENDBRANCH   1  16
TORSDOF 4
ENDMDL
MODEL 8
REMARK VINA RESULT:      -7.0      2.307      3.433
REMARK  4 active torsions:
REMARK  status: ('A' for Active; 'I' for Inactive)
REMARK    1  A    between atoms: C_6  and  C_7 
REMARK       I    between atoms: C_7  and  N_8 
REMARK    2  A    between atoms: N_8  and  C_9 
REMARK    3  A    between atoms: C_10  and  O_11 
REMARK    4  A    between atoms: N_13  and  C_15 
ROOT
HETATM    1  C   UNL     1      -6.336   0.401 -34.242  1.00  0.00     0.252 C 
HETATM    2  N   UNL     1      -6.142   1.384 -33.291  1.00  0.00    -0.348 N 
HETATM    3  O   UNL     1      -7.039   0.611 -35.226  1.00  0.00    -0.268 OA
HETATM    4  H   UNL     1      -5.709   1.147 -32.406  1.00  0.00     0.163 HD
ENDROOT
BRANCH   2   5
HETATM    5  C   UNL     1      -6.750   2.706 -33.425  1.00  0.00     0.141 C 
HETATM    6  C   UNL     1      -5.756   3.872 -33.266  1.00  0.00     0.168 C 
HETATM    7  C   UNL     1      -6.278   4.684 -32.080  1.00  0.00     0.269 C 
HETATM    8  N   UNL     1      -7.791   4.480 -32.096  1.00  0.00    -0.063 N 
HETATM    9  H   UNL     1      -8.133   4.635 -31.139  1.00  0.00     0.280 HD
HETATM   10  C   UNL     1      -7.881   2.997 -32.415  1.00  0.00     0.263 C 
BRANCH   6  11
HETATM   11  O   UNL     1      -5.786   4.682 -34.447  1.00  0.00    -0.392 OA
HETATM   12  H   UNL     1      -6.484   5.357 -34.331  1.00  0.00     0.210 HD
ENDBRANCH   6  11
BRANCH   8  13
HETATM   13  C   UNL     1      -8.586   5.390 -33.032  1.00  0.00     0.180 C 
HETATM   14  C   UNL     1     -10.039   4.905 -33.085  1.00  0.00     0.039 C 
HETATM   15  C   UNL     1      -8.569   6.831 -32.521  1.00  0.00     0.039 C 
ENDBRANCH   8  13
ENDBRANCH   2   5
BRANCH   1  16
HETATM   16  C   UNL     1      -5.681  -0.920 -34.031  1.00  0.00     0.035 A 
HETATM   17  C   UNL     1      -4.622  -1.103 -33.141  1.00  0.00     0.041 A 
HETATM   18  C   UNL     1      -4.030  -2.366 -32.999  1.00  0.00     0.042 A 
HETATM   19  C   UNL     1      -4.481  -3.476 -33.734  1.00  0.00    -0.018 A 
HETATM   20 CL   UNL     1      -2.704  -2.473 -31.892  1.00  0.00    -0.084 Cl
HETATM   21  C   UNL     1      -3.824  -4.826 -33.606  1.00  0.00     0.052 C 
HETATM   22  C   UNL     1      -5.522  -3.261 -34.656  1.00  0.00     0.042 A 
HETATM   23  C   UNL     1      -6.119  -2.003 -34.797  1.00  0.00     0.041 A 
HETATM   24 CL   UNL     1      -6.111  -4.523 -35.681  1.00  0.00    -0.084 Cl
ENDBRANCH   1  16
TORSDOF 4
ENDMDL
MODEL 9
REMARK VINA RESULT:      -7.0      1.883      3.102
REMARK  4 active torsions:
REMARK  status: ('A' for Active; 'I' for Inactive)
REMARK    1  A    between atoms: C_6  and  C_7 
REMARK       I    between atoms: C_7  and  N_8 
REMARK    2  A    between atoms: N_8  and  C_9 
REMARK    3  A    between atoms: C_10  and  O_11 
REMARK    4  A    between atoms: N_13  and  C_15 
ROOT
HETATM    1  C   UNL     1      -8.404   0.411 -33.046  1.00  0.00     0.252 C 
HETATM    2  N   UNL     1      -8.980   1.138 -34.070  1.00  0.00    -0.348 N 
HETATM    3  O   UNL     1      -8.822   0.508 -31.897  1.00  0.00    -0.268 OA
HETATM    4  H   UNL     1      -8.520   1.185 -34.972  1.00  0.00     0.163 HD
ENDROOT
BRANCH   2   5
HETATM    5  C   UNL     1     -10.109   2.034 -33.829  1.00  0.00     0.141 C 
HETATM    6  C   UNL     1     -11.476   1.438 -34.217  1.00  0.00     0.168 C 
HETATM    7  C   UNL     1     -12.040   2.387 -35.275  1.00  0.00     0.269 C 
HETATM    8  N   UNL     1     -11.459   3.756 -34.929  1.00  0.00    -0.063 N 
HETATM    9  H   UNL     1     -11.451   4.315 -35.792  1.00  0.00     0.280 HD
HETATM   10  C   UNL     1     -10.028   3.383 -34.575  1.00  0.00     0.263 C 
BRANCH   6  11
HETATM   11  O   UNL     1     -12.333   1.440 -33.069  1.00  0.00    -0.392 OA
HETATM   12  H   UNL     1     -13.078   2.046 -33.251  1.00  0.00     0.210 HD
ENDBRANCH   6  11
BRANCH   8  13
HETATM   13  C   UNL     1     -12.201   4.555 -33.858  1.00  0.00     0.180 C 
HETATM   14  C   UNL     1     -11.197   5.441 -33.112  1.00  0.00     0.039 C 
HETATM   15  C   UNL     1     -13.264   5.449 -34.496  1.00  0.00     0.039 C 
ENDBRANCH   8  13
ENDBRANCH   2   5
BRANCH   1  16
HETATM   16  C   UNL     1      -7.255  -0.479 -33.376  1.00  0.00     0.035 A 
HETATM   17  C   UNL     1      -5.929  -0.119 -33.133  1.00  0.00     0.041 A 
HETATM   18  C   UNL     1      -4.886  -0.989 -33.483  1.00  0.00     0.042 A 
HETATM   19  C   UNL     1      -5.141  -2.237 -34.078  1.00  0.00    -0.018 A 
HETATM   20 CL   UNL     1      -3.280  -0.430 -33.167  1.00  0.00    -0.084 Cl
HETATM   21  C   UNL     1      -4.019  -3.159 -34.484  1.00  0.00     0.052 C 
HETATM   22  C   UNL     1      -6.481  -2.563 -34.351  1.00  0.00     0.042 A 
HETATM   23  C   UNL     1      -7.525  -1.700 -33.999  1.00  0.00     0.041 A 
HETATM   24 CL   UNL     1      -6.920  -4.030 -35.155  1.00  0.00    -0.084 Cl
ENDBRANCH   1  16
TORSDOF 4
ENDMDL
MODEL 10
REMARK VINA RESULT:      -6.9      1.764      2.881
REMARK  4 active torsions:
REMARK  status: ('A' for Active; 'I' for Inactive)
REMARK    1  A    between atoms: C_6  and  C_7 
REMARK       I    between atoms: C_7  and  N_8 
REMARK    2  A    between atoms: N_8  and  C_9 
REMARK    3  A    between atoms: C_10  and  O_11 
REMARK    4  A    between atoms: N_13  and  C_15 
ROOT
HETATM    1  C   UNL     1      -6.091   0.185 -32.964  1.00  0.00     0.252 C 
HETATM    2  N   UNL     1      -7.472   0.201 -32.978  1.00  0.00    -0.348 N 
HETATM    3  O   UNL     1      -5.454   1.224 -32.817  1.00  0.00    -0.268 OA
HETATM    4  H   UNL     1      -7.979  -0.625 -33.273  1.00  0.00     0.163 HD
ENDROOT
BRANCH   2   5
HETATM    5  C   UNL     1      -8.223   1.442 -32.808  1.00  0.00     0.141 C 
HETATM    6  C   UNL     1      -9.578   1.263 -32.096  1.00  0.00     0.168 C 
HETATM    7  C   UNL     1     -10.623   1.760 -33.096  1.00  0.00     0.269 C 
HETATM    8  N   UNL     1      -9.908   2.832 -33.917  1.00  0.00    -0.063 N 
HETATM    9  H   UNL     1     -10.387   2.895 -34.824  1.00  0.00     0.280 HD
HETATM   10  C   UNL     1      -8.550   2.180 -34.124  1.00  0.00     0.263 C 
BRANCH   6  11
HETATM   11  O   UNL     1      -9.608   2.088 -30.926  1.00  0.00    -0.392 OA
HETATM   12  H   UNL     1      -9.278   2.974 -31.173  1.00  0.00     0.210 HD
ENDBRANCH   6  11
BRANCH   8  13
HETATM   13  C   UNL     1      -9.865   4.233 -33.308  1.00  0.00     0.180 C 
HETATM   14  C   UNL     1      -8.635   4.973 -33.846  1.00  0.00     0.039 C 
HETATM   15  C   UNL     1     -11.118   5.022 -33.690  1.00  0.00     0.039 C 
ENDBRANCH   8  13
ENDBRANCH   2   5
BRANCH   1  16
HETATM   16  C   UNL     1      -5.400  -1.123 -33.145  1.00  0.00     0.035 A 
HETATM   17  C   UNL     1      -4.310  -1.513 -32.367  1.00  0.00     0.041 A 
HETATM   18  C   UNL     1      -3.686  -2.748 -32.596  1.00  0.00     0.042 A 
HETATM   19  C   UNL     1      -4.136  -3.623 -33.601  1.00  0.00    -0.018 A 
HETATM   20 CL   UNL     1      -2.324  -3.118 -31.596  1.00  0.00    -0.084 Cl
HETATM   21  C   UNL     1      -3.445  -4.936 -33.869  1.00  0.00     0.052 C 
HETATM   22  C   UNL     1      -5.210  -3.192 -34.400  1.00  0.00     0.042 A 
HETATM   23  C   UNL     1      -5.838  -1.963 -34.171  1.00  0.00     0.041 A 
HETATM   24 CL   UNL     1      -5.803  -4.137 -35.721  1.00  0.00    -0.084 Cl
ENDBRANCH   1  16
TORSDOF 4
ENDMDL
