MODEL 1
REMARK VINA RESULT:      -8.7      0.000      0.000
REMARK  8 active torsions:
REMARK  status: ('A' for Active; 'I' for Inactive)
REMARK    1  A    between atoms: C_2  and  C_3 
REMARK    2  A    between atoms: C_3  and  C_4 
REMARK    3  A    between atoms: C_7  and  N_8 
REMARK       I    between atoms: N_8  and  C_9 
REMARK    4  A    between atoms: C_9  and  C_10 
REMARK    5  A    between atoms: C_13  and  N_14 
REMARK       I    between atoms: N_14  and  C_15 
REMARK    6  A    between atoms: C_15  and  C_16 
REMARK    7  A    between atoms: C_16  and  C_17 
REMARK    8  A    between atoms: C_19  and  N_20 
ROOT
HETATM    1  C   UNL     1      -5.966   3.064 -30.758  1.00  0.00     0.032 A 
HETATM    2  C   UNL     1      -6.914   3.688 -29.940  1.00  0.00     0.019 A 
HETATM    3  C   UNL     1      -6.701   4.995 -29.479  1.00  0.00     0.030 A 
HETATM    4  C   UNL     1      -5.538   5.691 -29.815  1.00  0.00     0.034 A 
HETATM    5  C   UNL     1      -4.570   5.046 -30.594  1.00  0.00     0.030 A 
HETATM    6  C   UNL     1      -4.781   3.745 -31.060  1.00  0.00     0.019 A 
ENDROOT
BRANCH   4   7
HETATM    7  N   UNL     1      -5.266   7.018 -29.423  1.00  0.00    -0.327 N 
HETATM    8  C   UNL     1      -4.795   7.452 -28.197  1.00  0.00     0.223 C 
HETATM    9  O   UNL     1      -4.548   6.748 -27.223  1.00  0.00    -0.273 OA
HETATM   10  H   UNL     1      -5.452   7.726 -30.122  1.00  0.00     0.169 HD
BRANCH   8  11
HETATM   11  C   UNL     1      -4.646   8.958 -28.124  1.00  0.00     0.128 C 
BRANCH  11  12
HETATM   12  C   UNL     1      -3.656   9.442 -29.173  1.00  0.00     0.158 C 
HETATM   13  S   UNL     1      -2.267   8.287 -29.363  1.00  0.00    -0.077 SA
HETATM   14  C   UNL     1      -2.421   8.355 -31.110  1.00  0.00     0.168 C 
HETATM   15  N   UNL     1      -3.463   8.983 -31.549  1.00  0.00    -0.189 NA
HETATM   16  C   UNL     1      -4.272   9.482 -30.556  1.00  0.00     0.260 C 
HETATM   17  O   UNL     1      -5.388   9.944 -30.767  1.00  0.00    -0.270 OA
BRANCH  14  18
HETATM   18  N   UNL     1      -1.449   7.790 -31.907  1.00  0.00    -0.360 N 
HETATM   19  C   UNL     1      -0.367   6.939 -31.404  1.00  0.00     0.125 C 
HETATM   20  C   UNL     1      -0.768   5.470 -31.554  1.00  0.00     0.020 C 
HETATM   21  C   UNL     1      -1.127   5.144 -33.006  1.00  0.00     0.003 C 
HETATM   22  C   UNL     1      -2.166   6.123 -33.553  1.00  0.00     0.020 C 
HETATM   23  C   UNL     1      -1.725   7.569 -33.334  1.00  0.00     0.125 C 
ENDBRANCH  14  18
ENDBRANCH  11  12
ENDBRANCH   8  11
ENDBRANCH   4   7
BRANCH   1  24
HETATM   24  C   UNL     1      -6.160   1.705 -31.351  1.00  0.00     0.256 C 
HETATM   25  N   UNL     1      -5.281   1.362 -32.364  1.00  0.00    -0.323 N 
HETATM   26  H   UNL     1      -4.613   2.058 -32.662  1.00  0.00     0.169 HD
HETATM   27  O   UNL     1      -7.038   0.992 -30.878  1.00  0.00    -0.267 OA
BRANCH  25  28
HETATM   28  C   UNL     1      -5.126   0.096 -32.969  1.00  0.00     0.035 A 
HETATM   29  C   UNL     1      -6.044  -0.465 -33.854  1.00  0.00     0.030 A 
HETATM   30  C   UNL     1      -5.857  -1.764 -34.348  1.00  0.00     0.010 A 
HETATM   31  C   UNL     1      -4.734  -2.519 -33.989  1.00  0.00    -0.054 A 
HETATM   32  C   UNL     1      -3.804  -1.941 -33.113  1.00  0.00     0.010 A 
HETATM   33  C   UNL     1      -4.000  -0.652 -32.607  1.00  0.00     0.030 A 
BRANCH  31  34
HETATM   34  C   UNL     1      -4.526  -3.954 -34.450  1.00  0.00     0.014 C 
HETATM   35  C   UNL     1      -3.488  -4.625 -33.540  1.00  0.00     0.015 C 
BRANCH  34  36
HETATM   36  C   UNL     1      -5.797  -4.826 -34.524  1.00  0.00     0.004 C 
HETATM   37  C   UNL     1      -6.664  -4.528 -35.740  1.00  0.00     0.006 C 
ENDBRANCH  34  36
ENDBRANCH  31  34
ENDBRANCH  25  28
ENDBRANCH   1  24
TORSDOF 8
ENDMDL
MODEL 2
REMARK VINA RESULT:      -8.6      3.472      5.698
REMARK  8 active torsions:
REMARK  status: ('A' for Active; 'I' for Inactive)
REMARK    1  A    between atoms: C_2  and  C_3 
REMARK    2  A    between atoms: C_3  and  C_4 
REMARK    3  A    between atoms: C_7  and  N_8 
REMARK       I    between atoms: N_8  and  C_9 
REMARK    4  A    between atoms: C_9  and  C_10 
REMARK    5  A    between atoms: C_13  and  N_14 
REMARK       I    between atoms: N_14  and  C_15 
REMARK    6  A    between atoms: C_15  and  C_16 
REMARK    7  A    between atoms: C_16  and  C_17 
REMARK    8  A    between atoms: C_19  and  N_20 
ROOT
HETATM    1  C   UNL     1      -1.722   4.992 -31.406  1.00  0.00     0.032 A 
HETATM    2  C   UNL     1      -2.395   5.907 -30.589  1.00  0.00     0.019 A 
HETATM    3  C   UNL     1      -1.677   6.854 -29.845  1.00  0.00     0.030 A 
HETATM    4  C   UNL     1      -0.283   6.893 -29.895  1.00  0.00     0.034 A 
HETATM    5  C   UNL     1       0.390   5.946 -30.675  1.00  0.00     0.030 A 
HETATM    6  C   UNL     1      -0.323   5.003 -31.423  1.00  0.00     0.019 A 
ENDROOT
BRANCH   4   7
HETATM    7  N   UNL     1       0.509   7.837 -29.207  1.00  0.00    -0.327 N 
HETATM    8  C   UNL     1       0.982   7.750 -27.910  1.00  0.00     0.223 C 
HETATM    9  O   UNL     1       0.775   6.834 -27.121  1.00  0.00    -0.273 OA
HETATM   10  H   UNL     1       0.741   8.674 -29.727  1.00  0.00     0.169 HD
BRANCH   8  11
HETATM   11  C   UNL     1       1.781   8.968 -27.493  1.00  0.00     0.128 C 
BRANCH  11  12
HETATM   12  C   UNL     1       0.929   9.890 -26.633  1.00  0.00     0.158 C 
HETATM   13  S   UNL     1      -0.778   9.986 -27.248  1.00  0.00    -0.077 SA
HETATM   14  C   UNL     1      -1.399   9.756 -25.623  1.00  0.00     0.168 C 
HETATM   15  N   UNL     1      -0.513   9.453 -24.730  1.00  0.00    -0.189 NA
HETATM   16  C   UNL     1       0.766   9.359 -25.224  1.00  0.00     0.260 C 
HETATM   17  O   UNL     1       1.705   8.909 -24.578  1.00  0.00    -0.270 OA
BRANCH  14  18
HETATM   18  N   UNL     1      -2.742   9.931 -25.370  1.00  0.00    -0.360 N 
HETATM   19  C   UNL     1      -3.626  10.776 -26.179  1.00  0.00     0.125 C 
HETATM   20  C   UNL     1      -4.351   9.906 -27.208  1.00  0.00     0.020 C 
HETATM   21  C   UNL     1      -5.112   8.766 -26.527  1.00  0.00     0.003 C 
HETATM   22  C   UNL     1      -4.200   7.975 -25.588  1.00  0.00     0.020 C 
HETATM   23  C   UNL     1      -3.475   8.905 -24.616  1.00  0.00     0.125 C 
ENDBRANCH  14  18
ENDBRANCH  11  12
ENDBRANCH   8  11
ENDBRANCH   4   7
BRANCH   1  24
HETATM   24  C   UNL     1      -2.422   4.007 -32.287  1.00  0.00     0.256 C 
HETATM   25  N   UNL     1      -3.104   2.996 -31.632  1.00  0.00    -0.323 N 
HETATM   26  H   UNL     1      -3.043   2.964 -30.625  1.00  0.00     0.169 HD
HETATM   27  O   UNL     1      -2.376   4.188 -33.499  1.00  0.00    -0.267 OA
BRANCH  25  28
HETATM   28  C   UNL     1      -3.983   2.050 -32.201  1.00  0.00     0.035 A 
HETATM   29  C   UNL     1      -3.651   0.717 -32.440  1.00  0.00     0.030 A 
HETATM   30  C   UNL     1      -4.553  -0.140 -33.086  1.00  0.00     0.010 A 
HETATM   31  C   UNL     1      -5.818   0.311 -33.484  1.00  0.00    -0.054 A 
HETATM   32  C   UNL     1      -6.154   1.647 -33.223  1.00  0.00     0.010 A 
HETATM   33  C   UNL     1      -5.246   2.505 -32.594  1.00  0.00     0.030 A 
BRANCH  31  34
HETATM   34  C   UNL     1      -6.801  -0.566 -34.244  1.00  0.00     0.014 C 
HETATM   35  C   UNL     1      -7.554   0.297 -35.266  1.00  0.00     0.015 C 
BRANCH  34  36
HETATM   36  C   UNL     1      -6.196  -1.799 -34.948  1.00  0.00     0.004 C 
HETATM   37  C   UNL     1      -6.818  -3.116 -34.501  1.00  0.00     0.006 C 
ENDBRANCH  34  36
ENDBRANCH  31  34
ENDBRANCH  25  28
ENDBRANCH   1  24
TORSDOF 8
ENDMDL
MODEL 3
REMARK VINA RESULT:      -8.6      4.519     10.706
REMARK  8 active torsions:
REMARK  status: ('A' for Active; 'I' for Inactive)
REMARK    1  A    between atoms: C_2  and  C_3 
REMARK    2  A    between atoms: C_3  and  C_4 
REMARK    3  A    between atoms: C_7  and  N_8 
REMARK       I    between atoms: N_8  and  C_9 
REMARK    4  A    between atoms: C_9  and  C_10 
REMARK    5  A    between atoms: C_13  and  N_14 
REMARK       I    between atoms: N_14  and  C_15 
REMARK    6  A    between atoms: C_15  and  C_16 
REMARK    7  A    between atoms: C_16  and  C_17 
REMARK    8  A    between atoms: C_19  and  N_20 
ROOT
HETATM    1  C   UNL     1      -3.457   4.793 -31.754  1.00  0.00     0.032 A 
HETATM    2  C   UNL     1      -4.742   4.867 -32.303  1.00  0.00     0.019 A 
HETATM    3  C   UNL     1      -5.403   3.701 -32.716  1.00  0.00     0.030 A 
HETATM    4  C   UNL     1      -4.790   2.453 -32.600  1.00  0.00     0.034 A 
HETATM    5  C   UNL     1      -3.487   2.387 -32.095  1.00  0.00     0.030 A 
HETATM    6  C   UNL     1      -2.826   3.546 -31.677  1.00  0.00     0.019 A 
ENDROOT
BRANCH   4   7
HETATM    7  N   UNL     1      -5.401   1.233 -32.958  1.00  0.00    -0.327 N 
HETATM    8  C   UNL     1      -6.323   0.508 -32.223  1.00  0.00     0.223 C 
HETATM    9  O   UNL     1      -6.756   0.797 -31.113  1.00  0.00    -0.273 OA
HETATM   10  H   UNL     1      -5.117   0.847 -33.850  1.00  0.00     0.169 HD
BRANCH   8  11
HETATM   11  C   UNL     1      -6.744  -0.775 -32.912  1.00  0.00     0.128 C 
BRANCH  11  12
HETATM   12  C   UNL     1      -8.075  -0.580 -33.624  1.00  0.00     0.158 C 
HETATM   13  S   UNL     1      -9.338   0.094 -32.506  1.00  0.00    -0.077 SA
HETATM   14  C   UNL     1      -9.805   1.279 -33.713  1.00  0.00     0.168 C 
HETATM   15  N   UNL     1      -9.038   1.341 -34.753  1.00  0.00    -0.189 NA
HETATM   16  C   UNL     1      -7.982   0.462 -34.719  1.00  0.00     0.260 C 
HETATM   17  O   UNL     1      -7.053   0.497 -35.518  1.00  0.00    -0.270 OA
BRANCH  14  18
HETATM   18  N   UNL     1     -10.940   2.038 -33.526  1.00  0.00    -0.360 N 
HETATM   19  C   UNL     1     -10.938   3.499 -33.399  1.00  0.00     0.125 C 
HETATM   20  C   UNL     1     -11.239   4.123 -34.763  1.00  0.00     0.020 C 
HETATM   21  C   UNL     1     -12.560   3.598 -35.330  1.00  0.00     0.003 C 
HETATM   22  C   UNL     1     -12.591   2.069 -35.335  1.00  0.00     0.020 C 
HETATM   23  C   UNL     1     -12.241   1.510 -33.958  1.00  0.00     0.125 C 
ENDBRANCH  14  18
ENDBRANCH  11  12
ENDBRANCH   8  11
ENDBRANCH   4   7
BRANCH   1  24
HETATM   24  C   UNL     1      -2.722   5.981 -31.219  1.00  0.00     0.256 C 
HETATM   25  N   UNL     1      -2.081   5.793 -30.007  1.00  0.00    -0.323 N 
HETATM   26  H   UNL     1      -2.191   4.900 -29.551  1.00  0.00     0.169 HD
HETATM   27  O   UNL     1      -2.706   7.000 -31.901  1.00  0.00    -0.267 OA
BRANCH  25  28
HETATM   28  C   UNL     1      -1.181   6.675 -29.370  1.00  0.00     0.035 A 
HETATM   29  C   UNL     1       0.135   6.879 -29.778  1.00  0.00     0.030 A 
HETATM   30  C   UNL     1       0.991   7.710 -29.041  1.00  0.00     0.010 A 
HETATM   31  C   UNL     1       0.541   8.376 -27.895  1.00  0.00    -0.054 A 
HETATM   32  C   UNL     1      -0.791   8.182 -27.500  1.00  0.00     0.010 A 
HETATM   33  C   UNL     1      -1.639   7.339 -28.226  1.00  0.00     0.030 A 
BRANCH  31  34
HETATM   34  C   UNL     1       1.452   9.234 -27.031  1.00  0.00     0.014 C 
HETATM   35  C   UNL     1       0.643  10.410 -26.466  1.00  0.00     0.015 C 
BRANCH  34  36
HETATM   36  C   UNL     1       2.176   8.500 -25.883  1.00  0.00     0.004 C 
HETATM   37  C   UNL     1       2.661   9.432 -24.781  1.00  0.00     0.006 C 
ENDBRANCH  34  36
ENDBRANCH  31  34
ENDBRANCH  25  28
ENDBRANCH   1  24
TORSDOF 8
ENDMDL
MODEL 4
REMARK VINA RESULT:      -8.6      3.514     10.178
REMARK  8 active torsions:
REMARK  status: ('A' for Active; 'I' for Inactive)
REMARK    1  A    between atoms: C_2  and  C_3 
REMARK    2  A    between atoms: C_3  and  C_4 
REMARK    3  A    between atoms: C_7  and  N_8 
REMARK       I    between atoms: N_8  and  C_9 
REMARK    4  A    between atoms: C_9  and  C_10 
REMARK    5  A    between atoms: C_13  and  N_14 
REMARK       I    between atoms: N_14  and  C_15 
REMARK    6  A    between atoms: C_15  and  C_16 
REMARK    7  A    between atoms: C_16  and  C_17 
REMARK    8  A    between atoms: C_19  and  N_20 
ROOT
HETATM    1  C   UNL     1      -3.460   4.688 -32.785  1.00  0.00     0.032 A 
HETATM    2  C   UNL     1      -4.411   5.106 -33.721  1.00  0.00     0.019 A 
HETATM    3  C   UNL     1      -5.465   4.256 -34.087  1.00  0.00     0.030 A 
HETATM    4  C   UNL     1      -5.577   2.978 -33.536  1.00  0.00     0.034 A 
HETATM    5  C   UNL     1      -4.597   2.545 -32.636  1.00  0.00     0.030 A 
HETATM    6  C   UNL     1      -3.547   3.392 -32.265  1.00  0.00     0.019 A 
ENDROOT
BRANCH   4   7
HETATM    7  N   UNL     1      -6.625   2.079 -33.824  1.00  0.00    -0.327 N 
HETATM    8  C   UNL     1      -7.950   2.184 -33.441  1.00  0.00     0.223 C 
HETATM    9  O   UNL     1      -8.441   3.079 -32.761  1.00  0.00    -0.273 OA
HETATM   10  H   UNL     1      -6.364   1.262 -34.362  1.00  0.00     0.169 HD
BRANCH   8  11
HETATM   11  C   UNL     1      -8.791   1.013 -33.909  1.00  0.00     0.128 C 
BRANCH  11  12
HETATM   12  C   UNL     1      -8.113  -0.301 -33.550  1.00  0.00     0.158 C 
HETATM   13  S   UNL     1      -6.868  -0.768 -34.786  1.00  0.00    -0.077 SA
HETATM   14  C   UNL     1      -5.711  -1.128 -33.517  1.00  0.00     0.168 C 
HETATM   15  N   UNL     1      -6.075  -0.787 -32.323  1.00  0.00    -0.189 NA
HETATM   16  C   UNL     1      -7.313  -0.192 -32.268  1.00  0.00     0.260 C 
HETATM   17  O   UNL     1      -7.750   0.359 -31.264  1.00  0.00    -0.270 OA
BRANCH  14  18
HETATM   18  N   UNL     1      -4.527  -1.762 -33.826  1.00  0.00    -0.360 N 
HETATM   19  C   UNL     1      -3.364  -1.811 -32.934  1.00  0.00     0.125 C 
HETATM   20  C   UNL     1      -3.388  -3.124 -32.148  1.00  0.00     0.020 C 
HETATM   21  C   UNL     1      -3.440  -4.329 -33.091  1.00  0.00     0.003 C 
HETATM   22  C   UNL     1      -4.583  -4.196 -34.098  1.00  0.00     0.020 C 
HETATM   23  C   UNL     1      -4.527  -2.848 -34.815  1.00  0.00     0.125 C 
ENDBRANCH  14  18
ENDBRANCH  11  12
ENDBRANCH   8  11
ENDBRANCH   4   7
BRANCH   1  24
HETATM   24  C   UNL     1      -2.356   5.566 -32.288  1.00  0.00     0.256 C 
HETATM   25  N   UNL     1      -2.418   5.905 -30.947  1.00  0.00    -0.323 N 
HETATM   26  H   UNL     1      -3.215   5.585 -30.418  1.00  0.00     0.169 HD
HETATM   27  O   UNL     1      -1.472   5.880 -33.077  1.00  0.00    -0.267 OA
BRANCH  25  28
HETATM   28  C   UNL     1      -1.429   6.564 -30.185  1.00  0.00     0.035 A 
HETATM   29  C   UNL     1      -0.140   6.073 -29.984  1.00  0.00     0.030 A 
HETATM   30  C   UNL     1       0.758   6.747 -29.144  1.00  0.00     0.010 A 
HETATM   31  C   UNL     1       0.396   7.941 -28.509  1.00  0.00    -0.054 A 
HETATM   32  C   UNL     1      -0.895   8.441 -28.731  1.00  0.00     0.010 A 
HETATM   33  C   UNL     1      -1.796   7.758 -29.555  1.00  0.00     0.030 A 
BRANCH  31  34
HETATM   34  C   UNL     1       1.316   8.669 -27.541  1.00  0.00     0.014 C 
HETATM   35  C   UNL     1       0.598   9.919 -27.013  1.00  0.00     0.015 C 
BRANCH  34  36
HETATM   36  C   UNL     1       1.844   7.831 -26.357  1.00  0.00     0.004 C 
HETATM   37  C   UNL     1       2.249   8.673 -25.155  1.00  0.00     0.006 C 
ENDBRANCH  34  36
ENDBRANCH  31  34
ENDBRANCH  25  28
ENDBRANCH   1  24
TORSDOF 8
ENDMDL
MODEL 5
REMARK VINA RESULT:      -8.5      6.128      7.480
REMARK  8 active torsions:
REMARK  status: ('A' for Active; 'I' for Inactive)
REMARK    1  A    between atoms: C_2  and  C_3 
REMARK    2  A    between atoms: C_3  and  C_4 
REMARK    3  A    between atoms: C_7  and  N_8 
REMARK       I    between atoms: N_8  and  C_9 
REMARK    4  A    between atoms: C_9  and  C_10 
REMARK    5  A    between atoms: C_13  and  N_14 
REMARK       I    between atoms: N_14  and  C_15 
REMARK    6  A    between atoms: C_15  and  C_16 
REMARK    7  A    between atoms: C_16  and  C_17 
REMARK    8  A    between atoms: C_19  and  N_20 
ROOT
HETATM    1  C   UNL     1      -1.250   5.682 -30.878  1.00  0.00     0.032 A 
HETATM    2  C   UNL     1      -0.079   5.436 -30.153  1.00  0.00     0.019 A 
HETATM    3  C   UNL     1       0.403   6.388 -29.244  1.00  0.00     0.030 A 
HETATM    4  C   UNL     1      -0.266   7.599 -29.054  1.00  0.00     0.034 A 
HETATM    5  C   UNL     1      -1.410   7.862 -29.815  1.00  0.00     0.030 A 
HETATM    6  C   UNL     1      -1.897   6.913 -30.720  1.00  0.00     0.019 A 
ENDROOT
BRANCH   4   7
HETATM    7  N   UNL     1       0.134   8.590 -28.133  1.00  0.00    -0.327 N 
HETATM    8  C   UNL     1      -0.349   8.790 -26.852  1.00  0.00     0.223 C 
HETATM    9  O   UNL     1      -1.231   8.142 -26.299  1.00  0.00    -0.273 OA
HETATM   10  H   UNL     1       0.846   9.230 -28.463  1.00  0.00     0.169 HD
BRANCH   8  11
HETATM   11  C   UNL     1       0.296   9.973 -26.159  1.00  0.00     0.128 C 
BRANCH  11  12
HETATM   12  C   UNL     1       0.923   9.537 -24.843  1.00  0.00     0.158 C 
HETATM   13  S   UNL     1       2.592   8.862 -25.090  1.00  0.00    -0.077 SA
HETATM   14  C   UNL     1       3.202   9.829 -23.758  1.00  0.00     0.168 C 
HETATM   15  N   UNL     1       2.372  10.697 -23.278  1.00  0.00    -0.189 NA
HETATM   16  C   UNL     1       1.151  10.708 -23.910  1.00  0.00     0.260 C 
HETATM   17  O   UNL     1       0.305  11.574 -23.722  1.00  0.00    -0.270 OA
BRANCH  14  18
HETATM   18  N   UNL     1       4.475   9.610 -23.279  1.00  0.00    -0.360 N 
HETATM   19  C   UNL     1       5.352  10.667 -22.764  1.00  0.00     0.125 C 
HETATM   20  C   UNL     1       5.228  10.726 -21.240  1.00  0.00     0.020 C 
HETATM   21  C   UNL     1       5.538   9.366 -20.609  1.00  0.00     0.003 C 
HETATM   22  C   UNL     1       4.703   8.256 -21.250  1.00  0.00     0.020 C 
HETATM   23  C   UNL     1       4.837   8.279 -22.772  1.00  0.00     0.125 C 
ENDBRANCH  14  18
ENDBRANCH  11  12
ENDBRANCH   8  11
ENDBRANCH   4   7
BRANCH   1  24
HETATM   24  C   UNL     1      -1.868   4.683 -31.805  1.00  0.00     0.256 C 
HETATM   25  N   UNL     1      -2.866   3.896 -31.259  1.00  0.00    -0.323 N 
HETATM   26  H   UNL     1      -3.072   4.012 -30.278  1.00  0.00     0.169 HD
HETATM   27  O   UNL     1      -1.481   4.666 -32.968  1.00  0.00    -0.267 OA
BRANCH  25  28
HETATM   28  C   UNL     1      -3.727   3.010 -31.943  1.00  0.00     0.035 A 
HETATM   29  C   UNL     1      -4.859   3.410 -32.650  1.00  0.00     0.030 A 
HETATM   30  C   UNL     1      -5.710   2.460 -33.233  1.00  0.00     0.010 A 
HETATM   31  C   UNL     1      -5.432   1.091 -33.144  1.00  0.00    -0.054 A 
HETATM   32  C   UNL     1      -4.281   0.696 -32.447  1.00  0.00     0.010 A 
HETATM   33  C   UNL     1      -3.443   1.643 -31.851  1.00  0.00     0.030 A 
BRANCH  31  34
HETATM   34  C   UNL     1      -6.361   0.025 -33.705  1.00  0.00     0.014 C 
HETATM   35  C   UNL     1      -6.936   0.517 -35.041  1.00  0.00     0.015 C 
BRANCH  34  36
HETATM   36  C   UNL     1      -5.743  -1.377 -33.887  1.00  0.00     0.004 C 
HETATM   37  C   UNL     1      -6.654  -2.347 -34.628  1.00  0.00     0.006 C 
ENDBRANCH  34  36
ENDBRANCH  31  34
ENDBRANCH  25  28
ENDBRANCH   1  24
TORSDOF 8
ENDMDL
MODEL 6
REMARK VINA RESULT:      -8.5      7.097     12.479
REMARK  8 active torsions:
REMARK  status: ('A' for Active; 'I' for Inactive)
REMARK    1  A    between atoms: C_2  and  C_3 
REMARK    2  A    between atoms: C_3  and  C_4 
REMARK    3  A    between atoms: C_7  and  N_8 
REMARK       I    between atoms: N_8  and  C_9 
REMARK    4  A    between atoms: C_9  and  C_10 
REMARK    5  A    between atoms: C_13  and  N_14 
REMARK       I    between atoms: N_14  and  C_15 
REMARK    6  A    between atoms: C_15  and  C_16 
REMARK    7  A    between atoms: C_16  and  C_17 
REMARK    8  A    between atoms: C_19  and  N_20 
ROOT
HETATM    1  C   UNL     1       0.852   8.998 -26.378  1.00  0.00     0.032 A 
HETATM    2  C   UNL     1      -0.547   9.019 -26.386  1.00  0.00     0.019 A 
HETATM    3  C   UNL     1      -1.256   8.481 -27.469  1.00  0.00     0.030 A 
HETATM    4  C   UNL     1      -0.584   7.928 -28.560  1.00  0.00     0.034 A 
HETATM    5  C   UNL     1       0.815   7.952 -28.571  1.00  0.00     0.030 A 
HETATM    6  C   UNL     1       1.527   8.483 -27.490  1.00  0.00     0.019 A 
ENDROOT
BRANCH   4   7
HETATM    7  N   UNL     1      -1.223   7.335 -29.669  1.00  0.00    -0.327 N 
HETATM    8  C   UNL     1      -1.885   7.979 -30.699  1.00  0.00     0.223 C 
HETATM    9  O   UNL     1      -2.047   9.188 -30.816  1.00  0.00    -0.273 OA
HETATM   10  H   UNL     1      -1.199   6.323 -29.697  1.00  0.00     0.169 HD
BRANCH   8  11
HETATM   11  C   UNL     1      -2.477   7.015 -31.709  1.00  0.00     0.128 C 
BRANCH  11  12
HETATM   12  C   UNL     1      -2.845   5.702 -31.033  1.00  0.00     0.158 C 
HETATM   13  S   UNL     1      -4.501   5.140 -31.524  1.00  0.00    -0.077 SA
HETATM   14  C   UNL     1      -3.891   3.519 -31.806  1.00  0.00     0.168 C 
HETATM   15  N   UNL     1      -2.605   3.394 -31.745  1.00  0.00    -0.189 NA
HETATM   16  C   UNL     1      -1.944   4.568 -31.474  1.00  0.00     0.260 C 
HETATM   17  O   UNL     1      -0.726   4.688 -31.555  1.00  0.00    -0.270 OA
BRANCH  14  18
HETATM   18  N   UNL     1      -4.772   2.485 -32.039  1.00  0.00    -0.360 N 
HETATM   19  C   UNL     1      -4.362   1.114 -32.360  1.00  0.00     0.125 C 
HETATM   20  C   UNL     1      -4.355   0.278 -31.078  1.00  0.00     0.020 C 
HETATM   21  C   UNL     1      -5.718   0.322 -30.384  1.00  0.00     0.003 C 
HETATM   22  C   UNL     1      -6.186   1.763 -30.174  1.00  0.00     0.020 C 
HETATM   23  C   UNL     1      -6.129   2.553 -31.480  1.00  0.00     0.125 C 
ENDBRANCH  14  18
ENDBRANCH  11  12
ENDBRANCH   8  11
ENDBRANCH   4   7
BRANCH   1  24
HETATM   24  C   UNL     1       1.674   9.480 -25.225  1.00  0.00     0.256 C 
HETATM   25  N   UNL     1       2.496   8.533 -24.638  1.00  0.00    -0.323 N 
HETATM   26  H   UNL     1       2.449   7.588 -24.988  1.00  0.00     0.169 HD
HETATM   27  O   UNL     1       1.594  10.664 -24.918  1.00  0.00    -0.267 OA
BRANCH  25  28
HETATM   28  C   UNL     1       3.494   8.754 -23.663  1.00  0.00     0.035 A 
HETATM   29  C   UNL     1       4.733   9.333 -23.930  1.00  0.00     0.030 A 
HETATM   30  C   UNL     1       5.702   9.441 -22.923  1.00  0.00     0.010 A 
HETATM   31  C   UNL     1       5.444   8.996 -21.621  1.00  0.00    -0.054 A 
HETATM   32  C   UNL     1       4.188   8.431 -21.354  1.00  0.00     0.010 A 
HETATM   33  C   UNL     1       3.228   8.308 -22.364  1.00  0.00     0.030 A 
BRANCH  31  34
HETATM   34  C   UNL     1       6.489   9.035 -20.516  1.00  0.00     0.014 C 
HETATM   35  C   UNL     1       6.128  10.152 -19.527  1.00  0.00     0.015 C 
BRANCH  34  36
HETATM   36  C   UNL     1       6.708   7.712 -19.752  1.00  0.00     0.004 C 
HETATM   37  C   UNL     1       8.160   7.253 -19.745  1.00  0.00     0.006 C 
ENDBRANCH  34  36
ENDBRANCH  31  34
ENDBRANCH  25  28
ENDBRANCH   1  24
TORSDOF 8
ENDMDL
MODEL 7
REMARK VINA RESULT:      -8.4      2.218      3.128
REMARK  8 active torsions:
REMARK  status: ('A' for Active; 'I' for Inactive)
REMARK    1  A    between atoms: C_2  and  C_3 
REMARK    2  A    between atoms: C_3  and  C_4 
REMARK    3  A    between atoms: C_7  and  N_8 
REMARK       I    between atoms: N_8  and  C_9 
REMARK    4  A    between atoms: C_9  and  C_10 
REMARK    5  A    between atoms: C_13  and  N_14 
REMARK       I    between atoms: N_14  and  C_15 
REMARK    6  A    between atoms: C_15  and  C_16 
REMARK    7  A    between atoms: C_16  and  C_17 
REMARK    8  A    between atoms: C_19  and  N_20 
ROOT
HETATM    1  C   UNL     1      -5.789   3.590 -31.776  1.00  0.00     0.032 A 
HETATM    2  C   UNL     1      -6.767   4.549 -32.059  1.00  0.00     0.019 A 
HETATM    3  C   UNL     1      -6.463   5.915 -31.977  1.00  0.00     0.030 A 
HETATM    4  C   UNL     1      -5.188   6.342 -31.600  1.00  0.00     0.034 A 
HETATM    5  C   UNL     1      -4.226   5.381 -31.271  1.00  0.00     0.030 A 
HETATM    6  C   UNL     1      -4.524   4.017 -31.357  1.00  0.00     0.019 A 
ENDROOT
BRANCH   4   7
HETATM    7  N   UNL     1      -4.793   7.695 -31.529  1.00  0.00    -0.327 N 
HETATM    8  C   UNL     1      -5.243   8.655 -30.640  1.00  0.00     0.223 C 
HETATM    9  O   UNL     1      -6.086   8.497 -29.764  1.00  0.00    -0.273 OA
HETATM   10  H   UNL     1      -4.113   7.988 -32.219  1.00  0.00     0.169 HD
BRANCH   8  11
HETATM   11  C   UNL     1      -4.616  10.015 -30.878  1.00  0.00     0.128 C 
BRANCH  11  12
HETATM   12  C   UNL     1      -3.264  10.100 -30.186  1.00  0.00     0.158 C 
HETATM   13  S   UNL     1      -3.350   9.497 -28.474  1.00  0.00    -0.077 SA
HETATM   14  C   UNL     1      -1.899   8.540 -28.716  1.00  0.00     0.168 C 
HETATM   15  N   UNL     1      -1.469   8.484 -29.935  1.00  0.00    -0.189 NA
HETATM   16  C   UNL     1      -2.240   9.188 -30.829  1.00  0.00     0.260 C 
HETATM   17  O   UNL     1      -2.102   9.108 -32.045  1.00  0.00    -0.270 OA
BRANCH  14  18
HETATM   18  N   UNL     1      -1.286   7.940 -27.638  1.00  0.00    -0.360 N 
HETATM   19  C   UNL     1      -0.632   6.628 -27.690  1.00  0.00     0.125 C 
HETATM   20  C   UNL     1       0.869   6.822 -27.917  1.00  0.00     0.020 C 
HETATM   21  C   UNL     1       1.476   7.723 -26.839  1.00  0.00     0.003 C 
HETATM   22  C   UNL     1       0.700   9.035 -26.712  1.00  0.00     0.020 C 
HETATM   23  C   UNL     1      -0.794   8.772 -26.531  1.00  0.00     0.125 C 
ENDBRANCH  14  18
ENDBRANCH  11  12
ENDBRANCH   8  11
ENDBRANCH   4   7
BRANCH   1  24
HETATM   24  C   UNL     1      -6.015   2.118 -31.919  1.00  0.00     0.256 C 
HETATM   25  N   UNL     1      -5.903   1.617 -33.205  1.00  0.00    -0.323 N 
HETATM   26  H   UNL     1      -5.729   2.273 -33.951  1.00  0.00     0.169 HD
HETATM   27  O   UNL     1      -6.236   1.470 -30.902  1.00  0.00    -0.267 OA
BRANCH  25  28
HETATM   28  C   UNL     1      -5.892   0.260 -33.596  1.00  0.00     0.035 A 
HETATM   29  C   UNL     1      -6.998  -0.414 -34.111  1.00  0.00     0.030 A 
HETATM   30  C   UNL     1      -6.928  -1.785 -34.397  1.00  0.00     0.010 A 
HETATM   31  C   UNL     1      -5.744  -2.505 -34.200  1.00  0.00    -0.054 A 
HETATM   32  C   UNL     1      -4.629  -1.816 -33.700  1.00  0.00     0.010 A 
HETATM   33  C   UNL     1      -4.705  -0.453 -33.398  1.00  0.00     0.030 A 
BRANCH  31  34
HETATM   34  C   UNL     1      -5.644  -4.004 -34.437  1.00  0.00     0.014 C 
HETATM   35  C   UNL     1      -6.507  -4.377 -35.650  1.00  0.00     0.015 C 
BRANCH  34  36
HETATM   36  C   UNL     1      -4.217  -4.562 -34.621  1.00  0.00     0.004 C 
HETATM   37  C   UNL     1      -3.595  -5.067 -33.325  1.00  0.00     0.006 C 
ENDBRANCH  34  36
ENDBRANCH  31  34
ENDBRANCH  25  28
ENDBRANCH   1  24
TORSDOF 8
ENDMDL
MODEL 8
REMARK VINA RESULT:      -8.4      5.083     11.388
REMARK  8 active torsions:
REMARK  status: ('A' for Active; 'I' for Inactive)
REMARK    1  A    between atoms: C_2  and  C_3 
REMARK    2  A    between atoms: C_3  and  C_4 
REMARK    3  A    between atoms: C_7  and  N_8 
REMARK       I    between atoms: N_8  and  C_9 
REMARK    4  A    between atoms: C_9  and  C_10 
REMARK    5  A    between atoms: C_13  and  N_14 
REMARK       I    between atoms: N_14  and  C_15 
REMARK    6  A    between atoms: C_15  and  C_16 
REMARK    7  A    between atoms: C_16  and  C_17 
REMARK    8  A    between atoms: C_19  and  N_20 
ROOT
HETATM    1  C   UNL     1      -1.961   5.711 -31.351  1.00  0.00     0.032 A 
HETATM    2  C   UNL     1      -1.613   4.816 -32.368  1.00  0.00     0.019 A 
HETATM    3  C   UNL     1      -2.603   4.073 -33.028  1.00  0.00     0.030 A 
HETATM    4  C   UNL     1      -3.947   4.203 -32.675  1.00  0.00     0.034 A 
HETATM    5  C   UNL     1      -4.288   5.064 -31.625  1.00  0.00     0.030 A 
HETATM    6  C   UNL     1      -3.304   5.810 -30.968  1.00  0.00     0.019 A 
ENDROOT
BRANCH   4   7
HETATM    7  N   UNL     1      -5.004   3.521 -33.314  1.00  0.00    -0.327 N 
HETATM    8  C   UNL     1      -5.626   2.358 -32.897  1.00  0.00     0.223 C 
HETATM    9  O   UNL     1      -5.348   1.703 -31.898  1.00  0.00    -0.273 OA
HETATM   10  H   UNL     1      -5.328   3.932 -34.181  1.00  0.00     0.169 HD
BRANCH   8  11
HETATM   11  C   UNL     1      -6.709   1.896 -33.852  1.00  0.00     0.128 C 
BRANCH  11  12
HETATM   12  C   UNL     1      -8.070   1.954 -33.174  1.00  0.00     0.158 C 
HETATM   13  S   UNL     1      -9.188   3.108 -34.021  1.00  0.00    -0.077 SA
HETATM   14  C   UNL     1     -10.479   1.919 -33.983  1.00  0.00     0.168 C 
HETATM   15  N   UNL     1     -10.132   0.739 -33.581  1.00  0.00    -0.189 NA
HETATM   16  C   UNL     1      -8.801   0.630 -33.259  1.00  0.00     0.260 C 
HETATM   17  O   UNL     1      -8.249  -0.442 -33.035  1.00  0.00    -0.270 OA
BRANCH  14  18
HETATM   18  N   UNL     1     -11.759   2.285 -34.337  1.00  0.00    -0.360 N 
HETATM   19  C   UNL     1     -12.731   1.377 -34.954  1.00  0.00     0.125 C 
HETATM   20  C   UNL     1     -13.636   0.793 -33.868  1.00  0.00     0.020 C 
HETATM   21  C   UNL     1     -14.318   1.902 -33.064  1.00  0.00     0.003 C 
HETATM   22  C   UNL     1     -13.296   2.911 -32.535  1.00  0.00     0.020 C 
HETATM   23  C   UNL     1     -12.399   3.422 -33.660  1.00  0.00     0.125 C 
ENDBRANCH  14  18
ENDBRANCH  11  12
ENDBRANCH   8  11
ENDBRANCH   4   7
BRANCH   1  24
HETATM   24  C   UNL     1      -0.972   6.593 -30.658  1.00  0.00     0.256 C 
HETATM   25  N   UNL     1      -1.214   6.825 -29.315  1.00  0.00    -0.323 N 
HETATM   26  H   UNL     1      -2.052   6.431 -28.914  1.00  0.00     0.169 HD
HETATM   27  O   UNL     1      -0.016   7.003 -31.307  1.00  0.00    -0.267 OA
BRANCH  25  28
HETATM   28  C   UNL     1      -0.360   7.464 -28.390  1.00  0.00     0.035 A 
HETATM   29  C   UNL     1       0.729   6.847 -27.776  1.00  0.00     0.030 A 
HETATM   30  C   UNL     1       1.479   7.525 -26.804  1.00  0.00     0.010 A 
HETATM   31  C   UNL     1       1.174   8.844 -26.447  1.00  0.00    -0.054 A 
HETATM   32  C   UNL     1       0.090   9.466 -27.083  1.00  0.00     0.010 A 
HETATM   33  C   UNL     1      -0.669   8.782 -28.039  1.00  0.00     0.030 A 
BRANCH  31  34
HETATM   34  C   UNL     1       1.921   9.593 -25.353  1.00  0.00     0.014 C 
HETATM   35  C   UNL     1       0.907  10.350 -24.485  1.00  0.00     0.015 C 
BRANCH  34  36
HETATM   36  C   UNL     1       2.837   8.734 -24.457  1.00  0.00     0.004 C 
HETATM   37  C   UNL     1       4.117   9.448 -24.041  1.00  0.00     0.006 C 
ENDBRANCH  34  36
ENDBRANCH  31  34
ENDBRANCH  25  28
ENDBRANCH   1  24
TORSDOF 8
ENDMDL
MODEL 9
REMARK VINA RESULT:      -8.3      5.509     11.811
REMARK  8 active torsions:
REMARK  status: ('A' for Active; 'I' for Inactive)
REMARK    1  A    between atoms: C_2  and  C_3 
REMARK    2  A    between atoms: C_3  and  C_4 
REMARK    3  A    between atoms: C_7  and  N_8 
REMARK       I    between atoms: N_8  and  C_9 
REMARK    4  A    between atoms: C_9  and  C_10 
REMARK    5  A    between atoms: C_13  and  N_14 
REMARK       I    between atoms: N_14  and  C_15 
REMARK    6  A    between atoms: C_15  and  C_16 
REMARK    7  A    between atoms: C_16  and  C_17 
REMARK    8  A    between atoms: C_19  and  N_20 
ROOT
HETATM    1  C   UNL     1      -0.061   7.824 -28.969  1.00  0.00     0.032 A 
HETATM    2  C   UNL     1      -1.456   7.917 -28.975  1.00  0.00     0.019 A 
HETATM    3  C   UNL     1      -2.209   7.204 -29.920  1.00  0.00     0.030 A 
HETATM    4  C   UNL     1      -1.582   6.404 -30.877  1.00  0.00     0.034 A 
HETATM    5  C   UNL     1      -0.184   6.351 -30.898  1.00  0.00     0.030 A 
HETATM    6  C   UNL     1       0.570   7.055 -29.954  1.00  0.00     0.019 A 
ENDROOT
BRANCH   4   7
HETATM    7  N   UNL     1      -2.268   5.629 -31.836  1.00  0.00    -0.327 N 
HETATM    8  C   UNL     1      -2.584   5.987 -33.134  1.00  0.00     0.223 C 
HETATM    9  O   UNL     1      -2.335   7.060 -33.673  1.00  0.00    -0.273 OA
HETATM   10  H   UNL     1      -2.568   4.714 -31.523  1.00  0.00     0.169 HD
BRANCH   8  11
HETATM   11  C   UNL     1      -3.354   4.908 -33.870  1.00  0.00     0.128 C 
BRANCH  11  12
HETATM   12  C   UNL     1      -4.357   4.246 -32.937  1.00  0.00     0.158 C 
HETATM   13  S   UNL     1      -5.856   3.732 -33.825  1.00  0.00    -0.077 SA
HETATM   14  C   UNL     1      -5.803   2.159 -33.049  1.00  0.00     0.168 C 
HETATM   15  N   UNL     1      -4.735   1.919 -32.358  1.00  0.00    -0.189 NA
HETATM   16  C   UNL     1      -3.825   2.949 -32.364  1.00  0.00     0.260 C 
HETATM   17  O   UNL     1      -2.686   2.841 -31.924  1.00  0.00    -0.270 OA
BRANCH  14  18
HETATM   18  N   UNL     1      -6.869   1.295 -33.175  1.00  0.00    -0.360 N 
HETATM   19  C   UNL     1      -7.813   1.314 -34.296  1.00  0.00     0.125 C 
HETATM   20  C   UNL     1      -7.378   0.281 -35.338  1.00  0.00     0.020 C 
HETATM   21  C   UNL     1      -7.256  -1.112 -34.714  1.00  0.00     0.003 C 
HETATM   22  C   UNL     1      -6.368  -1.085 -33.469  1.00  0.00     0.020 C 
HETATM   23  C   UNL     1      -6.829  -0.005 -32.491  1.00  0.00     0.125 C 
ENDBRANCH  14  18
ENDBRANCH  11  12
ENDBRANCH   8  11
ENDBRANCH   4   7
BRANCH   1  24
HETATM   24  C   UNL     1       0.803   8.490 -27.945  1.00  0.00     0.256 C 
HETATM   25  N   UNL     1       0.329   8.450 -26.645  1.00  0.00    -0.323 N 
HETATM   26  H   UNL     1      -0.573   8.026 -26.486  1.00  0.00     0.169 HD
HETATM   27  O   UNL     1       1.865   8.974 -28.318  1.00  0.00    -0.267 OA
BRANCH  25  28
HETATM   28  C   UNL     1       1.015   8.837 -25.473  1.00  0.00     0.035 A 
HETATM   29  C   UNL     1       0.502   9.717 -24.522  1.00  0.00     0.030 A 
HETATM   30  C   UNL     1       1.280  10.117 -23.426  1.00  0.00     0.010 A 
HETATM   31  C   UNL     1       2.578   9.623 -23.243  1.00  0.00    -0.054 A 
HETATM   32  C   UNL     1       3.080   8.722 -24.193  1.00  0.00     0.010 A 
HETATM   33  C   UNL     1       2.310   8.338 -25.295  1.00  0.00     0.030 A 
BRANCH  31  34
HETATM   34  C   UNL     1       3.478  10.079 -22.105  1.00  0.00     0.014 C 
HETATM   35  C   UNL     1       4.348   8.898 -21.652  1.00  0.00     0.015 C 
BRANCH  34  36
HETATM   36  C   UNL     1       4.372  11.301 -22.404  1.00  0.00     0.004 C 
HETATM   37  C   UNL     1       5.648  11.334 -21.573  1.00  0.00     0.006 C 
ENDBRANCH  34  36
ENDBRANCH  31  34
ENDBRANCH  25  28
ENDBRANCH   1  24
TORSDOF 8
ENDMDL
MODEL 10
REMARK VINA RESULT:      -8.2      2.220      3.033
REMARK  8 active torsions:
REMARK  status: ('A' for Active; 'I' for Inactive)
REMARK    1  A    between atoms: C_2  and  C_3 
REMARK    2  A    between atoms: C_3  and  C_4 
REMARK    3  A    between atoms: C_7  and  N_8 
REMARK       I    between atoms: N_8  and  C_9 
REMARK    4  A    between atoms: C_9  and  C_10 
REMARK    5  A    between atoms: C_13  and  N_14 
REMARK       I    between atoms: N_14  and  C_15 
REMARK    6  A    between atoms: C_15  and  C_16 
REMARK    7  A    between atoms: C_16  and  C_17 
REMARK    8  A    between atoms: C_19  and  N_20 
ROOT
HETATM    1  C   UNL     1      -6.075   3.314 -30.885  1.00  0.00     0.032 A 
HETATM    2  C   UNL     1      -4.872   4.027 -30.875  1.00  0.00     0.019 A 
HETATM    3  C   UNL     1      -4.819   5.318 -30.328  1.00  0.00     0.030 A 
HETATM    4  C   UNL     1      -5.963   5.917 -29.799  1.00  0.00     0.034 A 
HETATM    5  C   UNL     1      -7.175   5.220 -29.853  1.00  0.00     0.030 A 
HETATM    6  C   UNL     1      -7.231   3.931 -30.393  1.00  0.00     0.019 A 
ENDROOT
BRANCH   4   7
HETATM    7  N   UNL     1      -5.984   7.194 -29.199  1.00  0.00    -0.327 N 
HETATM    8  C   UNL     1      -5.802   7.497 -27.862  1.00  0.00     0.223 C 
HETATM    9  O   UNL     1      -5.609   6.695 -26.955  1.00  0.00    -0.273 OA
HETATM   10  H   UNL     1      -6.165   7.968 -29.827  1.00  0.00     0.169 HD
BRANCH   8  11
HETATM   11  C   UNL     1      -5.920   8.981 -27.575  1.00  0.00     0.128 C 
BRANCH  11  12
HETATM   12  C   UNL     1      -4.538   9.598 -27.409  1.00  0.00     0.158 C 
HETATM   13  S   UNL     1      -3.593   8.774 -26.095  1.00  0.00    -0.077 SA
HETATM   14  C   UNL     1      -2.185   8.678 -27.138  1.00  0.00     0.168 C 
HETATM   15  N   UNL     1      -2.384   9.021 -28.369  1.00  0.00    -0.189 NA
HETATM   16  C   UNL     1      -3.678   9.397 -28.640  1.00  0.00     0.260 C 
HETATM   17  O   UNL     1      -4.102   9.579 -29.776  1.00  0.00    -0.270 OA
BRANCH  14  18
HETATM   18  N   UNL     1      -0.970   8.289 -26.617  1.00  0.00    -0.360 N 
HETATM   19  C   UNL     1      -0.230   7.102 -27.058  1.00  0.00     0.125 C 
HETATM   20  C   UNL     1       0.811   7.516 -28.100  1.00  0.00     0.020 C 
HETATM   21  C   UNL     1       1.740   8.600 -27.550  1.00  0.00     0.003 C 
HETATM   22  C   UNL     1       0.944   9.774 -26.978  1.00  0.00     0.020 C 
HETATM   23  C   UNL     1      -0.104   9.290 -25.978  1.00  0.00     0.125 C 
ENDBRANCH  14  18
ENDBRANCH  11  12
ENDBRANCH   8  11
ENDBRANCH   4   7
BRANCH   1  24
HETATM   24  C   UNL     1      -6.192   1.906 -31.377  1.00  0.00     0.256 C 
HETATM   25  N   UNL     1      -5.424   1.593 -32.485  1.00  0.00    -0.323 N 
HETATM   26  H   UNL     1      -4.885   2.335 -32.908  1.00  0.00     0.169 HD
HETATM   27  O   UNL     1      -6.912   1.137 -30.750  1.00  0.00    -0.267 OA
BRANCH  25  28
HETATM   28  C   UNL     1      -5.208   0.314 -33.043  1.00  0.00     0.035 A 
HETATM   29  C   UNL     1      -5.965  -0.223 -34.083  1.00  0.00     0.030 A 
HETATM   30  C   UNL     1      -5.741  -1.534 -34.525  1.00  0.00     0.010 A 
HETATM   31  C   UNL     1      -4.738  -2.328 -33.955  1.00  0.00    -0.054 A 
HETATM   32  C   UNL     1      -3.967  -1.775 -32.922  1.00  0.00     0.010 A 
HETATM   33  C   UNL     1      -4.203  -0.472 -32.470  1.00  0.00     0.030 A 
BRANCH  31  34
HETATM   34  C   UNL     1      -4.506  -3.775 -34.360  1.00  0.00     0.014 C 
HETATM   35  C   UNL     1      -3.478  -4.402 -33.407  1.00  0.00     0.015 C 
BRANCH  34  36
HETATM   36  C   UNL     1      -5.765  -4.665 -34.426  1.00  0.00     0.004 C 
HETATM   37  C   UNL     1      -6.489  -4.587 -35.764  1.00  0.00     0.006 C 
ENDBRANCH  34  36
ENDBRANCH  31  34
ENDBRANCH  25  28
ENDBRANCH   1  24
TORSDOF 8
ENDMDL
