MODEL 1
REMARK VINA RESULT:      -8.5      0.000      0.000
REMARK  8 active torsions:
REMARK  status: ('A' for Active; 'I' for Inactive)
REMARK    1  A    between atoms: O_2  and  C_3 
REMARK    2  A    between atoms: C_6  and  C_7 
REMARK    3  A    between atoms: C_7  and  O_8 
REMARK    4  A    between atoms: C_7  and  C_9 
REMARK    5  A    between atoms: C_9  and  N_10 
REMARK    6  A    between atoms: C_11  and  N_12 
REMARK    7  A    between atoms: N_13  and  C_14 
REMARK    8  A    between atoms: C_14  and  C_15 
ROOT
HETATM    1  N   UNL     1      -5.779   0.664 -31.061  1.00  0.00    -0.178 N 
HETATM    2  C   UNL     1      -4.882  -0.048 -31.733  1.00  0.00     0.681 C 
HETATM    3  N   UNL     1      -5.402  -0.439 -32.888  1.00  0.00    -0.177 N 
HETATM    4  C   UNL     1      -6.771  -0.181 -32.869  1.00  0.00     0.079 A 
HETATM    5  C   UNL     1      -7.014   0.532 -31.689  1.00  0.00     0.079 A 
HETATM    6  C   UNL     1      -7.785  -0.495 -33.769  1.00  0.00     0.032 A 
HETATM    7  C   UNL     1      -9.071  -0.059 -33.424  1.00  0.00     0.002 A 
HETATM    8  C   UNL     1      -9.316   0.661 -32.239  1.00  0.00     0.002 A 
HETATM    9  C   UNL     1      -8.287   0.978 -31.342  1.00  0.00     0.032 A 
ENDROOT
BRANCH   1  10
HETATM   10  C   UNL     1      -5.484   1.504 -29.889  1.00  0.00     0.184 C 
BRANCH  10  11
HETATM   11  C   UNL     1      -5.658   3.014 -30.164  1.00  0.00     0.170 C 
BRANCH  11  12
HETATM   12  C   UNL     1      -4.813   3.443 -31.343  1.00  0.00    -0.028 A 
HETATM   13  C   UNL     1      -5.390   3.961 -32.513  1.00  0.00     0.012 A 
HETATM   14  C   UNL     1      -4.591   4.405 -33.573  1.00  0.00     0.037 A 
HETATM   15  C   UNL     1      -3.203   4.353 -33.474  1.00  0.00     0.068 A 
HETATM   16  C   UNL     1      -2.623   3.840 -32.313  1.00  0.00     0.037 A 
HETATM   17  C   UNL     1      -3.416   3.388 -31.256  1.00  0.00     0.012 A 
BRANCH  15  18
HETATM   18  O   UNL     1      -2.311   4.768 -34.422  1.00  0.00    -0.356 OA
HETATM   19  C   UNL     1      -1.521   5.911 -34.114  1.00  0.00     0.210 C 
ENDBRANCH  15  18
ENDBRANCH  11  12
BRANCH  11  20
HETATM   20  O   UNL     1      -5.293   3.770 -28.991  1.00  0.00    -0.389 OA
HETATM   21  H   UNL     1      -4.757   4.520 -29.324  1.00  0.00     0.210 HD
ENDBRANCH  11  20
ENDBRANCH  10  11
ENDBRANCH   1  10
BRANCH   2  22
HETATM   22  N   UNL     1      -3.655  -0.331 -31.305  1.00  0.00    -0.234 N 
HETATM   23  H   UNL     1      -2.949  -0.565 -32.005  1.00  0.00     0.174 HD
HETATM   24  H   UNL     1      -3.337  -0.049 -30.391  1.00  0.00     0.174 HD
ENDBRANCH   2  22
BRANCH   3  25
HETATM   25  C   UNL     1      -4.656  -0.974 -34.016  1.00  0.00     0.186 C 
BRANCH  25  26
HETATM   26  C   UNL     1      -4.748  -2.476 -34.120  1.00  0.00    -0.039 A 
HETATM   27  C   UNL     1      -5.735  -3.149 -34.856  1.00  0.00     0.009 A 
HETATM   28  C   UNL     1      -5.751  -4.545 -34.916  1.00  0.00     0.001 A 
HETATM   29  C   UNL     1      -4.778  -5.287 -34.251  1.00  0.00     0.000 A 
HETATM   30  C   UNL     1      -3.786  -4.636 -33.525  1.00  0.00     0.001 A 
HETATM   31  C   UNL     1      -3.771  -3.242 -33.459  1.00  0.00     0.009 A 
ENDBRANCH  25  26
ENDBRANCH   3  25
TORSDOF 8
ENDMDL
MODEL 2
REMARK VINA RESULT:      -8.2      2.437      5.384
REMARK  8 active torsions:
REMARK  status: ('A' for Active; 'I' for Inactive)
REMARK    1  A    between atoms: O_2  and  C_3 
REMARK    2  A    between atoms: C_6  and  C_7 
REMARK    3  A    between atoms: C_7  and  O_8 
REMARK    4  A    between atoms: C_7  and  C_9 
REMARK    5  A    between atoms: C_9  and  N_10 
REMARK    6  A    between atoms: C_11  and  N_12 
REMARK    7  A    between atoms: N_13  and  C_14 
REMARK    8  A    between atoms: C_14  and  C_15 
ROOT
HETATM    1  N   UNL     1      -7.592  -0.281 -32.719  1.00  0.00    -0.178 N 
HETATM    2  C   UNL     1      -7.032   0.159 -31.599  1.00  0.00     0.681 C 
HETATM    3  N   UNL     1      -5.739  -0.135 -31.606  1.00  0.00    -0.177 N 
HETATM    4  C   UNL     1      -5.489  -1.014 -32.658  1.00  0.00     0.079 A 
HETATM    5  C   UNL     1      -6.686  -1.107 -33.377  1.00  0.00     0.079 A 
HETATM    6  C   UNL     1      -4.340  -1.705 -33.033  1.00  0.00     0.032 A 
HETATM    7  C   UNL     1      -4.452  -2.507 -34.176  1.00  0.00     0.002 A 
HETATM    8  C   UNL     1      -5.655  -2.600 -34.903  1.00  0.00     0.002 A 
HETATM    9  C   UNL     1      -6.804  -1.894 -34.520  1.00  0.00     0.032 A 
ENDROOT
BRANCH   1  10
HETATM   10  C   UNL     1      -8.927   0.107 -33.204  1.00  0.00     0.184 C 
BRANCH  10  11
HETATM   11  C   UNL     1      -8.879   1.069 -34.412  1.00  0.00     0.170 C 
BRANCH  11  12
HETATM   12  C   UNL     1      -8.160   2.349 -34.048  1.00  0.00    -0.028 A 
HETATM   13  C   UNL     1      -6.821   2.570 -34.408  1.00  0.00     0.012 A 
HETATM   14  C   UNL     1      -6.188   3.783 -34.111  1.00  0.00     0.037 A 
HETATM   15  C   UNL     1      -6.886   4.799 -33.465  1.00  0.00     0.068 A 
HETATM   16  C   UNL     1      -8.218   4.586 -33.105  1.00  0.00     0.037 A 
HETATM   17  C   UNL     1      -8.852   3.374 -33.391  1.00  0.00     0.012 A 
BRANCH  15  18
HETATM   18  O   UNL     1      -6.397   6.030 -33.134  1.00  0.00    -0.356 OA
HETATM   19  C   UNL     1      -7.208   6.851 -32.302  1.00  0.00     0.210 C 
ENDBRANCH  15  18
ENDBRANCH  11  12
BRANCH  11  20
HETATM   20  O   UNL     1     -10.219   1.362 -34.857  1.00  0.00    -0.389 OA
HETATM   21  H   UNL     1     -10.155   1.445 -35.832  1.00  0.00     0.210 HD
ENDBRANCH  11  20
ENDBRANCH  10  11
ENDBRANCH   1  10
BRANCH   2  22
HETATM   22  N   UNL     1      -7.674   0.787 -30.619  1.00  0.00    -0.234 N 
HETATM   23  H   UNL     1      -7.708   1.808 -30.650  1.00  0.00     0.174 HD
HETATM   24  H   UNL     1      -8.347   0.311 -30.038  1.00  0.00     0.174 HD
ENDBRANCH   2  22
BRANCH   3  25
HETATM   25  C   UNL     1      -4.737   0.427 -30.714  1.00  0.00     0.186 C 
BRANCH  25  26
HETATM   26  C   UNL     1      -4.271   1.796 -31.145  1.00  0.00    -0.039 A 
HETATM   27  C   UNL     1      -3.348   2.018 -32.179  1.00  0.00     0.009 A 
HETATM   28  C   UNL     1      -2.972   3.316 -32.532  1.00  0.00     0.001 A 
HETATM   29  C   UNL     1      -3.518   4.410 -31.866  1.00  0.00     0.000 A 
HETATM   30  C   UNL     1      -4.442   4.210 -30.845  1.00  0.00     0.001 A 
HETATM   31  C   UNL     1      -4.815   2.913 -30.487  1.00  0.00     0.009 A 
ENDBRANCH  25  26
ENDBRANCH   3  25
TORSDOF 8
ENDMDL
MODEL 3
REMARK VINA RESULT:      -8.2      2.190      4.972
REMARK  8 active torsions:
REMARK  status: ('A' for Active; 'I' for Inactive)
REMARK    1  A    between atoms: O_2  and  C_3 
REMARK    2  A    between atoms: C_6  and  C_7 
REMARK    3  A    between atoms: C_7  and  O_8 
REMARK    4  A    between atoms: C_7  and  C_9 
REMARK    5  A    between atoms: C_9  and  N_10 
REMARK    6  A    between atoms: C_11  and  N_12 
REMARK    7  A    between atoms: N_13  and  C_14 
REMARK    8  A    between atoms: C_14  and  C_15 
ROOT
HETATM    1  N   UNL     1      -7.213   1.095 -31.318  1.00  0.00    -0.178 N 
HETATM    2  C   UNL     1      -8.531   1.156 -31.461  1.00  0.00     0.681 C 
HETATM    3  N   UNL     1      -8.911   0.332 -32.427  1.00  0.00    -0.177 N 
HETATM    4  C   UNL     1      -7.777  -0.107 -33.108  1.00  0.00     0.079 A 
HETATM    5  C   UNL     1      -6.681   0.385 -32.392  1.00  0.00     0.079 A 
HETATM    6  C   UNL     1      -7.629  -0.882 -34.254  1.00  0.00     0.032 A 
HETATM    7  C   UNL     1      -6.312  -1.142 -34.655  1.00  0.00     0.002 A 
HETATM    8  C   UNL     1      -5.207  -0.650 -33.933  1.00  0.00     0.002 A 
HETATM    9  C   UNL     1      -5.368   0.125 -32.776  1.00  0.00     0.032 A 
ENDROOT
BRANCH   1  10
HETATM   10  C   UNL     1      -6.461   1.632 -30.172  1.00  0.00     0.184 C 
BRANCH  10  11
HETATM   11  C   UNL     1      -6.368   3.173 -30.174  1.00  0.00     0.170 C 
BRANCH  11  12
HETATM   12  C   UNL     1      -5.878   3.678 -31.513  1.00  0.00    -0.028 A 
HETATM   13  C   UNL     1      -6.731   4.345 -32.406  1.00  0.00     0.012 A 
HETATM   14  C   UNL     1      -6.248   4.854 -33.617  1.00  0.00     0.037 A 
HETATM   15  C   UNL     1      -4.902   4.719 -33.948  1.00  0.00     0.068 A 
HETATM   16  C   UNL     1      -4.048   4.058 -33.064  1.00  0.00     0.037 A 
HETATM   17  C   UNL     1      -4.527   3.540 -31.858  1.00  0.00     0.012 A 
BRANCH  15  18
HETATM   18  O   UNL     1      -4.300   5.183 -35.083  1.00  0.00    -0.356 OA
HETATM   19  C   UNL     1      -2.898   5.419 -35.024  1.00  0.00     0.210 C 
ENDBRANCH  15  18
ENDBRANCH  11  12
BRANCH  11  20
HETATM   20  O   UNL     1      -5.480   3.610 -29.124  1.00  0.00    -0.389 OA
HETATM   21  H   UNL     1      -5.815   3.181 -28.309  1.00  0.00     0.210 HD
ENDBRANCH  11  20
ENDBRANCH  10  11
ENDBRANCH   1  10
BRANCH   2  22
HETATM   22  N   UNL     1      -9.340   1.935 -30.750  1.00  0.00    -0.234 N 
HETATM   23  H   UNL     1      -9.644   2.816 -31.169  1.00  0.00     0.174 HD
HETATM   24  H   UNL     1      -9.877   1.573 -29.977  1.00  0.00     0.174 HD
ENDBRANCH   2  22
BRANCH   3  25
HETATM   25  C   UNL     1     -10.275  -0.103 -32.682  1.00  0.00     0.186 C 
BRANCH  25  26
HETATM   26  C   UNL     1     -11.039   0.852 -33.566  1.00  0.00    -0.039 A 
HETATM   27  C   UNL     1     -10.459   1.958 -34.206  1.00  0.00     0.009 A 
HETATM   28  C   UNL     1     -11.228   2.794 -35.020  1.00  0.00     0.001 A 
HETATM   29  C   UNL     1     -12.582   2.533 -35.214  1.00  0.00     0.000 A 
HETATM   30  C   UNL     1     -13.171   1.435 -34.596  1.00  0.00     0.001 A 
HETATM   31  C   UNL     1     -12.406   0.602 -33.777  1.00  0.00     0.009 A 
ENDBRANCH  25  26
ENDBRANCH   3  25
TORSDOF 8
ENDMDL
MODEL 4
REMARK VINA RESULT:      -8.2      3.546      7.458
REMARK  8 active torsions:
REMARK  status: ('A' for Active; 'I' for Inactive)
REMARK    1  A    between atoms: O_2  and  C_3 
REMARK    2  A    between atoms: C_6  and  C_7 
REMARK    3  A    between atoms: C_7  and  O_8 
REMARK    4  A    between atoms: C_7  and  C_9 
REMARK    5  A    between atoms: C_9  and  N_10 
REMARK    6  A    between atoms: C_11  and  N_12 
REMARK    7  A    between atoms: N_13  and  C_14 
REMARK    8  A    between atoms: C_14  and  C_15 
ROOT
HETATM    1  N   UNL     1      -7.594   0.044 -32.531  1.00  0.00    -0.178 N 
HETATM    2  C   UNL     1      -7.013   0.855 -31.655  1.00  0.00     0.681 C 
HETATM    3  N   UNL     1      -5.699   0.819 -31.823  1.00  0.00    -0.177 N 
HETATM    4  C   UNL     1      -5.389  -0.237 -32.677  1.00  0.00     0.079 A 
HETATM    5  C   UNL     1      -6.613  -0.737 -33.135  1.00  0.00     0.079 A 
HETATM    6  C   UNL     1      -4.169  -0.771 -33.083  1.00  0.00     0.032 A 
HETATM    7  C   UNL     1      -4.236  -1.847 -33.978  1.00  0.00     0.002 A 
HETATM    8  C   UNL     1      -5.468  -2.349 -34.442  1.00  0.00     0.002 A 
HETATM    9  C   UNL     1      -6.690  -1.799 -34.032  1.00  0.00     0.032 A 
ENDROOT
BRANCH   1  10
HETATM   10  C   UNL     1      -9.032   0.034 -32.849  1.00  0.00     0.184 C 
BRANCH  10  11
HETATM   11  C   UNL     1      -9.438   1.128 -33.861  1.00  0.00     0.170 C 
BRANCH  11  12
HETATM   12  C   UNL     1     -10.941   1.172 -34.026  1.00  0.00    -0.028 A 
HETATM   13  C   UNL     1     -11.567   2.151 -34.814  1.00  0.00     0.012 A 
HETATM   14  C   UNL     1     -12.955   2.143 -35.001  1.00  0.00     0.037 A 
HETATM   15  C   UNL     1     -13.736   1.149 -34.417  1.00  0.00     0.068 A 
HETATM   16  C   UNL     1     -13.119   0.173 -33.633  1.00  0.00     0.037 A 
HETATM   17  C   UNL     1     -11.736   0.180 -33.436  1.00  0.00     0.012 A 
BRANCH  15  18
HETATM   18  O   UNL     1     -15.090   1.016 -34.533  1.00  0.00    -0.356 OA
HETATM   19  C   UNL     1     -15.888   1.528 -33.472  1.00  0.00     0.210 C 
ENDBRANCH  15  18
ENDBRANCH  11  12
BRANCH  11  20
HETATM   20  O   UNL     1      -8.806   0.876 -35.133  1.00  0.00    -0.389 OA
HETATM   21  H   UNL     1      -8.497  -0.053 -35.087  1.00  0.00     0.210 HD
ENDBRANCH  11  20
ENDBRANCH  10  11
ENDBRANCH   1  10
BRANCH   2  22
HETATM   22  N   UNL     1      -7.655   1.581 -30.744  1.00  0.00    -0.234 N 
HETATM   23  H   UNL     1      -8.612   1.869 -30.954  1.00  0.00     0.174 HD
HETATM   24  H   UNL     1      -7.357   1.604 -29.782  1.00  0.00     0.174 HD
ENDBRANCH   2  22
BRANCH   3  25
HETATM   25  C   UNL     1      -4.748   1.771 -31.271  1.00  0.00     0.186 C 
BRANCH  25  26
HETATM   26  C   UNL     1      -4.372   2.856 -32.248  1.00  0.00    -0.039 A 
HETATM   27  C   UNL     1      -5.294   3.522 -33.071  1.00  0.00     0.009 A 
HETATM   28  C   UNL     1      -4.873   4.527 -33.945  1.00  0.00     0.001 A 
HETATM   29  C   UNL     1      -3.530   4.889 -34.004  1.00  0.00     0.000 A 
HETATM   30  C   UNL     1      -2.603   4.247 -33.189  1.00  0.00     0.001 A 
HETATM   31  C   UNL     1      -3.020   3.238 -32.319  1.00  0.00     0.009 A 
ENDBRANCH  25  26
ENDBRANCH   3  25
TORSDOF 8
ENDMDL
MODEL 5
REMARK VINA RESULT:      -8.1      2.456      3.333
REMARK  8 active torsions:
REMARK  status: ('A' for Active; 'I' for Inactive)
REMARK    1  A    between atoms: O_2  and  C_3 
REMARK    2  A    between atoms: C_6  and  C_7 
REMARK    3  A    between atoms: C_7  and  O_8 
REMARK    4  A    between atoms: C_7  and  C_9 
REMARK    5  A    between atoms: C_9  and  N_10 
REMARK    6  A    between atoms: C_11  and  N_12 
REMARK    7  A    between atoms: N_13  and  C_14 
REMARK    8  A    between atoms: C_14  and  C_15 
ROOT
HETATM    1  N   UNL     1      -7.805   3.265 -31.434  1.00  0.00    -0.178 N 
HETATM    2  C   UNL     1      -7.153   2.414 -30.652  1.00  0.00     0.681 C 
HETATM    3  N   UNL     1      -7.444   1.171 -31.010  1.00  0.00    -0.177 N 
HETATM    4  C   UNL     1      -8.514   1.205 -31.903  1.00  0.00     0.079 A 
HETATM    5  C   UNL     1      -8.746   2.557 -32.177  1.00  0.00     0.079 A 
HETATM    6  C   UNL     1      -9.266   0.188 -32.483  1.00  0.00     0.032 A 
HETATM    7  C   UNL     1     -10.279   0.598 -33.361  1.00  0.00     0.002 A 
HETATM    8  C   UNL     1     -10.512   1.959 -33.640  1.00  0.00     0.002 A 
HETATM    9  C   UNL     1      -9.743   2.974 -33.055  1.00  0.00     0.032 A 
ENDROOT
BRANCH   1  10
HETATM   10  C   UNL     1      -7.519   4.705 -31.539  1.00  0.00     0.184 C 
BRANCH  10  11
HETATM   11  C   UNL     1      -6.573   5.054 -32.709  1.00  0.00     0.170 C 
BRANCH  11  12
HETATM   12  C   UNL     1      -5.134   4.777 -32.333  1.00  0.00    -0.028 A 
HETATM   13  C   UNL     1      -4.457   3.638 -32.800  1.00  0.00     0.012 A 
HETATM   14  C   UNL     1      -3.109   3.425 -32.488  1.00  0.00     0.037 A 
HETATM   15  C   UNL     1      -2.412   4.354 -31.718  1.00  0.00     0.068 A 
HETATM   16  C   UNL     1      -3.079   5.488 -31.252  1.00  0.00     0.037 A 
HETATM   17  C   UNL     1      -4.427   5.701 -31.553  1.00  0.00     0.012 A 
BRANCH  15  18
HETATM   18  O   UNL     1      -1.097   4.278 -31.359  1.00  0.00    -0.356 OA
HETATM   19  C   UNL     1      -0.309   5.451 -31.522  1.00  0.00     0.210 C 
ENDBRANCH  15  18
ENDBRANCH  11  12
BRANCH  11  20
HETATM   20  O   UNL     1      -6.733   6.442 -33.070  1.00  0.00    -0.389 OA
HETATM   21  H   UNL     1      -7.353   6.440 -33.828  1.00  0.00     0.210 HD
ENDBRANCH  11  20
ENDBRANCH  10  11
ENDBRANCH   1  10
BRANCH   2  22
HETATM   22  N   UNL     1      -6.342   2.759 -29.656  1.00  0.00    -0.234 N 
HETATM   23  H   UNL     1      -6.338   2.171 -28.820  1.00  0.00     0.174 HD
HETATM   24  H   UNL     1      -5.556   3.372 -29.804  1.00  0.00     0.174 HD
ENDBRANCH   2  22
BRANCH   3  25
HETATM   25  C   UNL     1      -6.717  -0.021 -30.602  1.00  0.00     0.186 C 
BRANCH  25  26
HETATM   26  C   UNL     1      -5.466  -0.250 -31.412  1.00  0.00    -0.039 A 
HETATM   27  C   UNL     1      -5.466  -0.726 -32.733  1.00  0.00     0.009 A 
HETATM   28  C   UNL     1      -4.265  -0.903 -33.426  1.00  0.00     0.001 A 
HETATM   29  C   UNL     1      -3.051  -0.599 -32.816  1.00  0.00     0.000 A 
HETATM   30  C   UNL     1      -3.033  -0.117 -31.511  1.00  0.00     0.001 A 
HETATM   31  C   UNL     1      -4.230   0.055 -30.814  1.00  0.00     0.009 A 
ENDBRANCH  25  26
ENDBRANCH   3  25
TORSDOF 8
ENDMDL
MODEL 6
REMARK VINA RESULT:      -8.0      4.086      7.606
REMARK  8 active torsions:
REMARK  status: ('A' for Active; 'I' for Inactive)
REMARK    1  A    between atoms: O_2  and  C_3 
REMARK    2  A    between atoms: C_6  and  C_7 
REMARK    3  A    between atoms: C_7  and  O_8 
REMARK    4  A    between atoms: C_7  and  C_9 
REMARK    5  A    between atoms: C_9  and  N_10 
REMARK    6  A    between atoms: C_11  and  N_12 
REMARK    7  A    between atoms: N_13  and  C_14 
REMARK    8  A    between atoms: C_14  and  C_15 
ROOT
HETATM    1  N   UNL     1      -8.759   1.750 -33.064  1.00  0.00    -0.178 N 
HETATM    2  C   UNL     1      -9.943   1.213 -33.335  1.00  0.00     0.681 C 
HETATM    3  N   UNL     1     -10.649   2.052 -34.080  1.00  0.00    -0.177 N 
HETATM    4  C   UNL     1     -10.000   3.285 -34.097  1.00  0.00     0.079 A 
HETATM    5  C   UNL     1      -8.780   3.089 -33.442  1.00  0.00     0.079 A 
HETATM    6  C   UNL     1     -10.370   4.517 -34.628  1.00  0.00     0.032 A 
HETATM    7  C   UNL     1      -9.446   5.559 -34.466  1.00  0.00     0.002 A 
HETATM    8  C   UNL     1      -8.215   5.362 -33.810  1.00  0.00     0.002 A 
HETATM    9  C   UNL     1      -7.851   4.115 -33.284  1.00  0.00     0.032 A 
ENDROOT
BRANCH   1  10
HETATM   10  C   UNL     1      -7.603   1.017 -32.521  1.00  0.00     0.184 C 
BRANCH  10  11
HETATM   11  C   UNL     1      -6.422   0.923 -33.512  1.00  0.00     0.170 C 
BRANCH  11  12
HETATM   12  C   UNL     1      -6.051  -0.521 -33.766  1.00  0.00    -0.028 A 
HETATM   13  C   UNL     1      -6.960  -1.426 -34.337  1.00  0.00     0.012 A 
HETATM   14  C   UNL     1      -6.582  -2.745 -34.617  1.00  0.00     0.037 A 
HETATM   15  C   UNL     1      -5.286  -3.175 -34.344  1.00  0.00     0.068 A 
HETATM   16  C   UNL     1      -4.377  -2.281 -33.777  1.00  0.00     0.037 A 
HETATM   17  C   UNL     1      -4.751  -0.966 -33.488  1.00  0.00     0.012 A 
BRANCH  15  18
HETATM   18  O   UNL     1      -4.784  -4.423 -34.584  1.00  0.00    -0.356 OA
HETATM   19  C   UNL     1      -3.619  -4.804 -33.862  1.00  0.00     0.210 C 
ENDBRANCH  15  18
ENDBRANCH  11  12
BRANCH  11  20
HETATM   20  O   UNL     1      -5.287   1.642 -32.988  1.00  0.00    -0.389 OA
HETATM   21  H   UNL     1      -5.002   1.134 -32.199  1.00  0.00     0.210 HD
ENDBRANCH  11  20
ENDBRANCH  10  11
ENDBRANCH   1  10
BRANCH   2  22
HETATM   22  N   UNL     1     -10.356   0.022 -32.912  1.00  0.00    -0.234 N 
HETATM   23  H   UNL     1     -11.085  -0.447 -33.452  1.00  0.00     0.174 HD
HETATM   24  H   UNL     1      -9.799  -0.538 -32.286  1.00  0.00     0.174 HD
ENDBRANCH   2  22
BRANCH   3  25
HETATM   25  C   UNL     1     -11.856   1.718 -34.819  1.00  0.00     0.186 C 
BRANCH  25  26
HETATM   26  C   UNL     1     -13.108   1.853 -33.988  1.00  0.00    -0.039 A 
HETATM   27  C   UNL     1     -13.235   2.733 -32.902  1.00  0.00     0.009 A 
HETATM   28  C   UNL     1     -14.431   2.812 -32.185  1.00  0.00     0.001 A 
HETATM   29  C   UNL     1     -15.519   2.022 -32.547  1.00  0.00     0.000 A 
HETATM   30  C   UNL     1     -15.416   1.152 -33.627  1.00  0.00     0.001 A 
HETATM   31  C   UNL     1     -14.219   1.067 -34.342  1.00  0.00     0.009 A 
ENDBRANCH  25  26
ENDBRANCH   3  25
TORSDOF 8
ENDMDL
MODEL 7
REMARK VINA RESULT:      -7.9      2.540      6.320
REMARK  8 active torsions:
REMARK  status: ('A' for Active; 'I' for Inactive)
REMARK    1  A    between atoms: O_2  and  C_3 
REMARK    2  A    between atoms: C_6  and  C_7 
REMARK    3  A    between atoms: C_7  and  O_8 
REMARK    4  A    between atoms: C_7  and  C_9 
REMARK    5  A    between atoms: C_9  and  N_10 
REMARK    6  A    between atoms: C_11  and  N_12 
REMARK    7  A    between atoms: N_13  and  C_14 
REMARK    8  A    between atoms: C_14  and  C_15 
ROOT
HETATM    1  N   UNL     1      -4.651   1.683 -30.860  1.00  0.00    -0.178 N 
HETATM    2  C   UNL     1      -5.872   1.867 -30.374  1.00  0.00     0.681 C 
HETATM    3  N   UNL     1      -6.444   2.892 -30.990  1.00  0.00    -0.177 N 
HETATM    4  C   UNL     1      -5.475   3.558 -31.738  1.00  0.00     0.079 A 
HETATM    5  C   UNL     1      -4.318   2.777 -31.655  1.00  0.00     0.079 A 
HETATM    6  C   UNL     1      -5.523   4.741 -32.468  1.00  0.00     0.032 A 
HETATM    7  C   UNL     1      -4.338   5.111 -33.117  1.00  0.00     0.002 A 
HETATM    8  C   UNL     1      -3.172   4.324 -33.037  1.00  0.00     0.002 A 
HETATM    9  C   UNL     1      -3.138   3.130 -32.304  1.00  0.00     0.032 A 
ENDROOT
BRANCH   1  10
HETATM   10  C   UNL     1      -3.827   0.482 -30.644  1.00  0.00     0.184 C 
BRANCH  10  11
HETATM   11  C   UNL     1      -3.223  -0.085 -31.948  1.00  0.00     0.170 C 
BRANCH  11  12
HETATM   12  C   UNL     1      -4.250  -0.899 -32.703  1.00  0.00    -0.028 A 
HETATM   13  C   UNL     1      -5.603  -0.526 -32.739  1.00  0.00     0.012 A 
HETATM   14  C   UNL     1      -6.531  -1.260 -33.488  1.00  0.00     0.037 A 
HETATM   15  C   UNL     1      -6.118  -2.367 -34.225  1.00  0.00     0.068 A 
HETATM   16  C   UNL     1      -4.774  -2.742 -34.194  1.00  0.00     0.037 A 
HETATM   17  C   UNL     1      -3.845  -2.019 -33.441  1.00  0.00     0.012 A 
BRANCH  15  18
HETATM   18  O   UNL     1      -6.912  -3.155 -35.009  1.00  0.00    -0.356 OA
HETATM   19  C   UNL     1      -6.540  -4.522 -35.144  1.00  0.00     0.210 C 
ENDBRANCH  15  18
ENDBRANCH  11  12
BRANCH  11  20
HETATM   20  O   UNL     1      -2.073  -0.899 -31.640  1.00  0.00    -0.389 OA
HETATM   21  H   UNL     1      -1.572  -0.965 -32.479  1.00  0.00     0.210 HD
ENDBRANCH  11  20
ENDBRANCH  10  11
ENDBRANCH   1  10
BRANCH   2  22
HETATM   22  N   UNL     1      -6.427   1.139 -29.409  1.00  0.00    -0.234 N 
HETATM   23  H   UNL     1      -6.381   1.500 -28.454  1.00  0.00     0.174 HD
HETATM   24  H   UNL     1      -7.115   0.431 -29.612  1.00  0.00     0.174 HD
ENDBRANCH   2  22
BRANCH   3  25
HETATM   25  C   UNL     1      -7.861   3.219 -30.953  1.00  0.00     0.186 C 
BRANCH  25  26
HETATM   26  C   UNL     1      -8.642   2.563 -32.065  1.00  0.00    -0.039 A 
HETATM   27  C   UNL     1      -8.910   3.175 -33.299  1.00  0.00     0.009 A 
HETATM   28  C   UNL     1      -9.631   2.499 -34.287  1.00  0.00     0.001 A 
HETATM   29  C   UNL     1     -10.086   1.203 -34.062  1.00  0.00     0.000 A 
HETATM   30  C   UNL     1      -9.820   0.577 -32.849  1.00  0.00     0.001 A 
HETATM   31  C   UNL     1      -9.105   1.251 -31.857  1.00  0.00     0.009 A 
ENDBRANCH  25  26
ENDBRANCH   3  25
TORSDOF 8
ENDMDL
MODEL 8
REMARK VINA RESULT:      -7.9      3.999      8.873
REMARK  8 active torsions:
REMARK  status: ('A' for Active; 'I' for Inactive)
REMARK    1  A    between atoms: O_2  and  C_3 
REMARK    2  A    between atoms: C_6  and  C_7 
REMARK    3  A    between atoms: C_7  and  O_8 
REMARK    4  A    between atoms: C_7  and  C_9 
REMARK    5  A    between atoms: C_9  and  N_10 
REMARK    6  A    between atoms: C_11  and  N_12 
REMARK    7  A    between atoms: N_13  and  C_14 
REMARK    8  A    between atoms: C_14  and  C_15 
ROOT
HETATM    1  N   UNL     1      -3.921   5.245 -31.535  1.00  0.00    -0.178 N 
HETATM    2  C   UNL     1      -3.623   6.167 -30.628  1.00  0.00     0.681 C 
HETATM    3  N   UNL     1      -2.763   7.034 -31.143  1.00  0.00    -0.177 N 
HETATM    4  C   UNL     1      -2.292   6.527 -32.353  1.00  0.00     0.079 A 
HETATM    5  C   UNL     1      -3.040   5.372 -32.606  1.00  0.00     0.079 A 
HETATM    6  C   UNL     1      -1.307   6.980 -33.225  1.00  0.00     0.032 A 
HETATM    7  C   UNL     1      -1.102   6.208 -34.377  1.00  0.00     0.002 A 
HETATM    8  C   UNL     1      -1.857   5.047 -34.634  1.00  0.00     0.002 A 
HETATM    9  C   UNL     1      -2.852   4.604 -33.751  1.00  0.00     0.032 A 
ENDROOT
BRANCH   1  10
HETATM   10  C   UNL     1      -5.045   4.299 -31.441  1.00  0.00     0.184 C 
BRANCH  10  11
HETATM   11  C   UNL     1      -4.701   3.023 -30.641  1.00  0.00     0.170 C 
BRANCH  11  12
HETATM   12  C   UNL     1      -5.207   1.790 -31.357  1.00  0.00    -0.028 A 
HETATM   13  C   UNL     1      -5.642   0.656 -30.653  1.00  0.00     0.012 A 
HETATM   14  C   UNL     1      -6.159  -0.455 -31.330  1.00  0.00     0.037 A 
HETATM   15  C   UNL     1      -6.265  -0.444 -32.718  1.00  0.00     0.068 A 
HETATM   16  C   UNL     1      -5.835   0.681 -33.424  1.00  0.00     0.037 A 
HETATM   17  C   UNL     1      -5.310   1.789 -32.754  1.00  0.00     0.012 A 
BRANCH  15  18
HETATM   18  O   UNL     1      -6.766  -1.448 -33.497  1.00  0.00    -0.356 OA
HETATM   19  C   UNL     1      -5.852  -2.125 -34.352  1.00  0.00     0.210 C 
ENDBRANCH  15  18
ENDBRANCH  11  12
BRANCH  11  20
HETATM   20  O   UNL     1      -5.278   3.103 -29.321  1.00  0.00    -0.389 OA
HETATM   21  H   UNL     1      -4.522   3.011 -28.704  1.00  0.00     0.210 HD
ENDBRANCH  11  20
ENDBRANCH  10  11
ENDBRANCH   1  10
BRANCH   2  22
HETATM   22  N   UNL     1      -4.106   6.205 -29.390  1.00  0.00    -0.234 N 
HETATM   23  H   UNL     1      -5.070   6.520 -29.265  1.00  0.00     0.174 HD
HETATM   24  H   UNL     1      -3.682   5.680 -28.641  1.00  0.00     0.174 HD
ENDBRANCH   2  22
BRANCH   3  25
HETATM   25  C   UNL     1      -2.428   8.333 -30.580  1.00  0.00     0.186 C 
BRANCH  25  26
HETATM   26  C   UNL     1      -1.288   8.267 -29.594  1.00  0.00    -0.039 A 
HETATM   27  C   UNL     1      -0.224   7.357 -29.688  1.00  0.00     0.009 A 
HETATM   28  C   UNL     1       0.804   7.362 -28.741  1.00  0.00     0.001 A 
HETATM   29  C   UNL     1       0.789   8.281 -27.695  1.00  0.00     0.000 A 
HETATM   30  C   UNL     1      -0.252   9.197 -27.592  1.00  0.00     0.001 A 
HETATM   31  C   UNL     1      -1.284   9.190 -28.533  1.00  0.00     0.009 A 
ENDBRANCH  25  26
ENDBRANCH   3  25
TORSDOF 8
ENDMDL
MODEL 9
REMARK VINA RESULT:      -7.8      2.143      3.406
REMARK  8 active torsions:
REMARK  status: ('A' for Active; 'I' for Inactive)
REMARK    1  A    between atoms: O_2  and  C_3 
REMARK    2  A    between atoms: C_6  and  C_7 
REMARK    3  A    between atoms: C_7  and  O_8 
REMARK    4  A    between atoms: C_7  and  C_9 
REMARK    5  A    between atoms: C_9  and  N_10 
REMARK    6  A    between atoms: C_11  and  N_12 
REMARK    7  A    between atoms: N_13  and  C_14 
REMARK    8  A    between atoms: C_14  and  C_15 
ROOT
HETATM    1  N   UNL     1      -6.698   3.535 -32.436  1.00  0.00    -0.178 N 
HETATM    2  C   UNL     1      -6.505   2.458 -31.684  1.00  0.00     0.681 C 
HETATM    3  N   UNL     1      -7.391   1.527 -32.009  1.00  0.00    -0.177 N 
HETATM    4  C   UNL     1      -8.355   2.100 -32.836  1.00  0.00     0.079 A 
HETATM    5  C   UNL     1      -7.907   3.397 -33.112  1.00  0.00     0.079 A 
HETATM    6  C   UNL     1      -9.543   1.597 -33.358  1.00  0.00     0.032 A 
HETATM    7  C   UNL     1     -10.272   2.469 -34.178  1.00  0.00     0.002 A 
HETATM    8  C   UNL     1      -9.821   3.773 -34.459  1.00  0.00     0.002 A 
HETATM    9  C   UNL     1      -8.619   4.267 -33.933  1.00  0.00     0.032 A 
ENDROOT
BRANCH   1  10
HETATM   10  C   UNL     1      -5.747   4.650 -32.575  1.00  0.00     0.184 C 
BRANCH  10  11
HETATM   11  C   UNL     1      -4.674   4.403 -33.659  1.00  0.00     0.170 C 
BRANCH  11  12
HETATM   12  C   UNL     1      -3.289   4.662 -33.109  1.00  0.00    -0.028 A 
HETATM   13  C   UNL     1      -2.282   5.245 -33.895  1.00  0.00     0.012 A 
HETATM   14  C   UNL     1      -1.022   5.528 -33.354  1.00  0.00     0.037 A 
HETATM   15  C   UNL     1      -0.755   5.249 -32.016  1.00  0.00     0.068 A 
HETATM   16  C   UNL     1      -1.751   4.672 -31.229  1.00  0.00     0.037 A 
HETATM   17  C   UNL     1      -3.008   4.378 -31.766  1.00  0.00     0.012 A 
BRANCH  15  18
HETATM   18  O   UNL     1       0.419   5.492 -31.361  1.00  0.00    -0.356 OA
HETATM   19  C   UNL     1       0.499   5.088 -29.999  1.00  0.00     0.210 C 
ENDBRANCH  15  18
ENDBRANCH  11  12
BRANCH  11  20
HETATM   20  O   UNL     1      -4.924   5.254 -34.796  1.00  0.00    -0.389 OA
HETATM   21  H   UNL     1      -4.078   5.722 -34.958  1.00  0.00     0.210 HD
ENDBRANCH  11  20
ENDBRANCH  10  11
ENDBRANCH   1  10
BRANCH   2  22
HETATM   22  N   UNL     1      -5.573   2.341 -30.743  1.00  0.00    -0.234 N 
HETATM   23  H   UNL     1      -5.207   1.407 -30.550  1.00  0.00     0.174 HD
HETATM   24  H   UNL     1      -5.028   3.132 -30.438  1.00  0.00     0.174 HD
ENDBRANCH   2  22
BRANCH   3  25
HETATM   25  C   UNL     1      -7.323   0.124 -31.631  1.00  0.00     0.186 C 
BRANCH  25  26
HETATM   26  C   UNL     1      -6.629  -0.728 -32.664  1.00  0.00    -0.039 A 
HETATM   27  C   UNL     1      -7.278  -1.304 -33.767  1.00  0.00     0.009 A 
HETATM   28  C   UNL     1      -6.566  -2.073 -34.691  1.00  0.00     0.001 A 
HETATM   29  C   UNL     1      -5.197  -2.270 -34.533  1.00  0.00     0.000 A 
HETATM   30  C   UNL     1      -4.534  -1.698 -33.452  1.00  0.00     0.001 A 
HETATM   31  C   UNL     1      -5.245  -0.934 -32.524  1.00  0.00     0.009 A 
ENDBRANCH  25  26
ENDBRANCH   3  25
TORSDOF 8
ENDMDL
MODEL 10
REMARK VINA RESULT:      -7.6      4.309      8.060
REMARK  8 active torsions:
REMARK  status: ('A' for Active; 'I' for Inactive)
REMARK    1  A    between atoms: O_2  and  C_3 
REMARK    2  A    between atoms: C_6  and  C_7 
REMARK    3  A    between atoms: C_7  and  O_8 
REMARK    4  A    between atoms: C_7  and  C_9 
REMARK    5  A    between atoms: C_9  and  N_10 
REMARK    6  A    between atoms: C_11  and  N_12 
REMARK    7  A    between atoms: N_13  and  C_14 
REMARK    8  A    between atoms: C_14  and  C_15 
ROOT
HETATM    1  N   UNL     1      -9.211   1.572 -33.531  1.00  0.00    -0.178 N 
HETATM    2  C   UNL     1     -10.517   1.390 -33.681  1.00  0.00     0.681 C 
HETATM    3  N   UNL     1     -11.066   2.497 -34.161  1.00  0.00    -0.177 N 
HETATM    4  C   UNL     1     -10.126   3.524 -34.095  1.00  0.00     0.079 A 
HETATM    5  C   UNL     1      -8.928   2.926 -33.689  1.00  0.00     0.079 A 
HETATM    6  C   UNL     1     -10.225   4.886 -34.362  1.00  0.00     0.032 A 
HETATM    7  C   UNL     1      -9.050   5.631 -34.197  1.00  0.00     0.002 A 
HETATM    8  C   UNL     1      -7.842   5.030 -33.792  1.00  0.00     0.002 A 
HETATM    9  C   UNL     1      -7.753   3.656 -33.532  1.00  0.00     0.032 A 
ENDROOT
BRANCH   1  10
HETATM   10  C   UNL     1      -8.228   0.499 -33.305  1.00  0.00     0.184 C 
BRANCH  10  11
HETATM   11  C   UNL     1      -7.860  -0.270 -34.594  1.00  0.00     0.170 C 
BRANCH  11  12
HETATM   12  C   UNL     1      -6.644  -1.140 -34.368  1.00  0.00    -0.028 A 
HETATM   13  C   UNL     1      -5.510  -0.660 -33.692  1.00  0.00     0.012 A 
HETATM   14  C   UNL     1      -4.415  -1.496 -33.444  1.00  0.00     0.037 A 
HETATM   15  C   UNL     1      -4.441  -2.826 -33.853  1.00  0.00     0.068 A 
HETATM   16  C   UNL     1      -5.565  -3.309 -34.524  1.00  0.00     0.037 A 
HETATM   17  C   UNL     1      -6.658  -2.478 -34.783  1.00  0.00     0.012 A 
BRANCH  15  18
HETATM   18  O   UNL     1      -3.453  -3.749 -33.658  1.00  0.00    -0.356 OA
HETATM   19  C   UNL     1      -3.844  -5.115 -33.587  1.00  0.00     0.210 C 
ENDBRANCH  15  18
ENDBRANCH  11  12
BRANCH  11  20
HETATM   20  O   UNL     1      -7.612   0.663 -35.665  1.00  0.00    -0.389 OA
HETATM   21  H   UNL     1      -7.609   0.122 -36.482  1.00  0.00     0.210 HD
ENDBRANCH  11  20
ENDBRANCH  10  11
ENDBRANCH   1  10
BRANCH   2  22
HETATM   22  N   UNL     1     -11.171   0.271 -33.384  1.00  0.00    -0.234 N 
HETATM   23  H   UNL     1     -12.151   0.204 -33.665  1.00  0.00     0.174 HD
HETATM   24  H   UNL     1     -10.683  -0.585 -33.170  1.00  0.00     0.174 HD
ENDBRANCH   2  22
BRANCH   3  25
HETATM   25  C   UNL     1     -12.399   2.602 -34.733  1.00  0.00     0.186 C 
BRANCH  25  26
HETATM   26  C   UNL     1     -13.485   2.636 -33.686  1.00  0.00    -0.039 A 
HETATM   27  C   UNL     1     -14.498   1.671 -33.579  1.00  0.00     0.009 A 
HETATM   28  C   UNL     1     -15.465   1.761 -32.574  1.00  0.00     0.001 A 
HETATM   29  C   UNL     1     -15.428   2.808 -31.657  1.00  0.00     0.000 A 
HETATM   30  C   UNL     1     -14.424   3.767 -31.741  1.00  0.00     0.001 A 
HETATM   31  C   UNL     1     -13.461   3.683 -32.748  1.00  0.00     0.009 A 
ENDBRANCH  25  26
ENDBRANCH   3  25
TORSDOF 8
ENDMDL
