MODEL 1
REMARK VINA RESULT:     -10.6      0.000      0.000
REMARK  6 active torsions:
REMARK  status: ('A' for Active; 'I' for Inactive)
REMARK    1  A    between atoms: C_2  and  O_3 
REMARK    2  A    between atoms: C_2  and  C_4 
REMARK    3  A    between atoms: C_6  and  N_7 
REMARK       I    between atoms: N_7  and  C_8 
REMARK    4  A    between atoms: C_8  and  C_9 
REMARK    5  A    between atoms: C_14  and  C_15 
REMARK    6  A    between atoms: C_23  and  C_24 
ROOT
HETATM    1  C   UNL     1      -3.904   2.117 -32.028  1.00  0.00     0.148 C 
HETATM    2  N   UNL     1      -3.140   2.596 -33.041  1.00  0.00    -0.165 NA
HETATM    3  N   UNL     1      -2.907   3.867 -32.669  1.00  0.00    -0.240 N 
HETATM    4  C   UNL     1      -3.343   4.169 -31.412  1.00  0.00     0.123 C 
HETATM    5  N   UNL     1      -3.014   5.339 -30.828  1.00  0.00    -0.366 N 
HETATM    6  C   UNL     1      -1.923   6.183 -31.325  1.00  0.00     0.118 C 
HETATM    7  C   UNL     1      -1.169   5.540 -32.512  1.00  0.00     0.066 C 
HETATM    8  C   UNL     1      -2.102   4.776 -33.458  1.00  0.00     0.221 C 
HETATM    9  C   UNL     1      -4.080   3.091 -31.004  1.00  0.00     0.089 C 
HETATM   10  H   UNL     1      -3.338   5.563 -29.887  1.00  0.00     0.161 HD
ENDROOT
BRANCH   1  11
HETATM   11  C   UNL     1      -4.404   0.730 -32.017  1.00  0.00     0.276 C 
HETATM   12  N   UNL     1      -3.510  -0.137 -32.615  1.00  0.00    -0.322 N 
HETATM   13  H   UNL     1      -2.665   0.323 -32.947  1.00  0.00     0.169 HD
HETATM   14  O   UNL     1      -5.470   0.438 -31.487  1.00  0.00    -0.266 OA
BRANCH  12  15
HETATM   15  C   UNL     1      -3.601  -1.532 -32.748  1.00  0.00     0.035 A 
HETATM   16  C   UNL     1      -4.347  -2.168 -33.743  1.00  0.00     0.039 A 
HETATM   17  C   UNL     1      -4.396  -3.571 -33.825  1.00  0.00    -0.028 A 
HETATM   18  C   UNL     1      -3.701  -4.329 -32.873  1.00  0.00     0.010 A 
HETATM   19  C   UNL     1      -2.953  -3.703 -31.878  1.00  0.00     0.003 A 
HETATM   20  C   UNL     1      -2.897  -2.310 -31.823  1.00  0.00     0.029 A 
BRANCH  17  21
HETATM   21  C   UNL     1      -5.198  -4.236 -34.922  1.00  0.00     0.147 C 
HETATM   22  C   UNL     1      -6.677  -3.886 -34.854  1.00  0.00     0.044 C 
BRANCH  21  23
HETATM   23  O   UNL     1      -5.055  -5.654 -34.840  1.00  0.00    -0.391 OA
HETATM   24  H   UNL     1      -5.804  -6.038 -35.326  1.00  0.00     0.210 HD
ENDBRANCH  21  23
ENDBRANCH  17  21
ENDBRANCH  12  15
ENDBRANCH   1  11
BRANCH   8  25
HETATM   25  C   UNL     1      -2.990   5.690 -34.273  1.00  0.00     0.409 C 
HETATM   26  F   UNL     1      -4.222   5.821 -33.734  1.00  0.00    -0.169 F 
HETATM   27  F   UNL     1      -2.482   6.927 -34.451  1.00  0.00    -0.169 F 
HETATM   28  F   UNL     1      -3.165   5.164 -35.513  1.00  0.00    -0.169 F 
ENDBRANCH   8  25
BRANCH   6  29
HETATM   29  C   UNL     1      -0.949   6.469 -30.189  1.00  0.00    -0.035 A 
HETATM   30  C   UNL     1      -0.911   7.735 -29.569  1.00  0.00     0.012 A 
HETATM   31  C   UNL     1      -0.041   7.984 -28.509  1.00  0.00     0.043 A 
HETATM   32  C   UNL     1       0.789   6.970 -28.056  1.00  0.00     0.116 A 
HETATM   33  F   UNL     1       1.622   7.204 -27.033  1.00  0.00    -0.206 F 
HETATM   34  C   UNL     1       0.768   5.710 -28.647  1.00  0.00     0.043 A 
HETATM   35  C   UNL     1      -0.099   5.458 -29.712  1.00  0.00     0.012 A 
ENDBRANCH   6  29
TORSDOF 6
ENDMDL
MODEL 2
REMARK VINA RESULT:     -10.2      1.595      2.222
REMARK  6 active torsions:
REMARK  status: ('A' for Active; 'I' for Inactive)
REMARK    1  A    between atoms: C_2  and  O_3 
REMARK    2  A    between atoms: C_2  and  C_4 
REMARK    3  A    between atoms: C_6  and  N_7 
REMARK       I    between atoms: N_7  and  C_8 
REMARK    4  A    between atoms: C_8  and  C_9 
REMARK    5  A    between atoms: C_14  and  C_15 
REMARK    6  A    between atoms: C_23  and  C_24 
ROOT
HETATM    1  C   UNL     1      -3.835   3.153 -31.695  1.00  0.00     0.148 C 
HETATM    2  N   UNL     1      -2.666   3.266 -32.374  1.00  0.00    -0.165 NA
HETATM    3  N   UNL     1      -2.294   4.534 -32.126  1.00  0.00    -0.240 N 
HETATM    4  C   UNL     1      -3.073   5.174 -31.207  1.00  0.00     0.123 C 
HETATM    5  N   UNL     1      -2.714   6.378 -30.714  1.00  0.00    -0.366 N 
HETATM    6  C   UNL     1      -1.353   6.904 -30.847  1.00  0.00     0.118 C 
HETATM    7  C   UNL     1      -0.393   5.901 -31.527  1.00  0.00     0.066 C 
HETATM    8  C   UNL     1      -1.069   5.105 -32.648  1.00  0.00     0.221 C 
HETATM    9  C   UNL     1      -4.137   4.346 -30.979  1.00  0.00     0.089 C 
HETATM   10  H   UNL     1      -3.296   6.854 -30.024  1.00  0.00     0.161 HD
ENDROOT
BRANCH   1  11
HETATM   11  C   UNL     1      -4.613   1.901 -31.687  1.00  0.00     0.276 C 
HETATM   12  N   UNL     1      -4.887   1.465 -32.969  1.00  0.00    -0.322 N 
HETATM   13  H   UNL     1      -4.501   2.069 -33.691  1.00  0.00     0.169 HD
HETATM   14  O   UNL     1      -4.912   1.340 -30.639  1.00  0.00    -0.266 OA
BRANCH  12  15
HETATM   15  C   UNL     1      -5.551   0.295 -33.371  1.00  0.00     0.035 A 
HETATM   16  C   UNL     1      -4.894  -0.863 -33.793  1.00  0.00     0.039 A 
HETATM   17  C   UNL     1      -5.617  -2.004 -34.182  1.00  0.00    -0.028 A 
HETATM   18  C   UNL     1      -7.018  -1.958 -34.163  1.00  0.00     0.010 A 
HETATM   19  C   UNL     1      -7.682  -0.808 -33.742  1.00  0.00     0.003 A 
HETATM   20  C   UNL     1      -6.950   0.311 -33.340  1.00  0.00     0.029 A 
BRANCH  17  21
HETATM   21  C   UNL     1      -4.881  -3.252 -34.619  1.00  0.00     0.147 C 
HETATM   22  C   UNL     1      -5.819  -4.425 -34.859  1.00  0.00     0.044 C 
BRANCH  21  23
HETATM   23  O   UNL     1      -3.920  -3.624 -33.631  1.00  0.00    -0.391 OA
HETATM   24  H   UNL     1      -3.252  -4.167 -34.082  1.00  0.00     0.210 HD
ENDBRANCH  21  23
ENDBRANCH  17  21
ENDBRANCH  12  15
ENDBRANCH   1  11
BRANCH   8  25
HETATM   25  C   UNL     1      -1.362   5.944 -33.872  1.00  0.00     0.409 C 
HETATM   26  F   UNL     1      -2.677   6.226 -33.998  1.00  0.00    -0.169 F 
HETATM   27  F   UNL     1      -0.684   7.109 -33.909  1.00  0.00    -0.169 F 
HETATM   28  F   UNL     1      -1.006   5.256 -34.988  1.00  0.00    -0.169 F 
ENDBRANCH   8  25
BRANCH   6  29
HETATM   29  C   UNL     1      -0.820   7.277 -29.470  1.00  0.00    -0.035 A 
HETATM   30  C   UNL     1      -1.666   7.278 -28.342  1.00  0.00     0.012 A 
HETATM   31  C   UNL     1      -1.168   7.589 -27.077  1.00  0.00     0.043 A 
HETATM   32  C   UNL     1       0.178   7.893 -26.930  1.00  0.00     0.116 A 
HETATM   33  F   UNL     1       0.661   8.186 -25.716  1.00  0.00    -0.206 F 
HETATM   34  C   UNL     1       1.035   7.894 -28.026  1.00  0.00     0.043 A 
HETATM   35  C   UNL     1       0.539   7.588 -29.295  1.00  0.00     0.012 A 
ENDBRANCH   6  29
TORSDOF 6
ENDMDL
MODEL 3
REMARK VINA RESULT:      -9.7      4.591      9.813
REMARK  6 active torsions:
REMARK  status: ('A' for Active; 'I' for Inactive)
REMARK    1  A    between atoms: C_2  and  O_3 
REMARK    2  A    between atoms: C_2  and  C_4 
REMARK    3  A    between atoms: C_6  and  N_7 
REMARK       I    between atoms: N_7  and  C_8 
REMARK    4  A    between atoms: C_8  and  C_9 
REMARK    5  A    between atoms: C_14  and  C_15 
REMARK    6  A    between atoms: C_23  and  C_24 
ROOT
HETATM    1  C   UNL     1      -6.231   3.587 -33.356  1.00  0.00     0.148 C 
HETATM    2  N   UNL     1      -7.138   3.027 -32.517  1.00  0.00    -0.165 NA
HETATM    3  N   UNL     1      -7.495   1.904 -33.162  1.00  0.00    -0.240 N 
HETATM    4  C   UNL     1      -6.753   1.641 -34.277  1.00  0.00     0.123 C 
HETATM    5  N   UNL     1      -6.862   0.461 -34.919  1.00  0.00    -0.366 N 
HETATM    6  C   UNL     1      -7.485  -0.713 -34.300  1.00  0.00     0.118 C 
HETATM    7  C   UNL     1      -7.910  -0.455 -32.836  1.00  0.00     0.066 C 
HETATM    8  C   UNL     1      -8.453   0.962 -32.621  1.00  0.00     0.221 C 
HETATM    9  C   UNL     1      -5.991   2.758 -34.489  1.00  0.00     0.089 C 
HETATM   10  H   UNL     1      -6.304   0.264 -35.751  1.00  0.00     0.161 HD
ENDROOT
BRANCH   1  11
HETATM   11  C   UNL     1      -5.563   4.863 -33.043  1.00  0.00     0.276 C 
HETATM   12  N   UNL     1      -4.197   4.705 -32.921  1.00  0.00    -0.322 N 
HETATM   13  H   UNL     1      -3.887   3.748 -33.076  1.00  0.00     0.169 HD
HETATM   14  O   UNL     1      -6.193   5.912 -32.959  1.00  0.00    -0.266 OA
BRANCH  12  15
HETATM   15  C   UNL     1      -3.221   5.686 -32.685  1.00  0.00     0.035 A 
HETATM   16  C   UNL     1      -2.718   5.990 -31.418  1.00  0.00     0.039 A 
HETATM   17  C   UNL     1      -1.737   6.984 -31.248  1.00  0.00    -0.028 A 
HETATM   18  C   UNL     1      -1.285   7.689 -32.372  1.00  0.00     0.010 A 
HETATM   19  C   UNL     1      -1.781   7.392 -33.639  1.00  0.00     0.003 A 
HETATM   20  C   UNL     1      -2.738   6.388 -33.795  1.00  0.00     0.029 A 
BRANCH  17  21
HETATM   21  C   UNL     1      -1.196   7.282 -29.867  1.00  0.00     0.147 C 
HETATM   22  C   UNL     1       0.321   7.194 -29.806  1.00  0.00     0.044 C 
BRANCH  21  23
HETATM   23  O   UNL     1      -1.750   6.371 -28.918  1.00  0.00    -0.391 OA
HETATM   24  H   UNL     1      -2.084   6.907 -28.179  1.00  0.00     0.210 HD
ENDBRANCH  21  23
ENDBRANCH  17  21
ENDBRANCH  12  15
ENDBRANCH   1  11
BRANCH   8  25
HETATM   25  C   UNL     1      -9.810   1.175 -33.251  1.00  0.00     0.409 C 
HETATM   26  F   UNL     1     -10.548   2.089 -32.583  1.00  0.00    -0.169 F 
HETATM   27  F   UNL     1      -9.758   1.551 -34.545  1.00  0.00    -0.169 F 
HETATM   28  F   UNL     1     -10.513   0.012 -33.217  1.00  0.00    -0.169 F 
ENDBRANCH   8  25
BRANCH   6  29
HETATM   29  C   UNL     1      -6.517  -1.887 -34.357  1.00  0.00    -0.035 A 
HETATM   30  C   UNL     1      -5.169  -1.734 -33.974  1.00  0.00     0.012 A 
HETATM   31  C   UNL     1      -4.293  -2.818 -33.997  1.00  0.00     0.043 A 
HETATM   32  C   UNL     1      -4.759  -4.062 -34.395  1.00  0.00     0.116 A 
HETATM   33  F   UNL     1      -3.922  -5.108 -34.413  1.00  0.00    -0.206 F 
HETATM   34  C   UNL     1      -6.086  -4.242 -34.774  1.00  0.00     0.043 A 
HETATM   35  C   UNL     1      -6.965  -3.157 -34.756  1.00  0.00     0.012 A 
ENDBRANCH   6  29
TORSDOF 6
ENDMDL
MODEL 4
REMARK VINA RESULT:      -9.6      4.184      9.649
REMARK  6 active torsions:
REMARK  status: ('A' for Active; 'I' for Inactive)
REMARK    1  A    between atoms: C_2  and  O_3 
REMARK    2  A    between atoms: C_2  and  C_4 
REMARK    3  A    between atoms: C_6  and  N_7 
REMARK       I    between atoms: N_7  and  C_8 
REMARK    4  A    between atoms: C_8  and  C_9 
REMARK    5  A    between atoms: C_14  and  C_15 
REMARK    6  A    between atoms: C_23  and  C_24 
ROOT
HETATM    1  C   UNL     1      -4.930   4.125 -31.740  1.00  0.00     0.148 C 
HETATM    2  N   UNL     1      -5.754   3.512 -30.855  1.00  0.00    -0.165 NA
HETATM    3  N   UNL     1      -6.341   2.558 -31.599  1.00  0.00    -0.240 N 
HETATM    4  C   UNL     1      -5.821   2.432 -32.854  1.00  0.00     0.123 C 
HETATM    5  N   UNL     1      -6.172   1.399 -33.647  1.00  0.00    -0.366 N 
HETATM    6  C   UNL     1      -6.827   0.196 -33.124  1.00  0.00     0.118 C 
HETATM    7  C   UNL     1      -6.982   0.228 -31.586  1.00  0.00     0.066 C 
HETATM    8  C   UNL     1      -7.308   1.628 -31.055  1.00  0.00     0.221 C 
HETATM    9  C   UNL     1      -4.973   3.493 -33.015  1.00  0.00     0.089 C 
HETATM   10  H   UNL     1      -5.780   1.303 -34.584  1.00  0.00     0.161 HD
ENDROOT
BRANCH   1  11
HETATM   11  C   UNL     1      -4.071   5.259 -31.349  1.00  0.00     0.276 C 
HETATM   12  N   UNL     1      -2.758   4.867 -31.179  1.00  0.00    -0.322 N 
HETATM   13  H   UNL     1      -2.608   3.876 -31.359  1.00  0.00     0.169 HD
HETATM   14  O   UNL     1      -4.519   6.396 -31.248  1.00  0.00    -0.266 OA
BRANCH  12  15
HETATM   15  C   UNL     1      -1.643   5.659 -30.865  1.00  0.00     0.035 A 
HETATM   16  C   UNL     1      -1.508   6.367 -29.669  1.00  0.00     0.039 A 
HETATM   17  C   UNL     1      -0.363   7.143 -29.412  1.00  0.00    -0.028 A 
HETATM   18  C   UNL     1       0.638   7.217 -30.391  1.00  0.00     0.010 A 
HETATM   19  C   UNL     1       0.512   6.513 -31.586  1.00  0.00     0.003 A 
HETATM   20  C   UNL     1      -0.620   5.730 -31.817  1.00  0.00     0.029 A 
BRANCH  17  21
HETATM   21  C   UNL     1      -0.233   7.887 -28.101  1.00  0.00     0.147 C 
HETATM   22  C   UNL     1       1.180   8.399 -27.862  1.00  0.00     0.044 C 
BRANCH  21  23
HETATM   23  O   UNL     1      -0.605   7.036 -27.018  1.00  0.00    -0.391 OA
HETATM   24  H   UNL     1      -1.483   6.678 -27.234  1.00  0.00     0.210 HD
ENDBRANCH  21  23
ENDBRANCH  17  21
ENDBRANCH  12  15
ENDBRANCH   1  11
BRANCH   8  25
HETATM   25  C   UNL     1      -8.713   2.074 -31.394  1.00  0.00     0.409 C 
HETATM   26  F   UNL     1      -8.733   2.997 -32.380  1.00  0.00    -0.169 F 
HETATM   27  F   UNL     1      -9.533   1.066 -31.754  1.00  0.00    -0.169 F 
HETATM   28  F   UNL     1      -9.278   2.659 -30.306  1.00  0.00    -0.169 F 
ENDBRANCH   8  25
BRANCH   6  29
HETATM   29  C   UNL     1      -6.030  -1.033 -33.537  1.00  0.00    -0.035 A 
HETATM   30  C   UNL     1      -4.726  -1.250 -33.045  1.00  0.00     0.012 A 
HETATM   31  C   UNL     1      -4.010  -2.393 -33.401  1.00  0.00     0.043 A 
HETATM   32  C   UNL     1      -4.594  -3.328 -34.242  1.00  0.00     0.116 A 
HETATM   33  F   UNL     1      -3.912  -4.430 -34.581  1.00  0.00    -0.206 F 
HETATM   34  C   UNL     1      -5.881  -3.140 -34.738  1.00  0.00     0.043 A 
HETATM   35  C   UNL     1      -6.599  -1.995 -34.388  1.00  0.00     0.012 A 
ENDBRANCH   6  29
TORSDOF 6
ENDMDL
MODEL 5
REMARK VINA RESULT:      -9.4      7.529     10.882
REMARK  6 active torsions:
REMARK  status: ('A' for Active; 'I' for Inactive)
REMARK    1  A    between atoms: C_2  and  O_3 
REMARK    2  A    between atoms: C_2  and  C_4 
REMARK    3  A    between atoms: C_6  and  N_7 
REMARK       I    between atoms: N_7  and  C_8 
REMARK    4  A    between atoms: C_8  and  C_9 
REMARK    5  A    between atoms: C_14  and  C_15 
REMARK    6  A    between atoms: C_23  and  C_24 
ROOT
HETATM    1  C   UNL     1     -10.732   1.286 -33.680  1.00  0.00     0.148 C 
HETATM    2  N   UNL     1      -9.813   1.955 -34.419  1.00  0.00    -0.165 NA
HETATM    3  N   UNL     1      -8.649   1.424 -34.008  1.00  0.00    -0.240 N 
HETATM    4  C   UNL     1      -8.788   0.354 -33.173  1.00  0.00     0.123 C 
HETATM    5  N   UNL     1      -7.723  -0.400 -32.831  1.00  0.00    -0.366 N 
HETATM    6  C   UNL     1      -6.460  -0.354 -33.572  1.00  0.00     0.118 C 
HETATM    7  C   UNL     1      -6.530   0.577 -34.805  1.00  0.00     0.066 C 
HETATM    8  C   UNL     1      -7.369   1.833 -34.548  1.00  0.00     0.221 C 
HETATM    9  C   UNL     1     -10.118   0.296 -32.860  1.00  0.00     0.089 C 
HETATM   10  H   UNL     1      -7.829  -1.203 -32.209  1.00  0.00     0.161 HD
ENDROOT
BRANCH   1  11
HETATM   11  C   UNL     1     -12.177   1.552 -33.804  1.00  0.00     0.276 C 
HETATM   12  N   UNL     1     -12.665   2.231 -32.705  1.00  0.00    -0.322 N 
HETATM   13  H   UNL     1     -11.951   2.437 -32.010  1.00  0.00     0.169 HD
HETATM   14  O   UNL     1     -12.803   1.226 -34.806  1.00  0.00    -0.266 OA
BRANCH  12  15
HETATM   15  C   UNL     1     -13.966   2.708 -32.479  1.00  0.00     0.035 A 
HETATM   16  C   UNL     1     -14.256   4.026 -32.120  1.00  0.00     0.039 A 
HETATM   17  C   UNL     1     -15.583   4.443 -31.910  1.00  0.00    -0.028 A 
HETATM   18  C   UNL     1     -16.617   3.505 -32.042  1.00  0.00     0.010 A 
HETATM   19  C   UNL     1     -16.336   2.189 -32.401  1.00  0.00     0.003 A 
HETATM   20  C   UNL     1     -15.016   1.795 -32.627  1.00  0.00     0.029 A 
BRANCH  17  21
HETATM   21  C   UNL     1     -15.873   5.880 -31.538  1.00  0.00     0.147 C 
HETATM   22  C   UNL     1     -15.271   6.265 -30.195  1.00  0.00     0.044 C 
BRANCH  21  23
HETATM   23  O   UNL     1     -17.283   6.097 -31.491  1.00  0.00    -0.391 OA
HETATM   24  H   UNL     1     -17.694   5.373 -31.992  1.00  0.00     0.210 HD
ENDBRANCH  21  23
ENDBRANCH  17  21
ENDBRANCH  12  15
ENDBRANCH   1  11
BRANCH   8  25
HETATM   25  C   UNL     1      -6.693   2.811 -33.613  1.00  0.00     0.409 C 
HETATM   26  F   UNL     1      -7.302   2.873 -32.409  1.00  0.00    -0.169 F 
HETATM   27  F   UNL     1      -5.387   2.551 -33.403  1.00  0.00    -0.169 F 
HETATM   28  F   UNL     1      -6.756   4.061 -34.142  1.00  0.00    -0.169 F 
ENDBRANCH   8  25
BRANCH   6  29
HETATM   29  C   UNL     1      -6.079  -1.762 -34.009  1.00  0.00    -0.035 A 
HETATM   30  C   UNL     1      -4.748  -2.218 -33.904  1.00  0.00     0.012 A 
HETATM   31  C   UNL     1      -4.408  -3.518 -34.275  1.00  0.00     0.043 A 
HETATM   32  C   UNL     1      -5.395  -4.372 -34.745  1.00  0.00     0.116 A 
HETATM   33  F   UNL     1      -5.073  -5.624 -35.096  1.00  0.00    -0.206 F 
HETATM   34  C   UNL     1      -6.716  -3.949 -34.853  1.00  0.00     0.043 A 
HETATM   35  C   UNL     1      -7.059  -2.646 -34.487  1.00  0.00     0.012 A 
ENDBRANCH   6  29
TORSDOF 6
ENDMDL
MODEL 6
REMARK VINA RESULT:      -9.4      1.750      2.191
REMARK  6 active torsions:
REMARK  status: ('A' for Active; 'I' for Inactive)
REMARK    1  A    between atoms: C_2  and  O_3 
REMARK    2  A    between atoms: C_2  and  C_4 
REMARK    3  A    between atoms: C_6  and  N_7 
REMARK       I    between atoms: N_7  and  C_8 
REMARK    4  A    between atoms: C_8  and  C_9 
REMARK    5  A    between atoms: C_14  and  C_15 
REMARK    6  A    between atoms: C_23  and  C_24 
ROOT
HETATM    1  C   UNL     1      -5.275   1.833 -31.588  1.00  0.00     0.148 C 
HETATM    2  N   UNL     1      -5.341   2.652 -32.666  1.00  0.00    -0.165 NA
HETATM    3  N   UNL     1      -5.162   3.872 -32.131  1.00  0.00    -0.240 N 
HETATM    4  C   UNL     1      -4.830   3.857 -30.808  1.00  0.00     0.123 C 
HETATM    5  N   UNL     1      -4.434   4.984 -30.181  1.00  0.00    -0.366 N 
HETATM    6  C   UNL     1      -4.004   6.178 -30.914  1.00  0.00     0.118 C 
HETATM    7  C   UNL     1      -3.983   5.959 -32.444  1.00  0.00     0.066 C 
HETATM    8  C   UNL     1      -5.141   5.080 -32.929  1.00  0.00     0.221 C 
HETATM    9  C   UNL     1      -4.989   2.562 -30.398  1.00  0.00     0.089 C 
HETATM   10  H   UNL     1      -4.182   4.971 -29.192  1.00  0.00     0.161 HD
ENDROOT
BRANCH   1  11
HETATM   11  C   UNL     1      -5.422   0.371 -31.709  1.00  0.00     0.276 C 
HETATM   12  N   UNL     1      -4.354  -0.194 -32.377  1.00  0.00    -0.322 N 
HETATM   13  H   UNL     1      -3.651   0.486 -32.660  1.00  0.00     0.169 HD
HETATM   14  O   UNL     1      -6.377  -0.219 -31.216  1.00  0.00    -0.266 OA
BRANCH  12  15
HETATM   15  C   UNL     1      -4.105  -1.551 -32.640  1.00  0.00     0.035 A 
HETATM   16  C   UNL     1      -4.748  -2.276 -33.646  1.00  0.00     0.039 A 
HETATM   17  C   UNL     1      -4.452  -3.634 -33.861  1.00  0.00    -0.028 A 
HETATM   18  C   UNL     1      -3.515  -4.263 -33.029  1.00  0.00     0.010 A 
HETATM   19  C   UNL     1      -2.869  -3.547 -32.024  1.00  0.00     0.003 A 
HETATM   20  C   UNL     1      -3.157  -2.194 -31.837  1.00  0.00     0.029 A 
BRANCH  17  21
HETATM   21  C   UNL     1      -5.150  -4.392 -34.969  1.00  0.00     0.147 C 
HETATM   22  C   UNL     1      -6.649  -4.136 -34.993  1.00  0.00     0.044 C 
BRANCH  21  23
HETATM   23  O   UNL     1      -4.924  -5.794 -34.817  1.00  0.00    -0.391 OA
HETATM   24  H   UNL     1      -5.335  -6.227 -35.585  1.00  0.00     0.210 HD
ENDBRANCH  21  23
ENDBRANCH  17  21
ENDBRANCH  12  15
ENDBRANCH   1  11
BRANCH   8  25
HETATM   25  C   UNL     1      -6.480   5.779 -32.858  1.00  0.00     0.409 C 
HETATM   26  F   UNL     1      -7.227   5.351 -31.816  1.00  0.00    -0.169 F 
HETATM   27  F   UNL     1      -6.391   7.122 -32.778  1.00  0.00    -0.169 F 
HETATM   28  F   UNL     1      -7.194   5.507 -33.982  1.00  0.00    -0.169 F 
ENDBRANCH   8  25
BRANCH   6  29
HETATM   29  C   UNL     1      -2.620   6.594 -30.434  1.00  0.00    -0.035 A 
HETATM   30  C   UNL     1      -1.468   5.894 -30.849  1.00  0.00     0.012 A 
HETATM   31  C   UNL     1      -0.200   6.297 -30.433  1.00  0.00     0.043 A 
HETATM   32  C   UNL     1      -0.073   7.404 -29.607  1.00  0.00     0.116 A 
HETATM   33  F   UNL     1       1.144   7.797 -29.210  1.00  0.00    -0.206 F 
HETATM   34  C   UNL     1      -1.193   8.115 -29.186  1.00  0.00     0.043 A 
HETATM   35  C   UNL     1      -2.465   7.712 -29.597  1.00  0.00     0.012 A 
ENDBRANCH   6  29
TORSDOF 6
ENDMDL
MODEL 7
REMARK VINA RESULT:      -9.3      4.883      9.875
REMARK  6 active torsions:
REMARK  status: ('A' for Active; 'I' for Inactive)
REMARK    1  A    between atoms: C_2  and  O_3 
REMARK    2  A    between atoms: C_2  and  C_4 
REMARK    3  A    between atoms: C_6  and  N_7 
REMARK       I    between atoms: N_7  and  C_8 
REMARK    4  A    between atoms: C_8  and  C_9 
REMARK    5  A    between atoms: C_14  and  C_15 
REMARK    6  A    between atoms: C_23  and  C_24 
ROOT
HETATM    1  C   UNL     1      -4.667   1.878 -32.311  1.00  0.00     0.148 C 
HETATM    2  N   UNL     1      -4.705   1.185 -33.476  1.00  0.00    -0.165 NA
HETATM    3  N   UNL     1      -5.911   0.595 -33.438  1.00  0.00    -0.240 N 
HETATM    4  C   UNL     1      -6.698   0.999 -32.398  1.00  0.00     0.123 C 
HETATM    5  N   UNL     1      -7.997   0.642 -32.333  1.00  0.00    -0.366 N 
HETATM    6  C   UNL     1      -8.725   0.122 -33.494  1.00  0.00     0.118 C 
HETATM    7  C   UNL     1      -7.864   0.113 -34.779  1.00  0.00     0.066 C 
HETATM    8  C   UNL     1      -6.401  -0.252 -34.506  1.00  0.00     0.221 C 
HETATM    9  C   UNL     1      -5.891   1.755 -31.593  1.00  0.00     0.089 C 
HETATM   10  H   UNL     1      -8.584   0.948 -31.557  1.00  0.00     0.161 HD
ENDROOT
BRANCH   1  11
HETATM   11  C   UNL     1      -3.500   2.693 -31.926  1.00  0.00     0.276 C 
HETATM   12  N   UNL     1      -3.508   3.922 -32.556  1.00  0.00    -0.322 N 
HETATM   13  H   UNL     1      -4.314   4.058 -33.163  1.00  0.00     0.169 HD
HETATM   14  O   UNL     1      -2.681   2.291 -31.107  1.00  0.00    -0.266 OA
BRANCH  12  15
HETATM   15  C   UNL     1      -2.606   4.987 -32.407  1.00  0.00     0.035 A 
HETATM   16  C   UNL     1      -2.295   5.573 -31.177  1.00  0.00     0.039 A 
HETATM   17  C   UNL     1      -1.379   6.637 -31.094  1.00  0.00    -0.028 A 
HETATM   18  C   UNL     1      -0.796   7.123 -32.272  1.00  0.00     0.010 A 
HETATM   19  C   UNL     1      -1.099   6.543 -33.502  1.00  0.00     0.003 A 
HETATM   20  C   UNL     1      -1.994   5.474 -33.567  1.00  0.00     0.029 A 
BRANCH  17  21
HETATM   21  C   UNL     1      -1.047   7.243 -29.748  1.00  0.00     0.147 C 
HETATM   22  C   UNL     1       0.451   7.280 -29.482  1.00  0.00     0.044 C 
BRANCH  21  23
HETATM   23  O   UNL     1      -1.683   6.501 -28.708  1.00  0.00    -0.391 OA
HETATM   24  H   UNL     1      -2.528   6.945 -28.525  1.00  0.00     0.210 HD
ENDBRANCH  21  23
ENDBRANCH  17  21
ENDBRANCH  12  15
ENDBRANCH   1  11
BRANCH   8  25
HETATM   25  C   UNL     1      -6.216  -1.709 -34.146  1.00  0.00     0.409 C 
HETATM   26  F   UNL     1      -5.586  -1.869 -32.962  1.00  0.00    -0.169 F 
HETATM   27  F   UNL     1      -7.367  -2.410 -34.100  1.00  0.00    -0.169 F 
HETATM   28  F   UNL     1      -5.437  -2.312 -35.082  1.00  0.00    -0.169 F 
ENDBRANCH   8  25
BRANCH   6  29
HETATM   29  C   UNL     1      -9.979   0.955 -33.719  1.00  0.00    -0.035 A 
HETATM   30  C   UNL     1      -9.899   2.251 -34.271  1.00  0.00     0.012 A 
HETATM   31  C   UNL     1     -11.051   3.000 -34.505  1.00  0.00     0.043 A 
HETATM   32  C   UNL     1     -12.290   2.457 -34.196  1.00  0.00     0.116 A 
HETATM   33  F   UNL     1     -13.400   3.172 -34.425  1.00  0.00    -0.206 F 
HETATM   34  C   UNL     1     -12.398   1.180 -33.655  1.00  0.00     0.043 A 
HETATM   35  C   UNL     1     -11.245   0.429 -33.415  1.00  0.00     0.012 A 
ENDBRANCH   6  29
TORSDOF 6
ENDMDL
MODEL 8
REMARK VINA RESULT:      -9.2      7.178      9.436
REMARK  6 active torsions:
REMARK  status: ('A' for Active; 'I' for Inactive)
REMARK    1  A    between atoms: C_2  and  O_3 
REMARK    2  A    between atoms: C_2  and  C_4 
REMARK    3  A    between atoms: C_6  and  N_7 
REMARK       I    between atoms: N_7  and  C_8 
REMARK    4  A    between atoms: C_8  and  C_9 
REMARK    5  A    between atoms: C_14  and  C_15 
REMARK    6  A    between atoms: C_23  and  C_24 
ROOT
HETATM    1  C   UNL     1      -9.535   1.103 -32.855  1.00  0.00     0.148 C 
HETATM    2  N   UNL     1     -10.425   0.615 -33.754  1.00  0.00    -0.165 NA
HETATM    3  N   UNL     1     -11.365   1.574 -33.800  1.00  0.00    -0.240 N 
HETATM    4  C   UNL     1     -11.043   2.705 -33.108  1.00  0.00     0.123 C 
HETATM    5  N   UNL     1     -11.794   3.820 -33.216  1.00  0.00    -0.366 N 
HETATM    6  C   UNL     1     -12.756   4.014 -34.304  1.00  0.00     0.118 C 
HETATM    7  C   UNL     1     -12.740   2.852 -35.324  1.00  0.00     0.066 C 
HETATM    8  C   UNL     1     -12.529   1.487 -34.659  1.00  0.00     0.221 C 
HETATM    9  C   UNL     1      -9.911   2.400 -32.403  1.00  0.00     0.089 C 
HETATM   10  H   UNL     1     -11.550   4.666 -32.700  1.00  0.00     0.161 HD
ENDROOT
BRANCH   1  11
HETATM   11  C   UNL     1      -8.314   0.363 -32.485  1.00  0.00     0.276 C 
HETATM   12  N   UNL     1      -7.731  -0.236 -33.584  1.00  0.00    -0.322 N 
HETATM   13  H   UNL     1      -8.231  -0.058 -34.453  1.00  0.00     0.169 HD
HETATM   14  O   UNL     1      -7.895   0.354 -31.333  1.00  0.00    -0.266 OA
BRANCH  12  15
HETATM   15  C   UNL     1      -6.538  -0.975 -33.647  1.00  0.00     0.035 A 
HETATM   16  C   UNL     1      -6.436  -2.230 -34.250  1.00  0.00     0.039 A 
HETATM   17  C   UNL     1      -5.210  -2.919 -34.283  1.00  0.00    -0.028 A 
HETATM   18  C   UNL     1      -4.089  -2.336 -33.675  1.00  0.00     0.010 A 
HETATM   19  C   UNL     1      -4.182  -1.084 -33.073  1.00  0.00     0.003 A 
HETATM   20  C   UNL     1      -5.401  -0.403 -33.068  1.00  0.00     0.029 A 
BRANCH  17  21
HETATM   21  C   UNL     1      -5.121  -4.271 -34.957  1.00  0.00     0.147 C 
HETATM   22  C   UNL     1      -6.479  -4.784 -35.411  1.00  0.00     0.044 C 
BRANCH  21  23
HETATM   23  O   UNL     1      -4.541  -5.223 -34.065  1.00  0.00    -0.391 OA
HETATM   24  H   UNL     1      -3.583  -5.060 -34.067  1.00  0.00     0.210 HD
ENDBRANCH  21  23
ENDBRANCH  17  21
ENDBRANCH  12  15
ENDBRANCH   1  11
BRANCH   8  25
HETATM   25  C   UNL     1     -13.731   1.026 -33.867  1.00  0.00     0.409 C 
HETATM   26  F   UNL     1     -13.689  -0.297 -33.594  1.00  0.00    -0.169 F 
HETATM   27  F   UNL     1     -13.901   1.683 -32.701  1.00  0.00    -0.169 F 
HETATM   28  F   UNL     1     -14.860   1.234 -34.594  1.00  0.00    -0.169 F 
ENDBRANCH   8  25
BRANCH   6  29
HETATM   29  C   UNL     1     -12.458   5.327 -35.014  1.00  0.00    -0.035 A 
HETATM   30  C   UNL     1     -13.487   6.068 -35.631  1.00  0.00     0.012 A 
HETATM   31  C   UNL     1     -13.216   7.286 -36.253  1.00  0.00     0.043 A 
HETATM   32  C   UNL     1     -11.918   7.775 -36.255  1.00  0.00     0.116 A 
HETATM   33  F   UNL     1     -11.654   8.948 -36.847  1.00  0.00    -0.206 F 
HETATM   34  C   UNL     1     -10.885   7.067 -35.650  1.00  0.00     0.043 A 
HETATM   35  C   UNL     1     -11.152   5.844 -35.030  1.00  0.00     0.012 A 
ENDBRANCH   6  29
TORSDOF 6
ENDMDL
MODEL 9
REMARK VINA RESULT:      -9.1      1.733      2.059
REMARK  6 active torsions:
REMARK  status: ('A' for Active; 'I' for Inactive)
REMARK    1  A    between atoms: C_2  and  O_3 
REMARK    2  A    between atoms: C_2  and  C_4 
REMARK    3  A    between atoms: C_6  and  N_7 
REMARK       I    between atoms: N_7  and  C_8 
REMARK    4  A    between atoms: C_8  and  C_9 
REMARK    5  A    between atoms: C_14  and  C_15 
REMARK    6  A    between atoms: C_23  and  C_24 
ROOT
HETATM    1  C   UNL     1      -4.641   2.116 -32.074  1.00  0.00     0.148 C 
HETATM    2  N   UNL     1      -3.461   2.591 -32.545  1.00  0.00    -0.165 NA
HETATM    3  N   UNL     1      -3.520   3.899 -32.245  1.00  0.00    -0.240 N 
HETATM    4  C   UNL     1      -4.591   4.247 -31.474  1.00  0.00     0.123 C 
HETATM    5  N   UNL     1      -4.684   5.480 -30.934  1.00  0.00    -0.366 N 
HETATM    6  C   UNL     1      -3.532   6.381 -30.837  1.00  0.00     0.118 C 
HETATM    7  C   UNL     1      -2.224   5.728 -31.339  1.00  0.00     0.066 C 
HETATM    8  C   UNL     1      -2.446   4.821 -32.554  1.00  0.00     0.221 C 
HETATM    9  C   UNL     1      -5.390   3.139 -31.425  1.00  0.00     0.089 C 
HETATM   10  H   UNL     1      -5.483   5.738 -30.355  1.00  0.00     0.161 HD
ENDROOT
BRANCH   1  11
HETATM   11  C   UNL     1      -5.012   0.694 -32.192  1.00  0.00     0.276 C 
HETATM   12  N   UNL     1      -3.943  -0.078 -32.603  1.00  0.00    -0.322 N 
HETATM   13  H   UNL     1      -3.090   0.459 -32.742  1.00  0.00     0.169 HD
HETATM   14  O   UNL     1      -6.136   0.300 -31.903  1.00  0.00    -0.266 OA
BRANCH  12  15
HETATM   15  C   UNL     1      -3.885  -1.470 -32.775  1.00  0.00     0.035 A 
HETATM   16  C   UNL     1      -4.587  -2.157 -33.768  1.00  0.00     0.039 A 
HETATM   17  C   UNL     1      -4.485  -3.555 -33.891  1.00  0.00    -0.028 A 
HETATM   18  C   UNL     1      -3.682  -4.258 -32.981  1.00  0.00     0.010 A 
HETATM   19  C   UNL     1      -2.978  -3.580 -31.989  1.00  0.00     0.003 A 
HETATM   20  C   UNL     1      -3.072  -2.190 -31.893  1.00  0.00     0.029 A 
BRANCH  17  21
HETATM   21  C   UNL     1      -5.242  -4.274 -34.985  1.00  0.00     0.147 C 
HETATM   22  C   UNL     1      -6.748  -4.097 -34.862  1.00  0.00     0.044 C 
BRANCH  21  23
HETATM   23  O   UNL     1      -4.938  -5.668 -34.954  1.00  0.00    -0.391 OA
HETATM   24  H   UNL     1      -4.701  -5.923 -35.862  1.00  0.00     0.210 HD
ENDBRANCH  21  23
ENDBRANCH  17  21
ENDBRANCH  12  15
ENDBRANCH   1  11
BRANCH   8  25
HETATM   25  C   UNL     1      -2.766   5.594 -33.814  1.00  0.00     0.409 C 
HETATM   26  F   UNL     1      -2.212   5.035 -34.913  1.00  0.00    -0.169 F 
HETATM   27  F   UNL     1      -4.086   5.739 -34.045  1.00  0.00    -0.169 F 
HETATM   28  F   UNL     1      -2.251   6.848 -33.719  1.00  0.00    -0.169 F 
ENDBRANCH   8  25
BRANCH   6  29
HETATM   29  C   UNL     1      -3.363   6.830 -29.392  1.00  0.00    -0.035 A 
HETATM   30  C   UNL     1      -4.406   6.668 -28.457  1.00  0.00     0.012 A 
HETATM   31  C   UNL     1      -4.238   7.051 -27.126  1.00  0.00     0.043 A 
HETATM   32  C   UNL     1      -3.026   7.589 -26.721  1.00  0.00     0.116 A 
HETATM   33  F   UNL     1      -2.858   7.953 -25.442  1.00  0.00    -0.206 F 
HETATM   34  C   UNL     1      -1.979   7.756 -27.622  1.00  0.00     0.043 A 
HETATM   35  C   UNL     1      -2.146   7.378 -28.956  1.00  0.00     0.012 A 
ENDBRANCH   6  29
TORSDOF 6
ENDMDL
MODEL 10
REMARK VINA RESULT:      -8.9      7.238     10.426
REMARK  6 active torsions:
REMARK  status: ('A' for Active; 'I' for Inactive)
REMARK    1  A    between atoms: C_2  and  O_3 
REMARK    2  A    between atoms: C_2  and  C_4 
REMARK    3  A    between atoms: C_6  and  N_7 
REMARK       I    between atoms: N_7  and  C_8 
REMARK    4  A    between atoms: C_8  and  C_9 
REMARK    5  A    between atoms: C_14  and  C_15 
REMARK    6  A    between atoms: C_23  and  C_24 
ROOT
HETATM    1  C   UNL     1     -10.093   2.108 -33.185  1.00  0.00     0.148 C 
HETATM    2  N   UNL     1      -9.021   2.730 -33.735  1.00  0.00    -0.165 NA
HETATM    3  N   UNL     1      -7.991   1.962 -33.341  1.00  0.00    -0.240 N 
HETATM    4  C   UNL     1      -8.362   0.809 -32.713  1.00  0.00     0.123 C 
HETATM    5  N   UNL     1      -7.456  -0.149 -32.432  1.00  0.00    -0.366 N 
HETATM    6  C   UNL     1      -6.135  -0.188 -33.067  1.00  0.00     0.118 C 
HETATM    7  C   UNL     1      -5.953   0.924 -34.125  1.00  0.00     0.066 C 
HETATM    8  C   UNL     1      -6.620   2.242 -33.716  1.00  0.00     0.221 C 
HETATM    9  C   UNL     1      -9.710   0.916 -32.506  1.00  0.00     0.089 C 
HETATM   10  H   UNL     1      -7.736  -1.012 -31.965  1.00  0.00     0.161 HD
ENDROOT
BRANCH   1  11
HETATM   11  C   UNL     1     -11.466   2.617 -33.360  1.00  0.00     0.276 C 
HETATM   12  N   UNL     1     -12.005   3.048 -32.164  1.00  0.00    -0.322 N 
HETATM   13  H   UNL     1     -11.367   2.951 -31.377  1.00  0.00     0.169 HD
HETATM   14  O   UNL     1     -11.993   2.667 -34.466  1.00  0.00    -0.266 OA
BRANCH  12  15
HETATM   15  C   UNL     1     -13.255   3.643 -31.933  1.00  0.00     0.035 A 
HETATM   16  C   UNL     1     -14.465   3.101 -32.374  1.00  0.00     0.039 A 
HETATM   17  C   UNL     1     -15.686   3.746 -32.107  1.00  0.00    -0.028 A 
HETATM   18  C   UNL     1     -15.673   4.961 -31.409  1.00  0.00     0.010 A 
HETATM   19  C   UNL     1     -14.471   5.508 -30.965  1.00  0.00     0.003 A 
HETATM   20  C   UNL     1     -13.269   4.846 -31.218  1.00  0.00     0.029 A 
BRANCH  17  21
HETATM   21  C   UNL     1     -16.984   3.130 -32.582  1.00  0.00     0.147 C 
HETATM   22  C   UNL     1     -17.902   2.749 -31.429  1.00  0.00     0.044 C 
BRANCH  21  23
HETATM   23  O   UNL     1     -16.715   1.964 -33.361  1.00  0.00    -0.391 OA
HETATM   24  H   UNL     1     -17.260   1.249 -32.991  1.00  0.00     0.210 HD
ENDBRANCH  21  23
ENDBRANCH  17  21
ENDBRANCH  12  15
ENDBRANCH   1  11
BRANCH   8  25
HETATM   25  C   UNL     1      -5.900   2.940 -32.584  1.00  0.00     0.409 C 
HETATM   26  F   UNL     1      -4.639   2.484 -32.421  1.00  0.00    -0.169 F 
HETATM   27  F   UNL     1      -5.841   4.280 -32.720  1.00  0.00    -0.169 F 
HETATM   28  F   UNL     1      -6.551   2.700 -31.416  1.00  0.00    -0.169 F 
ENDBRANCH   8  25
BRANCH   6  29
HETATM   29  C   UNL     1      -5.924  -1.552 -33.710  1.00  0.00    -0.035 A 
HETATM   30  C   UNL     1      -4.641  -2.133 -33.772  1.00  0.00     0.012 A 
HETATM   31  C   UNL     1      -4.456  -3.396 -34.333  1.00  0.00     0.043 A 
HETATM   32  C   UNL     1      -5.551  -4.089 -34.828  1.00  0.00     0.116 A 
HETATM   33  F   UNL     1      -5.378  -5.305 -35.362  1.00  0.00    -0.206 F 
HETATM   34  C   UNL     1      -6.828  -3.540 -34.774  1.00  0.00     0.043 A 
HETATM   35  C   UNL     1      -7.017  -2.274 -34.217  1.00  0.00     0.012 A 
ENDBRANCH   6  29
TORSDOF 6
ENDMDL
