MODEL 1
REMARK VINA RESULT:      -8.9      0.000      0.000
REMARK  9 active torsions:
REMARK  status: ('A' for Active; 'I' for Inactive)
REMARK    1  A    between atoms: C_2  and  C_3 
REMARK    2  A    between atoms: C_3  and  C_4 
REMARK    3  A    between atoms: C_3  and  C_39 
REMARK    4  A    between atoms: C_6  and  C_7 
REMARK    5  A    between atoms: C_14  and  C_15 
REMARK    6  A    between atoms: C_18  and  C_19 
REMARK    7  A    between atoms: C_19  and  N_20 
REMARK       I    between atoms: N_20  and  C_21 
REMARK       I    between atoms: C_21  and  N_22 
REMARK    8  A    between atoms: N_22  and  C_23 
REMARK    9  A    between atoms: C_26  and  C_27 
ROOT
HETATM    1  C   UNL     1     -10.172   0.938 -32.722  1.00  0.00     0.068 C 
HETATM    2  C   UNL     1     -10.810   1.121 -34.128  1.00  0.00     0.001 C 
HETATM    3  C   UNL     1     -10.425   2.507 -34.698  1.00  0.00     0.040 C 
HETATM    4  C   UNL     1     -11.002   3.633 -33.822  1.00  0.00     0.206 C 
HETATM    5  N   UNL     1     -11.607   2.966 -32.590  1.00  0.00    -0.065 N 
HETATM    6  H   UNL     1     -11.885   3.726 -31.933  1.00  0.00     0.280 HD
HETATM    7  C   UNL     1     -10.613   2.107 -31.819  1.00  0.00     0.246 C 
HETATM    8  C   UNL     1     -12.346   1.080 -33.963  1.00  0.00     0.033 C 
HETATM    9  C   UNL     1     -12.814   2.155 -32.975  1.00  0.00     0.236 C 
ENDROOT
BRANCH   1  10
HETATM   10  C   UNL     1      -8.668   0.768 -32.798  1.00  0.00     0.045 A 
HETATM   11  N   UNL     1      -8.188  -0.392 -33.288  1.00  0.00    -0.233 NA
HETATM   12  C   UNL     1      -6.846  -0.550 -33.290  1.00  0.00     0.160 A 
HETATM   13  N   UNL     1      -5.984   0.344 -32.779  1.00  0.00    -0.233 NA
HETATM   14  C   UNL     1      -6.483   1.494 -32.282  1.00  0.00     0.043 A 
HETATM   15  C   UNL     1      -7.839   1.757 -32.298  1.00  0.00     0.055 A 
BRANCH  12  16
HETATM   16  C   UNL     1      -6.293  -1.777 -33.887  1.00  0.00     0.014 A 
HETATM   17  C   UNL     1      -4.909  -1.988 -33.972  1.00  0.00     0.034 A 
HETATM   18  C   UNL     1      -4.429  -3.157 -34.543  1.00  0.00     0.117 A 
HETATM   19  N   UNL     1      -5.225  -4.127 -35.035  1.00  0.00    -0.273 NA
HETATM   20  C   UNL     1      -6.551  -3.915 -34.969  1.00  0.00     0.117 A 
HETATM   21  C   UNL     1      -7.122  -2.780 -34.415  1.00  0.00     0.034 A 
ENDBRANCH  12  16
BRANCH  14  22
HETATM   22  C   UNL     1      -5.472   2.475 -31.713  1.00  0.00     0.037 C 
BRANCH  22  23
HETATM   23  C   UNL     1      -4.003   2.069 -31.978  1.00  0.00     0.006 C 
HETATM   24  C   UNL     1      -2.994   3.126 -31.547  1.00  0.00     0.006 C 
ENDBRANCH  22  23
BRANCH  22  25
HETATM   25  C   UNL     1      -5.694   2.691 -30.201  1.00  0.00     0.006 C 
HETATM   26  C   UNL     1      -6.210   4.085 -29.861  1.00  0.00     0.006 C 
ENDBRANCH  22  25
ENDBRANCH  14  22
ENDBRANCH   1  10
BRANCH   4  27
HETATM   27  C   UNL     1      -9.980   4.752 -33.491  1.00  0.00     0.157 C 
BRANCH  27  28
HETATM   28  N   UNL     1      -8.630   4.546 -34.024  1.00  0.00    -0.341 N 
HETATM   29  C   UNL     1      -7.568   5.338 -33.655  1.00  0.00     0.320 C 
HETATM   30  N   UNL     1      -6.375   4.866 -34.130  1.00  0.00    -0.309 N 
HETATM   31  O   UNL     1      -7.745   6.371 -33.017  1.00  0.00    -0.247 OA
HETATM   32  H   UNL     1      -6.418   4.196 -34.885  1.00  0.00     0.170 HD
HETATM   33  H   UNL     1      -8.379   3.581 -34.197  1.00  0.00     0.164 HD
BRANCH  30  34
HETATM   34  C   UNL     1      -5.094   5.381 -33.828  1.00  0.00     0.036 A 
HETATM   35  C   UNL     1      -4.806   6.085 -32.656  1.00  0.00     0.030 A 
HETATM   36  C   UNL     1      -3.516   6.574 -32.412  1.00  0.00     0.017 A 
HETATM   37  C   UNL     1      -2.495   6.361 -33.340  1.00  0.00     0.009 A 
HETATM   38  C   UNL     1      -2.777   5.636 -34.505  1.00  0.00     0.017 A 
HETATM   39  C   UNL     1      -4.067   5.144 -34.744  1.00  0.00     0.030 A 
BRANCH  37  40
HETATM   40  C   UNL     1      -1.111   6.877 -33.134  1.00  0.00     0.155 C 
HETATM   41  C   UNL     1      -0.644   7.184 -31.736  1.00  0.00     0.096 C 
HETATM   42  O   UNL     1      -0.376   7.045 -34.105  1.00  0.00    -0.293 OA
ENDBRANCH  37  40
ENDBRANCH  30  34
ENDBRANCH  27  28
ENDBRANCH   4  27
TORSDOF 9
ENDMDL
MODEL 2
REMARK VINA RESULT:      -8.8      2.690      6.537
REMARK  9 active torsions:
REMARK  status: ('A' for Active; 'I' for Inactive)
REMARK    1  A    between atoms: C_2  and  C_3 
REMARK    2  A    between atoms: C_3  and  C_4 
REMARK    3  A    between atoms: C_3  and  C_39 
REMARK    4  A    between atoms: C_6  and  C_7 
REMARK    5  A    between atoms: C_14  and  C_15 
REMARK    6  A    between atoms: C_18  and  C_19 
REMARK    7  A    between atoms: C_19  and  N_20 
REMARK       I    between atoms: N_20  and  C_21 
REMARK       I    between atoms: C_21  and  N_22 
REMARK    8  A    between atoms: N_22  and  C_23 
REMARK    9  A    between atoms: C_26  and  C_27 
ROOT
HETATM    1  C   UNL     1      -5.382   5.862 -29.954  1.00  0.00     0.068 C 
HETATM    2  C   UNL     1      -6.507   5.017 -29.292  1.00  0.00     0.001 C 
HETATM    3  C   UNL     1      -7.462   4.477 -30.382  1.00  0.00     0.040 C 
HETATM    4  C   UNL     1      -8.173   5.636 -31.103  1.00  0.00     0.206 C 
HETATM    5  N   UNL     1      -7.537   6.927 -30.595  1.00  0.00    -0.065 N 
HETATM    6  H   UNL     1      -7.921   7.708 -31.170  1.00  0.00     0.280 HD
HETATM    7  C   UNL     1      -6.029   6.978 -30.799  1.00  0.00     0.246 C 
HETATM    8  C   UNL     1      -7.318   5.949 -28.362  1.00  0.00     0.033 C 
HETATM    9  C   UNL     1      -7.879   7.142 -29.145  1.00  0.00     0.236 C 
ENDROOT
BRANCH   1  10
HETATM   10  C   UNL     1      -4.409   5.002 -30.735  1.00  0.00     0.045 A 
HETATM   11  N   UNL     1      -4.664   3.681 -30.820  1.00  0.00    -0.233 NA
HETATM   12  C   UNL     1      -3.754   2.920 -31.467  1.00  0.00     0.160 A 
HETATM   13  N   UNL     1      -2.598   3.390 -31.964  1.00  0.00    -0.233 NA
HETATM   14  C   UNL     1      -2.354   4.712 -31.859  1.00  0.00     0.043 A 
HETATM   15  C   UNL     1      -3.263   5.567 -31.264  1.00  0.00     0.055 A 
BRANCH  12  16
HETATM   16  C   UNL     1      -4.044   1.486 -31.638  1.00  0.00     0.014 A 
HETATM   17  C   UNL     1      -5.166   0.892 -31.042  1.00  0.00     0.034 A 
HETATM   18  C   UNL     1      -5.401  -0.462 -31.227  1.00  0.00     0.117 A 
HETATM   19  N   UNL     1      -4.604  -1.264 -31.960  1.00  0.00    -0.273 NA
HETATM   20  C   UNL     1      -3.519  -0.696 -32.516  1.00  0.00     0.117 A 
HETATM   21  C   UNL     1      -3.204   0.648 -32.388  1.00  0.00     0.034 A 
ENDBRANCH  12  16
BRANCH  14  22
HETATM   22  C   UNL     1      -1.035   5.200 -32.431  1.00  0.00     0.037 C 
BRANCH  22  23
HETATM   23  C   UNL     1      -0.183   6.003 -31.421  1.00  0.00     0.006 C 
HETATM   24  C   UNL     1       0.377   5.153 -30.287  1.00  0.00     0.006 C 
ENDBRANCH  22  23
BRANCH  22  25
HETATM   25  C   UNL     1      -1.256   6.033 -33.712  1.00  0.00     0.006 C 
HETATM   26  C   UNL     1      -1.603   5.184 -34.931  1.00  0.00     0.006 C 
ENDBRANCH  22  25
ENDBRANCH  14  22
ENDBRANCH   1  10
BRANCH   4  27
HETATM   27  C   UNL     1      -8.172   5.503 -32.649  1.00  0.00     0.157 C 
BRANCH  27  28
HETATM   28  N   UNL     1      -8.666   4.225 -33.169  1.00  0.00    -0.341 N 
HETATM   29  C   UNL     1      -7.823   3.184 -33.479  1.00  0.00     0.320 C 
HETATM   30  N   UNL     1      -8.500   2.034 -33.778  1.00  0.00    -0.309 N 
HETATM   31  O   UNL     1      -6.607   3.349 -33.519  1.00  0.00    -0.247 OA
HETATM   32  H   UNL     1      -9.480   2.129 -34.004  1.00  0.00     0.170 HD
HETATM   33  H   UNL     1      -9.562   3.929 -32.802  1.00  0.00     0.164 HD
BRANCH  30  34
HETATM   34  C   UNL     1      -7.926   0.766 -34.019  1.00  0.00     0.036 A 
HETATM   35  C   UNL     1      -8.341  -0.402 -33.371  1.00  0.00     0.030 A 
HETATM   36  C   UNL     1      -7.731  -1.632 -33.649  1.00  0.00     0.017 A 
HETATM   37  C   UNL     1      -6.698  -1.709 -34.585  1.00  0.00     0.009 A 
HETATM   38  C   UNL     1      -6.296  -0.544 -35.250  1.00  0.00     0.017 A 
HETATM   39  C   UNL     1      -6.910   0.683 -34.974  1.00  0.00     0.030 A 
BRANCH  37  40
HETATM   40  C   UNL     1      -6.006  -2.992 -34.902  1.00  0.00     0.155 C 
HETATM   41  C   UNL     1      -6.826  -4.242 -35.083  1.00  0.00     0.096 C 
HETATM   42  O   UNL     1      -4.782  -3.010 -35.009  1.00  0.00    -0.293 OA
ENDBRANCH  37  40
ENDBRANCH  30  34
ENDBRANCH  27  28
ENDBRANCH   4  27
TORSDOF 9
ENDMDL
MODEL 3
REMARK VINA RESULT:      -8.7      2.785      6.960
REMARK  9 active torsions:
REMARK  status: ('A' for Active; 'I' for Inactive)
REMARK    1  A    between atoms: C_2  and  C_3 
REMARK    2  A    between atoms: C_3  and  C_4 
REMARK    3  A    between atoms: C_3  and  C_39 
REMARK    4  A    between atoms: C_6  and  C_7 
REMARK    5  A    between atoms: C_14  and  C_15 
REMARK    6  A    between atoms: C_18  and  C_19 
REMARK    7  A    between atoms: C_19  and  N_20 
REMARK       I    between atoms: N_20  and  C_21 
REMARK       I    between atoms: C_21  and  N_22 
REMARK    8  A    between atoms: N_22  and  C_23 
REMARK    9  A    between atoms: C_26  and  C_27 
ROOT
HETATM    1  C   UNL     1      -6.533   6.093 -29.901  1.00  0.00     0.068 C 
HETATM    2  C   UNL     1      -7.771   5.319 -29.367  1.00  0.00     0.001 C 
HETATM    3  C   UNL     1      -8.600   4.779 -30.556  1.00  0.00     0.040 C 
HETATM    4  C   UNL     1      -9.159   5.940 -31.398  1.00  0.00     0.206 C 
HETATM    5  N   UNL     1      -8.537   7.220 -30.851  1.00  0.00    -0.065 N 
HETATM    6  H   UNL     1      -8.808   7.995 -31.494  1.00  0.00     0.280 HD
HETATM    7  C   UNL     1      -7.015   7.203 -30.857  1.00  0.00     0.246 C 
HETATM    8  C   UNL     1      -8.652   6.316 -28.580  1.00  0.00     0.033 C 
HETATM    9  C   UNL     1      -9.053   7.501 -29.465  1.00  0.00     0.236 C 
ENDROOT
BRANCH   1  10
HETATM   10  C   UNL     1      -5.507   5.166 -30.522  1.00  0.00     0.045 A 
HETATM   11  N   UNL     1      -4.602   5.701 -31.366  1.00  0.00    -0.233 NA
HETATM   12  C   UNL     1      -3.735   4.851 -31.958  1.00  0.00     0.160 A 
HETATM   13  N   UNL     1      -3.768   3.517 -31.803  1.00  0.00    -0.233 NA
HETATM   14  C   UNL     1      -4.688   2.998 -30.964  1.00  0.00     0.043 A 
HETATM   15  C   UNL     1      -5.571   3.806 -30.275  1.00  0.00     0.055 A 
BRANCH  12  16
HETATM   16  C   UNL     1      -2.690   5.418 -32.827  1.00  0.00     0.014 A 
HETATM   17  C   UNL     1      -2.049   6.624 -32.507  1.00  0.00     0.034 A 
HETATM   18  C   UNL     1      -1.072   7.123 -33.353  1.00  0.00     0.117 A 
HETATM   19  N   UNL     1      -0.687   6.512 -34.491  1.00  0.00    -0.273 NA
HETATM   20  C   UNL     1      -1.316   5.365 -34.805  1.00  0.00     0.117 A 
HETATM   21  C   UNL     1      -2.302   4.789 -34.021  1.00  0.00     0.034 A 
ENDBRANCH  12  16
BRANCH  14  22
HETATM   22  C   UNL     1      -4.690   1.486 -30.822  1.00  0.00     0.037 C 
BRANCH  22  23
HETATM   23  C   UNL     1      -4.811   0.740 -32.171  1.00  0.00     0.006 C 
HETATM   24  C   UNL     1      -3.500   0.122 -32.644  1.00  0.00     0.006 C 
ENDBRANCH  22  23
BRANCH  22  25
HETATM   25  C   UNL     1      -5.803   1.017 -29.861  1.00  0.00     0.006 C 
HETATM   26  C   UNL     1      -6.341  -0.370 -30.193  1.00  0.00     0.006 C 
ENDBRANCH  22  25
ENDBRANCH  14  22
ENDBRANCH   1  10
BRANCH   4  27
HETATM   27  C   UNL     1      -8.964   5.751 -32.926  1.00  0.00     0.157 C 
BRANCH  27  28
HETATM   28  N   UNL     1      -9.312   4.425 -33.444  1.00  0.00    -0.341 N 
HETATM   29  C   UNL     1      -8.374   3.433 -33.608  1.00  0.00     0.320 C 
HETATM   30  N   UNL     1      -8.937   2.229 -33.933  1.00  0.00    -0.309 N 
HETATM   31  O   UNL     1      -7.175   3.678 -33.512  1.00  0.00    -0.247 OA
HETATM   32  H   UNL     1      -9.887   2.250 -34.276  1.00  0.00     0.170 HD
HETATM   33  H   UNL     1     -10.225   4.083 -33.171  1.00  0.00     0.164 HD
BRANCH  30  34
HETATM   34  C   UNL     1      -8.259   0.995 -34.049  1.00  0.00     0.036 A 
HETATM   35  C   UNL     1      -8.445  -0.070 -33.163  1.00  0.00     0.030 A 
HETATM   36  C   UNL     1      -7.742  -1.270 -33.328  1.00  0.00     0.017 A 
HETATM   37  C   UNL     1      -6.845  -1.421 -34.387  1.00  0.00     0.009 A 
HETATM   38  C   UNL     1      -6.675  -0.363 -35.289  1.00  0.00     0.017 A 
HETATM   39  C   UNL     1      -7.382   0.835 -35.125  1.00  0.00     0.030 A 
BRANCH  37  40
HETATM   40  C   UNL     1      -6.060  -2.673 -34.594  1.00  0.00     0.155 C 
HETATM   41  C   UNL     1      -6.788  -3.945 -34.942  1.00  0.00     0.096 C 
HETATM   42  O   UNL     1      -4.837  -2.648 -34.477  1.00  0.00    -0.293 OA
ENDBRANCH  37  40
ENDBRANCH  30  34
ENDBRANCH  27  28
ENDBRANCH   4  27
TORSDOF 9
ENDMDL
MODEL 4
REMARK VINA RESULT:      -8.7      3.837      8.330
REMARK  9 active torsions:
REMARK  status: ('A' for Active; 'I' for Inactive)
REMARK    1  A    between atoms: C_2  and  C_3 
REMARK    2  A    between atoms: C_3  and  C_4 
REMARK    3  A    between atoms: C_3  and  C_39 
REMARK    4  A    between atoms: C_6  and  C_7 
REMARK    5  A    between atoms: C_14  and  C_15 
REMARK    6  A    between atoms: C_18  and  C_19 
REMARK    7  A    between atoms: C_19  and  N_20 
REMARK       I    between atoms: N_20  and  C_21 
REMARK       I    between atoms: C_21  and  N_22 
REMARK    8  A    between atoms: N_22  and  C_23 
REMARK    9  A    between atoms: C_26  and  C_27 
ROOT
HETATM    1  C   UNL     1      -4.310   8.949 -28.713  1.00  0.00     0.068 C 
HETATM    2  C   UNL     1      -4.306   8.322 -27.290  1.00  0.00     0.001 C 
HETATM    3  C   UNL     1      -5.029   6.954 -27.322  1.00  0.00     0.040 C 
HETATM    4  C   UNL     1      -6.510   7.133 -27.701  1.00  0.00     0.206 C 
HETATM    5  N   UNL     1      -6.692   8.597 -28.087  1.00  0.00    -0.065 N 
HETATM    6  H   UNL     1      -7.659   8.698 -28.467  1.00  0.00     0.280 HD
HETATM    7  C   UNL     1      -5.767   9.045 -29.210  1.00  0.00     0.246 C 
HETATM    8  C   UNL     1      -5.099   9.262 -26.353  1.00  0.00     0.033 C 
HETATM    9  C   UNL     1      -6.522   9.481 -26.881  1.00  0.00     0.236 C 
ENDROOT
BRANCH   1  10
HETATM   10  C   UNL     1      -3.396   8.204 -29.665  1.00  0.00     0.045 A 
HETATM   11  N   UNL     1      -3.962   7.540 -30.692  1.00  0.00    -0.233 NA
HETATM   12  C   UNL     1      -3.137   6.831 -31.494  1.00  0.00     0.160 A 
HETATM   13  N   UNL     1      -1.816   6.703 -31.288  1.00  0.00    -0.233 NA
HETATM   14  C   UNL     1      -1.269   7.365 -30.248  1.00  0.00     0.043 A 
HETATM   15  C   UNL     1      -2.036   8.159 -29.417  1.00  0.00     0.055 A 
BRANCH  12  16
HETATM   16  C   UNL     1      -3.719   6.156 -32.666  1.00  0.00     0.014 A 
HETATM   17  C   UNL     1      -2.974   5.952 -33.837  1.00  0.00     0.034 A 
HETATM   18  C   UNL     1      -3.561   5.314 -34.918  1.00  0.00     0.117 A 
HETATM   19  N   UNL     1      -4.832   4.865 -34.919  1.00  0.00    -0.273 NA
HETATM   20  C   UNL     1      -5.551   5.078 -33.802  1.00  0.00     0.117 A 
HETATM   21  C   UNL     1      -5.049   5.704 -32.672  1.00  0.00     0.034 A 
ENDBRANCH  12  16
BRANCH  14  22
HETATM   22  C   UNL     1       0.226   7.189 -30.051  1.00  0.00     0.037 C 
BRANCH  22  23
HETATM   23  C   UNL     1       0.796   5.930 -30.744  1.00  0.00     0.006 C 
HETATM   24  C   UNL     1       0.883   4.716 -29.826  1.00  0.00     0.006 C 
ENDBRANCH  22  23
BRANCH  22  25
HETATM   25  C   UNL     1       0.594   7.176 -28.552  1.00  0.00     0.006 C 
HETATM   26  C   UNL     1       1.352   8.422 -28.106  1.00  0.00     0.006 C 
ENDBRANCH  22  25
ENDBRANCH  14  22
ENDBRANCH   1  10
BRANCH   4  27
HETATM   27  C   UNL     1      -7.002   6.133 -28.781  1.00  0.00     0.157 C 
BRANCH  27  28
HETATM   28  N   UNL     1      -6.301   4.846 -28.811  1.00  0.00    -0.341 N 
HETATM   29  C   UNL     1      -6.565   3.890 -29.762  1.00  0.00     0.320 C 
HETATM   30  N   UNL     1      -5.681   2.846 -29.713  1.00  0.00    -0.309 N 
HETATM   31  O   UNL     1      -7.535   3.993 -30.507  1.00  0.00    -0.247 OA
HETATM   32  H   UNL     1      -5.140   2.748 -28.866  1.00  0.00     0.170 HD
HETATM   33  H   UNL     1      -5.331   4.879 -28.521  1.00  0.00     0.164 HD
BRANCH  30  34
HETATM   34  C   UNL     1      -5.609   1.770 -30.626  1.00  0.00     0.036 A 
HETATM   35  C   UNL     1      -6.304   0.570 -30.457  1.00  0.00     0.030 A 
HETATM   36  C   UNL     1      -6.190  -0.463 -31.396  1.00  0.00     0.017 A 
HETATM   37  C   UNL     1      -5.380  -0.305 -32.522  1.00  0.00     0.009 A 
HETATM   38  C   UNL     1      -4.700   0.906 -32.704  1.00  0.00     0.017 A 
HETATM   39  C   UNL     1      -4.819   1.939 -31.766  1.00  0.00     0.030 A 
BRANCH  37  40
HETATM   40  C   UNL     1      -5.213  -1.382 -33.541  1.00  0.00     0.155 C 
HETATM   41  C   UNL     1      -6.394  -1.784 -34.383  1.00  0.00     0.096 C 
HETATM   42  O   UNL     1      -4.118  -1.924 -33.676  1.00  0.00    -0.293 OA
ENDBRANCH  37  40
ENDBRANCH  30  34
ENDBRANCH  27  28
ENDBRANCH   4  27
TORSDOF 9
ENDMDL
MODEL 5
REMARK VINA RESULT:      -8.6      3.861      8.882
REMARK  9 active torsions:
REMARK  status: ('A' for Active; 'I' for Inactive)
REMARK    1  A    between atoms: C_2  and  C_3 
REMARK    2  A    between atoms: C_3  and  C_4 
REMARK    3  A    between atoms: C_3  and  C_39 
REMARK    4  A    between atoms: C_6  and  C_7 
REMARK    5  A    between atoms: C_14  and  C_15 
REMARK    6  A    between atoms: C_18  and  C_19 
REMARK    7  A    between atoms: C_19  and  N_20 
REMARK       I    between atoms: N_20  and  C_21 
REMARK       I    between atoms: C_21  and  N_22 
REMARK    8  A    between atoms: N_22  and  C_23 
REMARK    9  A    between atoms: C_26  and  C_27 
ROOT
HETATM    1  C   UNL     1      -5.065   7.774 -30.054  1.00  0.00     0.068 C 
HETATM    2  C   UNL     1      -6.013   7.073 -29.040  1.00  0.00     0.001 C 
HETATM    3  C   UNL     1      -6.472   5.711 -29.613  1.00  0.00     0.040 C 
HETATM    4  C   UNL     1      -7.299   5.913 -30.895  1.00  0.00     0.206 C 
HETATM    5  N   UNL     1      -7.217   7.396 -31.243  1.00  0.00    -0.065 N 
HETATM    6  H   UNL     1      -7.666   7.520 -32.177  1.00  0.00     0.280 HD
HETATM    7  C   UNL     1      -5.790   7.900 -31.409  1.00  0.00     0.246 C 
HETATM    8  C   UNL     1      -7.263   7.965 -28.863  1.00  0.00     0.033 C 
HETATM    9  C   UNL     1      -7.947   8.215 -30.213  1.00  0.00     0.236 C 
ENDROOT
BRANCH   1  10
HETATM   10  C   UNL     1      -3.722   7.077 -30.151  1.00  0.00     0.045 A 
HETATM   11  N   UNL     1      -2.760   7.438 -29.279  1.00  0.00    -0.233 NA
HETATM   12  C   UNL     1      -1.551   6.852 -29.420  1.00  0.00     0.160 A 
HETATM   13  N   UNL     1      -1.243   5.992 -30.405  1.00  0.00    -0.233 NA
HETATM   14  C   UNL     1      -2.215   5.652 -31.277  1.00  0.00     0.043 A 
HETATM   15  C   UNL     1      -3.494   6.162 -31.164  1.00  0.00     0.055 A 
BRANCH  12  16
HETATM   16  C   UNL     1      -0.504   7.173 -28.435  1.00  0.00     0.014 A 
HETATM   17  C   UNL     1      -0.521   6.621 -27.145  1.00  0.00     0.034 A 
HETATM   18  C   UNL     1       0.482   6.951 -26.248  1.00  0.00     0.117 A 
HETATM   19  N   UNL     1       1.498   7.788 -26.539  1.00  0.00    -0.273 NA
HETATM   20  C   UNL     1       1.502   8.330 -27.771  1.00  0.00     0.117 A 
HETATM   21  C   UNL     1       0.544   8.058 -28.734  1.00  0.00     0.034 A 
ENDBRANCH  12  16
BRANCH  14  22
HETATM   22  C   UNL     1      -1.822   4.681 -32.376  1.00  0.00     0.037 C 
BRANCH  22  23
HETATM   23  C   UNL     1      -1.292   5.375 -33.652  1.00  0.00     0.006 C 
HETATM   24  C   UNL     1      -2.187   5.175 -34.869  1.00  0.00     0.006 C 
ENDBRANCH  22  23
BRANCH  22  25
HETATM   25  C   UNL     1      -2.992   3.741 -32.736  1.00  0.00     0.006 C 
HETATM   26  C   UNL     1      -3.199   2.621 -31.722  1.00  0.00     0.006 C 
ENDBRANCH  22  25
ENDBRANCH  14  22
ENDBRANCH   1  10
BRANCH   4  27
HETATM   27  C   UNL     1      -6.886   4.973 -32.058  1.00  0.00     0.157 C 
BRANCH  27  28
HETATM   28  N   UNL     1      -7.179   3.552 -31.850  1.00  0.00    -0.341 N 
HETATM   29  C   UNL     1      -6.733   2.578 -32.712  1.00  0.00     0.320 C 
HETATM   30  N   UNL     1      -6.966   1.315 -32.240  1.00  0.00    -0.309 N 
HETATM   31  O   UNL     1      -6.237   2.874 -33.795  1.00  0.00    -0.247 OA
HETATM   32  H   UNL     1      -7.647   1.225 -31.498  1.00  0.00     0.170 HD
HETATM   33  H   UNL     1      -7.213   3.257 -30.882  1.00  0.00     0.164 HD
BRANCH  30  34
HETATM   34  C   UNL     1      -6.523   0.109 -32.827  1.00  0.00     0.036 A 
HETATM   35  C   UNL     1      -5.213  -0.365 -32.715  1.00  0.00     0.030 A 
HETATM   36  C   UNL     1      -4.831  -1.568 -33.323  1.00  0.00     0.017 A 
HETATM   37  C   UNL     1      -5.760  -2.316 -34.048  1.00  0.00     0.009 A 
HETATM   38  C   UNL     1      -7.079  -1.854 -34.142  1.00  0.00     0.017 A 
HETATM   39  C   UNL     1      -7.459  -0.653 -33.530  1.00  0.00     0.030 A 
BRANCH  37  40
HETATM   40  C   UNL     1      -5.397  -3.594 -34.727  1.00  0.00     0.155 C 
HETATM   41  C   UNL     1      -6.485  -4.422 -35.359  1.00  0.00     0.096 C 
HETATM   42  O   UNL     1      -4.222  -3.950 -34.760  1.00  0.00    -0.293 OA
ENDBRANCH  37  40
ENDBRANCH  30  34
ENDBRANCH  27  28
ENDBRANCH   4  27
TORSDOF 9
ENDMDL
MODEL 6
REMARK VINA RESULT:      -8.5      1.851      4.284
REMARK  9 active torsions:
REMARK  status: ('A' for Active; 'I' for Inactive)
REMARK    1  A    between atoms: C_2  and  C_3 
REMARK    2  A    between atoms: C_3  and  C_4 
REMARK    3  A    between atoms: C_3  and  C_39 
REMARK    4  A    between atoms: C_6  and  C_7 
REMARK    5  A    between atoms: C_14  and  C_15 
REMARK    6  A    between atoms: C_18  and  C_19 
REMARK    7  A    between atoms: C_19  and  N_20 
REMARK       I    between atoms: N_20  and  C_21 
REMARK       I    between atoms: C_21  and  N_22 
REMARK    8  A    between atoms: N_22  and  C_23 
REMARK    9  A    between atoms: C_26  and  C_27 
ROOT
HETATM    1  C   UNL     1     -10.793   1.723 -32.963  1.00  0.00     0.068 C 
HETATM    2  C   UNL     1     -10.787   1.826 -34.515  1.00  0.00     0.001 C 
HETATM    3  C   UNL     1     -10.135   3.161 -34.945  1.00  0.00     0.040 C 
HETATM    4  C   UNL     1     -10.967   4.357 -34.445  1.00  0.00     0.206 C 
HETATM    5  N   UNL     1     -12.055   3.788 -33.540  1.00  0.00    -0.065 N 
HETATM    6  H   UNL     1     -12.542   4.596 -33.097  1.00  0.00     0.280 HD
HETATM    7  C   UNL     1     -11.509   2.960 -32.385  1.00  0.00     0.246 C 
HETATM    8  C   UNL     1     -12.256   1.832 -34.997  1.00  0.00     0.033 C 
HETATM    9  C   UNL     1     -13.036   2.980 -34.347  1.00  0.00     0.236 C 
ENDROOT
BRANCH   1  10
HETATM   10  C   UNL     1      -9.401   1.514 -32.402  1.00  0.00     0.045 A 
HETATM   11  N   UNL     1      -8.881   2.487 -31.627  1.00  0.00    -0.233 NA
HETATM   12  C   UNL     1      -7.616   2.312 -31.187  1.00  0.00     0.160 A 
HETATM   13  N   UNL     1      -6.840   1.270 -31.527  1.00  0.00    -0.233 NA
HETATM   14  C   UNL     1      -7.372   0.312 -32.312  1.00  0.00     0.043 A 
HETATM   15  C   UNL     1      -8.679   0.388 -32.755  1.00  0.00     0.055 A 
BRANCH  12  16
HETATM   16  C   UNL     1      -7.050   3.325 -30.279  1.00  0.00     0.014 A 
HETATM   17  C   UNL     1      -5.665   3.523 -30.178  1.00  0.00     0.034 A 
HETATM   18  C   UNL     1      -5.175   4.485 -29.310  1.00  0.00     0.117 A 
HETATM   19  N   UNL     1      -5.959   5.262 -28.537  1.00  0.00    -0.273 NA
HETATM   20  C   UNL     1      -7.286   5.057 -28.621  1.00  0.00     0.117 A 
HETATM   21  C   UNL     1      -7.868   4.121 -29.461  1.00  0.00     0.034 A 
ENDBRANCH  12  16
BRANCH  14  22
HETATM   22  C   UNL     1      -6.458  -0.846 -32.674  1.00  0.00     0.037 C 
BRANCH  22  23
HETATM   23  C   UNL     1      -5.028  -0.703 -32.106  1.00  0.00     0.006 C 
HETATM   24  C   UNL     1      -3.956  -0.571 -33.181  1.00  0.00     0.006 C 
ENDBRANCH  22  23
BRANCH  22  25
HETATM   25  C   UNL     1      -6.399  -1.054 -34.202  1.00  0.00     0.006 C 
HETATM   26  C   UNL     1      -6.767  -2.470 -34.632  1.00  0.00     0.006 C 
ENDBRANCH  22  25
ENDBRANCH  14  22
ENDBRANCH   1  10
BRANCH   4  27
HETATM   27  C   UNL     1     -10.117   5.472 -33.780  1.00  0.00     0.157 C 
BRANCH  27  28
HETATM   28  N   UNL     1      -8.722   5.547 -34.223  1.00  0.00    -0.341 N 
HETATM   29  C   UNL     1      -7.680   5.695 -33.339  1.00  0.00     0.320 C 
HETATM   30  N   UNL     1      -6.459   5.566 -33.944  1.00  0.00    -0.309 N 
HETATM   31  O   UNL     1      -7.887   5.968 -32.160  1.00  0.00    -0.247 OA
HETATM   32  H   UNL     1      -6.439   5.652 -34.950  1.00  0.00     0.170 HD
HETATM   33  H   UNL     1      -8.496   4.978 -35.030  1.00  0.00     0.164 HD
BRANCH  30  34
HETATM   34  C   UNL     1      -5.204   5.545 -33.295  1.00  0.00     0.036 A 
HETATM   35  C   UNL     1      -4.736   6.591 -32.494  1.00  0.00     0.030 A 
HETATM   36  C   UNL     1      -3.480   6.515 -31.878  1.00  0.00     0.017 A 
HETATM   37  C   UNL     1      -2.678   5.386 -32.054  1.00  0.00     0.009 A 
HETATM   38  C   UNL     1      -3.154   4.329 -32.838  1.00  0.00     0.017 A 
HETATM   39  C   UNL     1      -4.412   4.405 -33.449  1.00  0.00     0.030 A 
BRANCH  37  40
HETATM   40  C   UNL     1      -1.326   5.266 -31.433  1.00  0.00     0.155 C 
HETATM   41  C   UNL     1      -0.400   6.453 -31.458  1.00  0.00     0.096 C 
HETATM   42  O   UNL     1      -0.990   4.204 -30.913  1.00  0.00    -0.293 OA
ENDBRANCH  37  40
ENDBRANCH  30  34
ENDBRANCH  27  28
ENDBRANCH   4  27
TORSDOF 9
ENDMDL
MODEL 7
REMARK VINA RESULT:      -8.5      4.489     10.266
REMARK  9 active torsions:
REMARK  status: ('A' for Active; 'I' for Inactive)
REMARK    1  A    between atoms: C_2  and  C_3 
REMARK    2  A    between atoms: C_3  and  C_4 
REMARK    3  A    between atoms: C_3  and  C_39 
REMARK    4  A    between atoms: C_6  and  C_7 
REMARK    5  A    between atoms: C_14  and  C_15 
REMARK    6  A    between atoms: C_18  and  C_19 
REMARK    7  A    between atoms: C_19  and  N_20 
REMARK       I    between atoms: N_20  and  C_21 
REMARK       I    between atoms: C_21  and  N_22 
REMARK    8  A    between atoms: N_22  and  C_23 
REMARK    9  A    between atoms: C_26  and  C_27 
ROOT
HETATM    1  C   UNL     1      -0.610   6.799 -31.423  1.00  0.00     0.068 C 
HETATM    2  C   UNL     1      -1.522   7.476 -32.485  1.00  0.00     0.001 C 
HETATM    3  C   UNL     1      -2.989   7.035 -32.270  1.00  0.00     0.040 C 
HETATM    4  C   UNL     1      -3.137   5.518 -32.491  1.00  0.00     0.206 C 
HETATM    5  N   UNL     1      -1.729   4.961 -32.671  1.00  0.00    -0.065 N 
HETATM    6  H   UNL     1      -1.809   3.921 -32.693  1.00  0.00     0.280 HD
HETATM    7  C   UNL     1      -0.801   5.271 -31.505  1.00  0.00     0.246 C 
HETATM    8  C   UNL     1      -1.073   6.984 -33.881  1.00  0.00     0.033 C 
HETATM    9  C   UNL     1      -1.133   5.454 -33.962  1.00  0.00     0.236 C 
ENDROOT
BRANCH   1  10
HETATM   10  C   UNL     1      -0.840   7.362 -30.035  1.00  0.00     0.045 A 
HETATM   11  N   UNL     1      -2.112   7.470 -29.600  1.00  0.00    -0.233 NA
HETATM   12  C   UNL     1      -2.301   8.031 -28.386  1.00  0.00     0.160 A 
HETATM   13  N   UNL     1      -1.312   8.538 -27.631  1.00  0.00    -0.233 NA
HETATM   14  C   UNL     1      -0.048   8.432 -28.087  1.00  0.00     0.043 A 
HETATM   15  C   UNL     1       0.234   7.817 -29.291  1.00  0.00     0.055 A 
BRANCH  12  16
HETATM   16  C   UNL     1      -3.674   8.094 -27.857  1.00  0.00     0.014 A 
HETATM   17  C   UNL     1      -4.718   7.369 -28.448  1.00  0.00     0.034 A 
HETATM   18  C   UNL     1      -5.996   7.458 -27.919  1.00  0.00     0.117 A 
HETATM   19  N   UNL     1      -6.309   8.213 -26.848  1.00  0.00    -0.273 NA
HETATM   20  C   UNL     1      -5.309   8.922 -26.293  1.00  0.00     0.117 A 
HETATM   21  C   UNL     1      -4.001   8.894 -26.751  1.00  0.00     0.034 A 
ENDBRANCH  12  16
BRANCH  14  22
HETATM   22  C   UNL     1       1.037   9.021 -27.202  1.00  0.00     0.037 C 
BRANCH  22  23
HETATM   23  C   UNL     1       1.800   7.961 -26.374  1.00  0.00     0.006 C 
HETATM   24  C   UNL     1       2.475   8.529 -25.131  1.00  0.00     0.006 C 
ENDBRANCH  22  23
BRANCH  22  25
HETATM   25  C   UNL     1       0.467  10.107 -26.266  1.00  0.00     0.006 C 
HETATM   26  C   UNL     1       0.927  11.516 -26.627  1.00  0.00     0.006 C 
ENDBRANCH  22  25
ENDBRANCH  14  22
ENDBRANCH   1  10
BRANCH   4  27
HETATM   27  C   UNL     1      -3.957   4.805 -31.383  1.00  0.00     0.157 C 
BRANCH  27  28
HETATM   28  N   UNL     1      -4.885   3.774 -31.856  1.00  0.00    -0.341 N 
HETATM   29  C   UNL     1      -4.450   2.586 -32.394  1.00  0.00     0.320 C 
HETATM   30  N   UNL     1      -5.472   1.701 -32.606  1.00  0.00    -0.309 N 
HETATM   31  O   UNL     1      -3.268   2.421 -32.682  1.00  0.00    -0.247 OA
HETATM   32  H   UNL     1      -6.408   2.082 -32.614  1.00  0.00     0.170 HD
HETATM   33  H   UNL     1      -5.743   3.691 -31.324  1.00  0.00     0.164 HD
BRANCH  30  34
HETATM   34  C   UNL     1      -5.341   0.361 -33.031  1.00  0.00     0.036 A 
HETATM   35  C   UNL     1      -4.374  -0.515 -32.528  1.00  0.00     0.030 A 
HETATM   36  C   UNL     1      -4.291  -1.834 -32.991  1.00  0.00     0.017 A 
HETATM   37  C   UNL     1      -5.180  -2.296 -33.964  1.00  0.00     0.009 A 
HETATM   38  C   UNL     1      -6.163  -1.427 -34.453  1.00  0.00     0.017 A 
HETATM   39  C   UNL     1      -6.247  -0.109 -33.985  1.00  0.00     0.030 A 
BRANCH  37  40
HETATM   40  C   UNL     1      -5.120  -3.686 -34.501  1.00  0.00     0.155 C 
HETATM   41  C   UNL     1      -6.290  -4.220 -35.285  1.00  0.00     0.096 C 
HETATM   42  O   UNL     1      -4.122  -4.373 -34.296  1.00  0.00    -0.293 OA
ENDBRANCH  37  40
ENDBRANCH  30  34
ENDBRANCH  27  28
ENDBRANCH   4  27
TORSDOF 9
ENDMDL
MODEL 8
REMARK VINA RESULT:      -8.5      3.297      6.289
REMARK  9 active torsions:
REMARK  status: ('A' for Active; 'I' for Inactive)
REMARK    1  A    between atoms: C_2  and  C_3 
REMARK    2  A    between atoms: C_3  and  C_4 
REMARK    3  A    between atoms: C_3  and  C_39 
REMARK    4  A    between atoms: C_6  and  C_7 
REMARK    5  A    between atoms: C_14  and  C_15 
REMARK    6  A    between atoms: C_18  and  C_19 
REMARK    7  A    between atoms: C_19  and  N_20 
REMARK       I    between atoms: N_20  and  C_21 
REMARK       I    between atoms: C_21  and  N_22 
REMARK    8  A    between atoms: N_22  and  C_23 
REMARK    9  A    between atoms: C_26  and  C_27 
ROOT
HETATM    1  C   UNL     1      -7.936   3.304 -30.367  1.00  0.00     0.068 C 
HETATM    2  C   UNL     1      -8.276   4.811 -30.548  1.00  0.00     0.001 C 
HETATM    3  C   UNL     1      -7.199   5.485 -31.431  1.00  0.00     0.040 C 
HETATM    4  C   UNL     1      -5.824   5.441 -30.738  1.00  0.00     0.206 C 
HETATM    5  N   UNL     1      -5.988   4.579 -29.491  1.00  0.00    -0.065 N 
HETATM    6  H   UNL     1      -5.037   4.438 -29.086  1.00  0.00     0.280 HD
HETATM    7  C   UNL     1      -6.513   3.181 -29.787  1.00  0.00     0.246 C 
HETATM    8  C   UNL     1      -8.239   5.478 -29.154  1.00  0.00     0.033 C 
HETATM    9  C   UNL     1      -6.873   5.271 -28.489  1.00  0.00     0.236 C 
ENDROOT
BRANCH   1  10
HETATM   10  C   UNL     1      -8.135   2.520 -31.648  1.00  0.00     0.045 A 
HETATM   11  N   UNL     1      -9.366   2.512 -32.199  1.00  0.00    -0.233 NA
HETATM   12  C   UNL     1      -9.540   1.758 -33.306  1.00  0.00     0.160 A 
HETATM   13  N   UNL     1      -8.586   0.977 -33.840  1.00  0.00    -0.233 NA
HETATM   14  C   UNL     1      -7.365   0.987 -33.268  1.00  0.00     0.043 A 
HETATM   15  C   UNL     1      -7.090   1.778 -32.170  1.00  0.00     0.055 A 
BRANCH  12  16
HETATM   16  C   UNL     1     -10.854   1.790 -33.969  1.00  0.00     0.014 A 
HETATM   17  C   UNL     1     -11.822   0.806 -33.720  1.00  0.00     0.034 A 
HETATM   18  C   UNL     1     -13.046   0.873 -34.367  1.00  0.00     0.117 A 
HETATM   19  N   UNL     1     -13.376   1.845 -35.241  1.00  0.00    -0.273 NA
HETATM   20  C   UNL     1     -12.439   2.778 -35.492  1.00  0.00     0.117 A 
HETATM   21  C   UNL     1     -11.190   2.794 -34.892  1.00  0.00     0.034 A 
ENDBRANCH  12  16
BRANCH  14  22
HETATM   22  C   UNL     1      -6.318   0.087 -33.903  1.00  0.00     0.037 C 
BRANCH  22  23
HETATM   23  C   UNL     1      -6.890  -0.849 -34.993  1.00  0.00     0.006 C 
HETATM   24  C   UNL     1      -6.763  -2.329 -34.651  1.00  0.00     0.006 C 
ENDBRANCH  22  23
BRANCH  22  25
HETATM   25  C   UNL     1      -5.573  -0.742 -32.836  1.00  0.00     0.006 C 
HETATM   26  C   UNL     1      -4.065  -0.517 -32.843  1.00  0.00     0.006 C 
ENDBRANCH  22  25
ENDBRANCH  14  22
ENDBRANCH   1  10
BRANCH   4  27
HETATM   27  C   UNL     1      -4.671   4.984 -31.670  1.00  0.00     0.157 C 
BRANCH  27  28
HETATM   28  N   UNL     1      -3.341   4.959 -31.056  1.00  0.00    -0.341 N 
HETATM   29  C   UNL     1      -2.768   6.079 -30.501  1.00  0.00     0.320 C 
HETATM   30  N   UNL     1      -1.609   5.797 -29.831  1.00  0.00    -0.309 N 
HETATM   31  O   UNL     1      -3.264   7.189 -30.670  1.00  0.00    -0.247 OA
HETATM   32  H   UNL     1      -1.169   4.911 -30.036  1.00  0.00     0.170 HD
HETATM   33  H   UNL     1      -3.105   4.099 -30.576  1.00  0.00     0.164 HD
BRANCH  30  34
HETATM   34  C   UNL     1      -0.851   6.703 -29.056  1.00  0.00     0.036 A 
HETATM   35  C   UNL     1       0.405   7.181 -29.441  1.00  0.00     0.030 A 
HETATM   36  C   UNL     1       1.111   8.077 -28.628  1.00  0.00     0.017 A 
HETATM   37  C   UNL     1       0.565   8.509 -27.418  1.00  0.00     0.009 A 
HETATM   38  C   UNL     1      -0.702   8.049 -27.042  1.00  0.00     0.017 A 
HETATM   39  C   UNL     1      -1.409   7.157 -27.858  1.00  0.00     0.030 A 
BRANCH  37  40
HETATM   40  C   UNL     1       1.286   9.449 -26.510  1.00  0.00     0.155 C 
HETATM   41  C   UNL     1       2.263   8.894 -25.508  1.00  0.00     0.096 C 
HETATM   42  O   UNL     1       1.072  10.656 -26.594  1.00  0.00    -0.293 OA
ENDBRANCH  37  40
ENDBRANCH  30  34
ENDBRANCH  27  28
ENDBRANCH   4  27
TORSDOF 9
ENDMDL
MODEL 9
REMARK VINA RESULT:      -8.5      4.619      9.930
REMARK  9 active torsions:
REMARK  status: ('A' for Active; 'I' for Inactive)
REMARK    1  A    between atoms: C_2  and  C_3 
REMARK    2  A    between atoms: C_3  and  C_4 
REMARK    3  A    between atoms: C_3  and  C_39 
REMARK    4  A    between atoms: C_6  and  C_7 
REMARK    5  A    between atoms: C_14  and  C_15 
REMARK    6  A    between atoms: C_18  and  C_19 
REMARK    7  A    between atoms: C_19  and  N_20 
REMARK       I    between atoms: N_20  and  C_21 
REMARK       I    between atoms: C_21  and  N_22 
REMARK    8  A    between atoms: N_22  and  C_23 
REMARK    9  A    between atoms: C_26  and  C_27 
ROOT
HETATM    1  C   UNL     1      -0.683   8.192 -28.987  1.00  0.00     0.068 C 
HETATM    2  C   UNL     1       0.200   7.160 -28.229  1.00  0.00     0.001 C 
HETATM    3  C   UNL     1      -0.644   6.450 -27.143  1.00  0.00     0.040 C 
HETATM    4  C   UNL     1      -1.122   7.459 -26.083  1.00  0.00     0.206 C 
HETATM    5  N   UNL     1      -0.733   8.845 -26.587  1.00  0.00    -0.065 N 
HETATM    6  H   UNL     1      -1.163   9.541 -25.940  1.00  0.00     0.280 HD
HETATM    7  C   UNL     1      -1.297   9.168 -27.963  1.00  0.00     0.246 C 
HETATM    8  C   UNL     1       1.337   7.934 -27.523  1.00  0.00     0.033 C 
HETATM    9  C   UNL     1       0.764   9.001 -26.583  1.00  0.00     0.236 C 
ENDROOT
BRANCH   1  10
HETATM   10  C   UNL     1      -1.713   7.518 -29.871  1.00  0.00     0.045 A 
HETATM   11  N   UNL     1      -2.966   8.015 -29.872  1.00  0.00    -0.233 NA
HETATM   12  C   UNL     1      -3.885   7.365 -30.618  1.00  0.00     0.160 A 
HETATM   13  N   UNL     1      -3.637   6.231 -31.295  1.00  0.00    -0.233 NA
HETATM   14  C   UNL     1      -2.381   5.741 -31.273  1.00  0.00     0.043 A 
HETATM   15  C   UNL     1      -1.370   6.381 -30.582  1.00  0.00     0.055 A 
BRANCH  12  16
HETATM   16  C   UNL     1      -5.243   7.930 -30.695  1.00  0.00     0.014 A 
HETATM   17  C   UNL     1      -6.132   7.556 -31.714  1.00  0.00     0.034 A 
HETATM   18  C   UNL     1      -7.401   8.113 -31.751  1.00  0.00     0.117 A 
HETATM   19  N   UNL     1      -7.847   9.012 -30.851  1.00  0.00    -0.273 NA
HETATM   20  C   UNL     1      -6.986   9.383 -29.886  1.00  0.00     0.117 A 
HETATM   21  C   UNL     1      -5.701   8.879 -29.768  1.00  0.00     0.034 A 
ENDBRANCH  12  16
BRANCH  14  22
HETATM   22  C   UNL     1      -2.147   4.457 -32.049  1.00  0.00     0.037 C 
BRANCH  22  23
HETATM   23  C   UNL     1      -2.417   4.594 -33.565  1.00  0.00     0.006 C 
HETATM   24  C   UNL     1      -1.341   5.380 -34.305  1.00  0.00     0.006 C 
ENDBRANCH  22  23
BRANCH  22  25
HETATM   25  C   UNL     1      -2.981   3.294 -31.470  1.00  0.00     0.006 C 
HETATM   26  C   UNL     1      -4.010   2.743 -32.451  1.00  0.00     0.006 C 
ENDBRANCH  22  25
ENDBRANCH  14  22
ENDBRANCH   1  10
BRANCH   4  27
HETATM   27  C   UNL     1      -2.625   7.321 -25.723  1.00  0.00     0.157 C 
BRANCH  27  28
HETATM   28  N   UNL     1      -3.338   6.242 -26.412  1.00  0.00    -0.341 N 
HETATM   29  C   UNL     1      -4.596   6.416 -26.941  1.00  0.00     0.320 C 
HETATM   30  N   UNL     1      -5.001   5.344 -27.689  1.00  0.00    -0.309 N 
HETATM   31  O   UNL     1      -5.253   7.421 -26.687  1.00  0.00    -0.247 OA
HETATM   32  H   UNL     1      -4.497   4.479 -27.555  1.00  0.00     0.170 HD
HETATM   33  H   UNL     1      -2.753   5.614 -26.949  1.00  0.00     0.164 HD
BRANCH  30  34
HETATM   34  C   UNL     1      -6.183   5.262 -28.458  1.00  0.00     0.036 A 
HETATM   35  C   UNL     1      -7.336   6.001 -28.177  1.00  0.00     0.030 A 
HETATM   36  C   UNL     1      -8.480   5.876 -28.975  1.00  0.00     0.017 A 
HETATM   37  C   UNL     1      -8.482   5.011 -30.071  1.00  0.00     0.009 A 
HETATM   38  C   UNL     1      -7.321   4.287 -30.367  1.00  0.00     0.017 A 
HETATM   39  C   UNL     1      -6.177   4.417 -29.570  1.00  0.00     0.030 A 
BRANCH  37  40
HETATM   40  C   UNL     1      -9.682   4.830 -30.940  1.00  0.00     0.155 C 
HETATM   41  C   UNL     1     -10.742   3.842 -30.530  1.00  0.00     0.096 C 
HETATM   42  O   UNL     1      -9.785   5.487 -31.974  1.00  0.00    -0.293 OA
ENDBRANCH  37  40
ENDBRANCH  30  34
ENDBRANCH  27  28
ENDBRANCH   4  27
TORSDOF 9
ENDMDL
MODEL 10
REMARK VINA RESULT:      -8.3      1.952      3.019
REMARK  9 active torsions:
REMARK  status: ('A' for Active; 'I' for Inactive)
REMARK    1  A    between atoms: C_2  and  C_3 
REMARK    2  A    between atoms: C_3  and  C_4 
REMARK    3  A    between atoms: C_3  and  C_39 
REMARK    4  A    between atoms: C_6  and  C_7 
REMARK    5  A    between atoms: C_14  and  C_15 
REMARK    6  A    between atoms: C_18  and  C_19 
REMARK    7  A    between atoms: C_19  and  N_20 
REMARK       I    between atoms: N_20  and  C_21 
REMARK       I    between atoms: C_21  and  N_22 
REMARK    8  A    between atoms: N_22  and  C_23 
REMARK    9  A    between atoms: C_26  and  C_27 
ROOT
HETATM    1  C   UNL     1      -9.475   2.115 -31.644  1.00  0.00     0.068 C 
HETATM    2  C   UNL     1      -9.523   1.515 -33.078  1.00  0.00     0.001 C 
HETATM    3  C   UNL     1      -9.042   2.572 -34.101  1.00  0.00     0.040 C 
HETATM    4  C   UNL     1      -9.993   3.782 -34.117  1.00  0.00     0.206 C 
HETATM    5  N   UNL     1     -10.983   3.579 -32.974  1.00  0.00    -0.065 N 
HETATM    6  H   UNL     1     -11.548   4.453 -32.896  1.00  0.00     0.280 HD
HETATM    7  C   UNL     1     -10.314   3.408 -31.618  1.00  0.00     0.246 C 
HETATM    8  C   UNL     1     -10.995   1.170 -33.401  1.00  0.00     0.033 C 
HETATM    9  C   UNL     1     -11.885   2.411 -33.266  1.00  0.00     0.236 C 
ENDROOT
BRANCH   1  10
HETATM   10  C   UNL     1      -8.053   2.307 -31.156  1.00  0.00     0.045 A 
HETATM   11  N   UNL     1      -7.155   1.340 -31.432  1.00  0.00    -0.233 NA
HETATM   12  C   UNL     1      -5.909   1.499 -30.936  1.00  0.00     0.160 A 
HETATM   13  N   UNL     1      -5.541   2.518 -30.142  1.00  0.00    -0.233 NA
HETATM   14  C   UNL     1      -6.456   3.470 -29.866  1.00  0.00     0.043 A 
HETATM   15  C   UNL     1      -7.735   3.411 -30.384  1.00  0.00     0.055 A 
BRANCH  12  16
HETATM   16  C   UNL     1      -4.889   0.495 -31.285  1.00  0.00     0.014 A 
HETATM   17  C   UNL     1      -5.226  -0.676 -31.978  1.00  0.00     0.034 A 
HETATM   18  C   UNL     1      -4.236  -1.596 -32.286  1.00  0.00     0.117 A 
HETATM   19  N   UNL     1      -2.939  -1.436 -31.954  1.00  0.00    -0.273 NA
HETATM   20  C   UNL     1      -2.622  -0.320 -31.272  1.00  0.00     0.117 A 
HETATM   21  C   UNL     1      -3.542   0.656 -30.924  1.00  0.00     0.034 A 
ENDBRANCH  12  16
BRANCH  14  22
HETATM   22  C   UNL     1      -5.997   4.601 -28.962  1.00  0.00     0.037 C 
BRANCH  22  23
HETATM   23  C   UNL     1      -7.148   5.262 -28.169  1.00  0.00     0.006 C 
HETATM   24  C   UNL     1      -7.714   6.507 -28.841  1.00  0.00     0.006 C 
ENDBRANCH  22  23
BRANCH  22  25
HETATM   25  C   UNL     1      -5.224   5.674 -29.759  1.00  0.00     0.006 C 
HETATM   26  C   UNL     1      -4.250   6.475 -28.902  1.00  0.00     0.006 C 
ENDBRANCH  22  25
ENDBRANCH  14  22
ENDBRANCH   1  10
BRANCH   4  27
HETATM   27  C   UNL     1      -9.261   5.150 -34.077  1.00  0.00     0.157 C 
BRANCH  27  28
HETATM   28  N   UNL     1      -7.839   5.111 -34.427  1.00  0.00    -0.341 N 
HETATM   29  C   UNL     1      -6.853   5.440 -33.527  1.00  0.00     0.320 C 
HETATM   30  N   UNL     1      -5.599   5.167 -34.003  1.00  0.00    -0.309 N 
HETATM   31  O   UNL     1      -7.130   5.968 -32.455  1.00  0.00    -0.247 OA
HETATM   32  H   UNL     1      -5.510   5.029 -35.000  1.00  0.00     0.170 HD
HETATM   33  H   UNL     1      -7.575   4.375 -35.072  1.00  0.00     0.164 HD
BRANCH  30  34
HETATM   34  C   UNL     1      -4.390   5.277 -33.280  1.00  0.00     0.036 A 
HETATM   35  C   UNL     1      -3.740   6.493 -33.050  1.00  0.00     0.030 A 
HETATM   36  C   UNL     1      -2.541   6.540 -32.327  1.00  0.00     0.017 A 
HETATM   37  C   UNL     1      -1.979   5.367 -31.821  1.00  0.00     0.009 A 
HETATM   38  C   UNL     1      -2.640   4.151 -32.031  1.00  0.00     0.017 A 
HETATM   39  C   UNL     1      -3.841   4.107 -32.750  1.00  0.00     0.030 A 
BRANCH  37  40
HETATM   40  C   UNL     1      -0.695   5.363 -31.061  1.00  0.00     0.155 C 
HETATM   41  C   UNL     1       0.089   6.643 -30.940  1.00  0.00     0.096 C 
HETATM   42  O   UNL     1      -0.297   4.320 -30.548  1.00  0.00    -0.293 OA
ENDBRANCH  37  40
ENDBRANCH  30  34
ENDBRANCH  27  28
ENDBRANCH   4  27
TORSDOF 9
ENDMDL
