MODEL 1
REMARK VINA RESULT:      -9.9      0.000      0.000
REMARK  7 active torsions:
REMARK  status: ('A' for Active; 'I' for Inactive)
REMARK    1  A    between atoms: C_8  and  C_9 
REMARK    2  A    between atoms: N_10  and  C_11 
REMARK    3  A    between atoms: C_14  and  S_15 
REMARK    4  A    between atoms: S_15  and  C_16 
REMARK    5  A    between atoms: C_16  and  C_17 
REMARK       I    between atoms: C_17  and  N_18 
REMARK    6  A    between atoms: N_21  and  C_22 
REMARK    7  A    between atoms: C_25  and  O_26 
ROOT
HETATM    1  C   UNL     1      -2.922   5.365 -31.398  1.00  0.00     0.167 A 
HETATM    2  N   UNL     1      -3.495   5.610 -32.635  1.00  0.00    -0.302 N 
HETATM    3  C   UNL     1      -4.745   5.040 -32.584  1.00  0.00     0.192 A 
HETATM    4  N   UNL     1      -4.949   4.525 -31.394  1.00  0.00    -0.122 NA
HETATM    5  N   UNL     1      -3.815   4.729 -30.655  1.00  0.00    -0.128 NA
ENDROOT
BRANCH   3   6
HETATM    6  S   UNL     1      -5.823   4.828 -33.918  1.00  0.00    -0.081 SA
BRANCH   6   7
HETATM    7  C   UNL     1      -7.325   4.313 -33.033  1.00  0.00     0.185 C 
BRANCH   7   8
HETATM    8  C   UNL     1      -8.153   3.312 -33.837  1.00  0.00     0.229 C 
HETATM    9  N   UNL     1      -7.660   2.003 -33.895  1.00  0.00    -0.348 N 
HETATM   10  C   UNL     1      -8.528   0.989 -34.504  1.00  0.00     0.145 C 
HETATM   11  C   UNL     1      -6.655   1.473 -32.960  1.00  0.00     0.145 C 
HETATM   12  C   UNL     1      -7.757  -0.226 -35.046  1.00  0.00     0.143 C 
HETATM   13  N   UNL     1      -6.857  -0.771 -34.010  1.00  0.00    -0.378 N 
HETATM   14  C   UNL     1      -5.902   0.242 -33.507  1.00  0.00     0.143 C 
HETATM   15  O   UNL     1      -9.189   3.624 -34.428  1.00  0.00    -0.273 OA
BRANCH  13  16
HETATM   16  C   UNL     1      -6.295  -2.040 -34.219  1.00  0.00     0.030 A 
HETATM   17  C   UNL     1      -7.036  -3.159 -34.635  1.00  0.00     0.032 A 
HETATM   18  C   UNL     1      -6.439  -4.415 -34.803  1.00  0.00     0.039 A 
HETATM   19  C   UNL     1      -5.083  -4.569 -34.549  1.00  0.00     0.065 A 
HETATM   20  C   UNL     1      -4.321  -3.491 -34.130  1.00  0.00     0.039 A 
HETATM   21  C   UNL     1      -4.927  -2.241 -33.964  1.00  0.00     0.032 A 
BRANCH  19  22
HETATM   22  O   UNL     1      -4.462  -5.774 -34.690  1.00  0.00    -0.361 OA
HETATM   23  H   UNL     1      -3.612  -5.740 -34.222  1.00  0.00     0.217 HD
ENDBRANCH  19  22
ENDBRANCH  13  16
ENDBRANCH   7   8
ENDBRANCH   6   7
ENDBRANCH   3   6
BRANCH   2  24
HETATM   24  C   UNL     1      -2.838   6.261 -33.748  1.00  0.00     0.094 A 
HETATM   25  C   UNL     1      -1.410   6.734 -33.857  1.00  0.00     0.028 A 
HETATM   26  C   UNL     1      -1.841   5.506 -34.603  1.00  0.00     0.028 A 
ENDBRANCH   2  24
BRANCH   1  27
HETATM   27  C   UNL     1      -1.572   5.738 -30.859  1.00  0.00     0.040 A 
HETATM   28  C   UNL     1      -1.304   6.815 -29.947  1.00  0.00     0.006 A 
HETATM   29  C   UNL     1      -2.091   7.804 -29.315  1.00  0.00     0.014 A 
HETATM   30  C   UNL     1       0.069   6.812 -29.689  1.00  0.00     0.043 A 
HETATM   31  C   UNL     1      -1.488   8.737 -28.462  1.00  0.00     0.001 A 
HETATM   32  C   UNL     1      -0.117   8.697 -28.224  1.00  0.00     0.002 A 
HETATM   33  C   UNL     1       0.688   7.731 -28.833  1.00  0.00     0.030 A 
HETATM   34  N   UNL     1       0.614   5.783 -30.417  1.00  0.00    -0.364 N 
HETATM   35  H   UNL     1       1.596   5.547 -30.425  1.00  0.00     0.165 HD
HETATM   36  C   UNL     1      -0.361   5.142 -31.141  1.00  0.00     0.104 A 
ENDBRANCH   1  27
TORSDOF 7
ENDMDL
MODEL 2
REMARK VINA RESULT:      -9.8      4.089      8.116
REMARK  7 active torsions:
REMARK  status: ('A' for Active; 'I' for Inactive)
REMARK    1  A    between atoms: C_8  and  C_9 
REMARK    2  A    between atoms: N_10  and  C_11 
REMARK    3  A    between atoms: C_14  and  S_15 
REMARK    4  A    between atoms: S_15  and  C_16 
REMARK    5  A    between atoms: C_16  and  C_17 
REMARK       I    between atoms: C_17  and  N_18 
REMARK    6  A    between atoms: N_21  and  C_22 
REMARK    7  A    between atoms: C_25  and  O_26 
ROOT
HETATM    1  C   UNL     1      -9.730   4.587 -33.729  1.00  0.00     0.167 A 
HETATM    2  N   UNL     1      -9.301   5.054 -32.497  1.00  0.00    -0.302 N 
HETATM    3  C   UNL     1      -7.979   5.390 -32.669  1.00  0.00     0.192 A 
HETATM    4  N   UNL     1      -7.631   5.194 -33.920  1.00  0.00    -0.122 NA
HETATM    5  N   UNL     1      -8.721   4.695 -34.580  1.00  0.00    -0.128 NA
ENDROOT
BRANCH   3   6
HETATM    6  S   UNL     1      -6.863   5.808 -31.418  1.00  0.00    -0.081 SA
BRANCH   6   7
HETATM    7  C   UNL     1      -6.573   4.168 -30.690  1.00  0.00     0.185 C 
BRANCH   7   8
HETATM    8  C   UNL     1      -5.281   3.532 -31.198  1.00  0.00     0.229 C 
HETATM    9  N   UNL     1      -5.412   2.303 -31.855  1.00  0.00    -0.348 N 
HETATM   10  C   UNL     1      -4.213   1.765 -32.509  1.00  0.00     0.145 C 
HETATM   11  C   UNL     1      -6.686   1.804 -32.397  1.00  0.00     0.145 C 
HETATM   12  C   UNL     1      -4.254   0.238 -32.693  1.00  0.00     0.143 C 
HETATM   13  N   UNL     1      -5.513  -0.170 -33.349  1.00  0.00    -0.378 N 
HETATM   14  C   UNL     1      -6.707   0.274 -32.596  1.00  0.00     0.143 C 
HETATM   15  O   UNL     1      -4.173   4.044 -31.029  1.00  0.00    -0.273 OA
BRANCH  13  16
HETATM   16  C   UNL     1      -5.604  -1.474 -33.858  1.00  0.00     0.030 A 
HETATM   17  C   UNL     1      -6.802  -2.047 -34.317  1.00  0.00     0.032 A 
HETATM   18  C   UNL     1      -6.852  -3.365 -34.790  1.00  0.00     0.039 A 
HETATM   19  C   UNL     1      -5.697  -4.133 -34.803  1.00  0.00     0.065 A 
HETATM   20  C   UNL     1      -4.498  -3.606 -34.351  1.00  0.00     0.039 A 
HETATM   21  C   UNL     1      -4.459  -2.290 -33.880  1.00  0.00     0.032 A 
BRANCH  19  22
HETATM   22  O   UNL     1      -5.700  -5.422 -35.246  1.00  0.00    -0.361 OA
HETATM   23  H   UNL     1      -5.136  -5.480 -36.034  1.00  0.00     0.217 HD
ENDBRANCH  19  22
ENDBRANCH  13  16
ENDBRANCH   7   8
ENDBRANCH   6   7
ENDBRANCH   3   6
BRANCH   2  24
HETATM   24  C   UNL     1     -10.095   5.079 -31.288  1.00  0.00     0.094 A 
HETATM   25  C   UNL     1     -11.470   4.507 -31.048  1.00  0.00     0.028 A 
HETATM   26  C   UNL     1     -10.272   3.827 -30.455  1.00  0.00     0.028 A 
ENDBRANCH   2  24
BRANCH   1  27
HETATM   27  C   UNL     1     -11.073   4.074 -34.161  1.00  0.00     0.040 A 
HETATM   28  C   UNL     1     -11.545   2.727 -34.000  1.00  0.00     0.006 A 
HETATM   29  C   UNL     1     -10.999   1.537 -33.467  1.00  0.00     0.014 A 
HETATM   30  C   UNL     1     -12.840   2.673 -34.521  1.00  0.00     0.043 A 
HETATM   31  C   UNL     1     -11.754   0.358 -33.473  1.00  0.00     0.001 A 
HETATM   32  C   UNL     1     -13.044   0.346 -33.995  1.00  0.00     0.002 A 
HETATM   33  C   UNL     1     -13.613   1.505 -34.528  1.00  0.00     0.030 A 
HETATM   34  N   UNL     1     -13.140   3.930 -34.986  1.00  0.00    -0.364 N 
HETATM   35  H   UNL     1     -14.017   4.183 -35.420  1.00  0.00     0.165 HD
HETATM   36  C   UNL     1     -12.078   4.776 -34.794  1.00  0.00     0.104 A 
ENDBRANCH   1  27
TORSDOF 7
ENDMDL
MODEL 3
REMARK VINA RESULT:      -9.8      2.174      3.267
REMARK  7 active torsions:
REMARK  status: ('A' for Active; 'I' for Inactive)
REMARK    1  A    between atoms: C_8  and  C_9 
REMARK    2  A    between atoms: N_10  and  C_11 
REMARK    3  A    between atoms: C_14  and  S_15 
REMARK    4  A    between atoms: S_15  and  C_16 
REMARK    5  A    between atoms: C_16  and  C_17 
REMARK       I    between atoms: C_17  and  N_18 
REMARK    6  A    between atoms: N_21  and  C_22 
REMARK    7  A    between atoms: C_25  and  O_26 
ROOT
HETATM    1  C   UNL     1      -5.759   5.168 -32.933  1.00  0.00     0.167 A 
HETATM    2  N   UNL     1      -6.222   3.994 -32.360  1.00  0.00    -0.302 N 
HETATM    3  C   UNL     1      -7.471   4.290 -31.869  1.00  0.00     0.192 A 
HETATM    4  N   UNL     1      -7.778   5.533 -32.157  1.00  0.00    -0.122 NA
HETATM    5  N   UNL     1      -6.713   6.080 -32.820  1.00  0.00    -0.128 NA
ENDROOT
BRANCH   3   6
HETATM    6  S   UNL     1      -8.429   3.278 -30.847  1.00  0.00    -0.081 SA
BRANCH   6   7
HETATM    7  C   UNL     1      -9.818   2.923 -31.963  1.00  0.00     0.185 C 
BRANCH   7   8
HETATM    8  C   UNL     1      -9.351   2.589 -33.378  1.00  0.00     0.229 C 
HETATM    9  N   UNL     1      -8.625   1.402 -33.528  1.00  0.00    -0.348 N 
HETATM   10  C   UNL     1      -8.326   0.971 -34.899  1.00  0.00     0.145 C 
HETATM   11  C   UNL     1      -8.620   0.322 -32.528  1.00  0.00     0.145 C 
HETATM   12  C   UNL     1      -7.101   0.045 -34.992  1.00  0.00     0.143 C 
HETATM   13  N   UNL     1      -7.228  -1.077 -34.039  1.00  0.00    -0.378 N 
HETATM   14  C   UNL     1      -7.398  -0.611 -32.644  1.00  0.00     0.143 C 
HETATM   15  O   UNL     1      -9.570   3.323 -34.345  1.00  0.00    -0.273 OA
BRANCH  13  16
HETATM   16  C   UNL     1      -6.360  -2.170 -34.182  1.00  0.00     0.030 A 
HETATM   17  C   UNL     1      -6.754  -3.411 -34.708  1.00  0.00     0.032 A 
HETATM   18  C   UNL     1      -5.861  -4.487 -34.805  1.00  0.00     0.039 A 
HETATM   19  C   UNL     1      -4.554  -4.332 -34.365  1.00  0.00     0.065 A 
HETATM   20  C   UNL     1      -4.130  -3.126 -33.832  1.00  0.00     0.039 A 
HETATM   21  C   UNL     1      -5.030  -2.060 -33.739  1.00  0.00     0.032 A 
BRANCH  19  22
HETATM   22  O   UNL     1      -3.653  -5.353 -34.432  1.00  0.00    -0.361 OA
HETATM   23  H   UNL     1      -4.136  -6.194 -34.402  1.00  0.00     0.217 HD
ENDBRANCH  19  22
ENDBRANCH  13  16
ENDBRANCH   7   8
ENDBRANCH   6   7
ENDBRANCH   3   6
BRANCH   2  24
HETATM   24  C   UNL     1      -5.470   2.763 -32.251  1.00  0.00     0.094 A 
HETATM   25  C   UNL     1      -3.975   2.561 -32.286  1.00  0.00     0.028 A 
HETATM   26  C   UNL     1      -4.709   2.434 -30.984  1.00  0.00     0.028 A 
ENDBRANCH   2  24
BRANCH   1  27
HETATM   27  C   UNL     1      -4.460   5.468 -33.625  1.00  0.00     0.040 A 
HETATM   28  C   UNL     1      -3.351   6.176 -33.049  1.00  0.00     0.006 A 
HETATM   29  C   UNL     1      -3.099   6.788 -31.801  1.00  0.00     0.014 A 
HETATM   30  C   UNL     1      -2.343   6.228 -34.015  1.00  0.00     0.043 A 
HETATM   31  C   UNL     1      -1.870   7.417 -31.567  1.00  0.00     0.001 A 
HETATM   32  C   UNL     1      -0.888   7.442 -32.553  1.00  0.00     0.002 A 
HETATM   33  C   UNL     1      -1.105   6.846 -33.797  1.00  0.00     0.030 A 
HETATM   34  N   UNL     1      -2.821   5.587 -35.132  1.00  0.00    -0.364 N 
HETATM   35  H   UNL     1      -2.302   5.475 -35.992  1.00  0.00     0.165 HD
HETATM   36  C   UNL     1      -4.102   5.144 -34.916  1.00  0.00     0.104 A 
ENDBRANCH   1  27
TORSDOF 7
ENDMDL
MODEL 4
REMARK VINA RESULT:      -9.7      1.406      2.002
REMARK  7 active torsions:
REMARK  status: ('A' for Active; 'I' for Inactive)
REMARK    1  A    between atoms: C_8  and  C_9 
REMARK    2  A    between atoms: N_10  and  C_11 
REMARK    3  A    between atoms: C_14  and  S_15 
REMARK    4  A    between atoms: S_15  and  C_16 
REMARK    5  A    between atoms: C_16  and  C_17 
REMARK       I    between atoms: C_17  and  N_18 
REMARK    6  A    between atoms: N_21  and  C_22 
REMARK    7  A    between atoms: C_25  and  O_26 
ROOT
HETATM    1  C   UNL     1      -4.153   6.811 -30.510  1.00  0.00     0.167 A 
HETATM    2  N   UNL     1      -4.159   5.791 -31.447  1.00  0.00    -0.302 N 
HETATM    3  C   UNL     1      -5.128   6.132 -32.360  1.00  0.00     0.192 A 
HETATM    4  N   UNL     1      -5.647   7.295 -32.041  1.00  0.00    -0.122 NA
HETATM    5  N   UNL     1      -5.039   7.719 -30.890  1.00  0.00    -0.128 NA
ENDROOT
BRANCH   3   6
HETATM    6  S   UNL     1      -5.741   5.122 -33.621  1.00  0.00    -0.081 SA
BRANCH   6   7
HETATM    7  C   UNL     1      -7.084   4.282 -32.730  1.00  0.00     0.185 C 
BRANCH   7   8
HETATM    8  C   UNL     1      -7.894   3.363 -33.642  1.00  0.00     0.229 C 
HETATM    9  N   UNL     1      -7.453   2.038 -33.736  1.00  0.00    -0.348 N 
HETATM   10  C   UNL     1      -8.318   1.096 -34.458  1.00  0.00     0.145 C 
HETATM   11  C   UNL     1      -6.540   1.415 -32.764  1.00  0.00     0.145 C 
HETATM   12  C   UNL     1      -7.561  -0.124 -35.010  1.00  0.00     0.143 C 
HETATM   13  N   UNL     1      -6.761  -0.762 -33.945  1.00  0.00    -0.378 N 
HETATM   14  C   UNL     1      -5.803   0.181 -33.324  1.00  0.00     0.143 C 
HETATM   15  O   UNL     1      -8.871   3.752 -34.285  1.00  0.00    -0.273 OA
BRANCH  13  16
HETATM   16  C   UNL     1      -6.239  -2.042 -34.184  1.00  0.00     0.030 A 
HETATM   17  C   UNL     1      -7.017  -3.129 -34.615  1.00  0.00     0.032 A 
HETATM   18  C   UNL     1      -6.459  -4.400 -34.812  1.00  0.00     0.039 A 
HETATM   19  C   UNL     1      -5.107  -4.599 -34.571  1.00  0.00     0.065 A 
HETATM   20  C   UNL     1      -4.310  -3.553 -34.137  1.00  0.00     0.039 A 
HETATM   21  C   UNL     1      -4.876  -2.290 -33.942  1.00  0.00     0.032 A 
BRANCH  19  22
HETATM   22  O   UNL     1      -4.524  -5.819 -34.741  1.00  0.00    -0.361 OA
HETATM   23  H   UNL     1      -3.876  -5.954 -34.031  1.00  0.00     0.217 HD
ENDBRANCH  19  22
ENDBRANCH  13  16
ENDBRANCH   7   8
ENDBRANCH   6   7
ENDBRANCH   3   6
BRANCH   2  24
HETATM   24  C   UNL     1      -3.352   4.591 -31.384  1.00  0.00     0.094 A 
HETATM   25  C   UNL     1      -3.187   3.507 -32.420  1.00  0.00     0.028 A 
HETATM   26  C   UNL     1      -2.071   4.481 -32.184  1.00  0.00     0.028 A 
ENDBRANCH   2  24
BRANCH   1  27
HETATM   27  C   UNL     1      -3.316   6.996 -29.277  1.00  0.00     0.040 A 
HETATM   28  C   UNL     1      -1.891   7.172 -29.252  1.00  0.00     0.006 A 
HETATM   29  C   UNL     1      -0.875   7.213 -30.234  1.00  0.00     0.014 A 
HETATM   30  C   UNL     1      -1.512   7.322 -27.916  1.00  0.00     0.043 A 
HETATM   31  C   UNL     1       0.459   7.400 -29.851  1.00  0.00     0.001 A 
HETATM   32  C   UNL     1       0.796   7.552 -28.510  1.00  0.00     0.002 A 
HETATM   33  C   UNL     1      -0.185   7.518 -27.515  1.00  0.00     0.030 A 
HETATM   34  N   UNL     1      -2.655   7.233 -27.160  1.00  0.00    -0.364 N 
HETATM   35  H   UNL     1      -2.680   7.304 -26.152  1.00  0.00     0.165 HD
HETATM   36  C   UNL     1      -3.745   7.017 -27.966  1.00  0.00     0.104 A 
ENDBRANCH   1  27
TORSDOF 7
ENDMDL
MODEL 5
REMARK VINA RESULT:      -9.6      3.145      8.816
REMARK  7 active torsions:
REMARK  status: ('A' for Active; 'I' for Inactive)
REMARK    1  A    between atoms: C_8  and  C_9 
REMARK    2  A    between atoms: N_10  and  C_11 
REMARK    3  A    between atoms: C_14  and  S_15 
REMARK    4  A    between atoms: S_15  and  C_16 
REMARK    5  A    between atoms: C_16  and  C_17 
REMARK       I    between atoms: C_17  and  N_18 
REMARK    6  A    between atoms: N_21  and  C_22 
REMARK    7  A    between atoms: C_25  and  O_26 
ROOT
HETATM    1  C   UNL     1      -7.264   0.018 -33.980  1.00  0.00     0.167 A 
HETATM    2  N   UNL     1      -8.066   0.541 -32.979  1.00  0.00    -0.302 N 
HETATM    3  C   UNL     1      -9.068   1.224 -33.626  1.00  0.00     0.192 A 
HETATM    4  N   UNL     1      -8.926   1.094 -34.925  1.00  0.00    -0.122 NA
HETATM    5  N   UNL     1      -7.803   0.343 -35.145  1.00  0.00    -0.128 NA
ENDROOT
BRANCH   3   6
HETATM    6  S   UNL     1     -10.226   2.273 -32.889  1.00  0.00    -0.081 SA
BRANCH   6   7
HETATM    7  C   UNL     1      -9.978   3.772 -33.887  1.00  0.00     0.185 C 
BRANCH   7   8
HETATM    8  C   UNL     1      -9.396   4.921 -33.068  1.00  0.00     0.229 C 
HETATM    9  N   UNL     1      -8.001   4.960 -32.958  1.00  0.00    -0.348 N 
HETATM   10  C   UNL     1      -7.414   6.152 -32.333  1.00  0.00     0.145 C 
HETATM   11  C   UNL     1      -7.095   4.226 -33.856  1.00  0.00     0.145 C 
HETATM   12  C   UNL     1      -6.018   5.901 -31.738  1.00  0.00     0.143 C 
HETATM   13  N   UNL     1      -5.135   5.268 -32.739  1.00  0.00    -0.378 N 
HETATM   14  C   UNL     1      -5.693   3.998 -33.256  1.00  0.00     0.143 C 
HETATM   15  O   UNL     1     -10.098   5.765 -32.507  1.00  0.00    -0.273 OA
BRANCH  13  16
HETATM   16  C   UNL     1      -3.757   5.229 -32.478  1.00  0.00     0.030 A 
HETATM   17  C   UNL     1      -2.800   4.811 -33.418  1.00  0.00     0.032 A 
HETATM   18  C   UNL     1      -1.435   4.760 -33.105  1.00  0.00     0.039 A 
HETATM   19  C   UNL     1      -1.009   5.122 -31.835  1.00  0.00     0.065 A 
HETATM   20  C   UNL     1      -1.924   5.532 -30.879  1.00  0.00     0.039 A 
HETATM   21  C   UNL     1      -3.284   5.579 -31.201  1.00  0.00     0.032 A 
BRANCH  19  22
HETATM   22  O   UNL     1       0.306   5.080 -31.483  1.00  0.00    -0.361 OA
HETATM   23  H   UNL     1       0.384   4.621 -30.631  1.00  0.00     0.217 HD
ENDBRANCH  19  22
ENDBRANCH  13  16
ENDBRANCH   7   8
ENDBRANCH   6   7
ENDBRANCH   3   6
BRANCH   2  24
HETATM   24  C   UNL     1      -7.809   0.435 -31.558  1.00  0.00     0.094 A 
HETATM   25  C   UNL     1      -6.522   0.083 -30.854  1.00  0.00     0.028 A 
HETATM   26  C   UNL     1      -7.011   1.501 -30.837  1.00  0.00     0.028 A 
ENDBRANCH   2  24
BRANCH   1  27
HETATM   27  C   UNL     1      -6.018  -0.816 -33.894  1.00  0.00     0.040 A 
HETATM   28  C   UNL     1      -5.928  -2.217 -34.194  1.00  0.00     0.006 A 
HETATM   29  C   UNL     1      -6.846  -3.209 -34.606  1.00  0.00     0.014 A 
HETATM   30  C   UNL     1      -4.599  -2.601 -34.001  1.00  0.00     0.043 A 
HETATM   31  C   UNL     1      -6.410  -4.524 -34.808  1.00  0.00     0.001 A 
HETATM   32  C   UNL     1      -5.076  -4.866 -34.612  1.00  0.00     0.002 A 
HETATM   33  C   UNL     1      -4.143  -3.909 -34.205  1.00  0.00     0.030 A 
HETATM   34  N   UNL     1      -3.912  -1.483 -33.593  1.00  0.00    -0.364 N 
HETATM   35  H   UNL     1      -2.925  -1.468 -33.377  1.00  0.00     0.165 HD
HETATM   36  C   UNL     1      -4.759  -0.407 -33.506  1.00  0.00     0.104 A 
ENDBRANCH   1  27
TORSDOF 7
ENDMDL
MODEL 6
REMARK VINA RESULT:      -9.4      2.099      3.362
REMARK  7 active torsions:
REMARK  status: ('A' for Active; 'I' for Inactive)
REMARK    1  A    between atoms: C_8  and  C_9 
REMARK    2  A    between atoms: N_10  and  C_11 
REMARK    3  A    between atoms: C_14  and  S_15 
REMARK    4  A    between atoms: S_15  and  C_16 
REMARK    5  A    between atoms: C_16  and  C_17 
REMARK       I    between atoms: C_17  and  N_18 
REMARK    6  A    between atoms: N_21  and  C_22 
REMARK    7  A    between atoms: C_25  and  O_26 
ROOT
HETATM    1  C   UNL     1      -5.375   4.850 -32.713  1.00  0.00     0.167 A 
HETATM    2  N   UNL     1      -6.551   5.172 -32.055  1.00  0.00    -0.302 N 
HETATM    3  C   UNL     1      -7.519   5.223 -33.029  1.00  0.00     0.192 A 
HETATM    4  N   UNL     1      -6.995   4.909 -34.192  1.00  0.00    -0.122 NA
HETATM    5  N   UNL     1      -5.660   4.676 -33.995  1.00  0.00    -0.128 NA
ENDROOT
BRANCH   3   6
HETATM    6  S   UNL     1      -9.133   5.806 -32.832  1.00  0.00    -0.081 SA
BRANCH   6   7
HETATM    7  C   UNL     1      -9.944   4.298 -32.223  1.00  0.00     0.185 C 
BRANCH   7   8
HETATM    8  C   UNL     1     -10.158   3.270 -33.332  1.00  0.00     0.229 C 
HETATM    9  N   UNL     1      -9.252   2.203 -33.372  1.00  0.00    -0.348 N 
HETATM   10  C   UNL     1      -9.546   1.113 -34.310  1.00  0.00     0.145 C 
HETATM   11  C   UNL     1      -8.392   1.826 -32.239  1.00  0.00     0.145 C 
HETATM   12  C   UNL     1      -8.300   0.309 -34.717  1.00  0.00     0.143 C 
HETATM   13  N   UNL     1      -7.555  -0.132 -33.520  1.00  0.00    -0.378 N 
HETATM   14  C   UNL     1      -7.157   1.004 -32.658  1.00  0.00     0.143 C 
HETATM   15  O   UNL     1     -11.057   3.368 -34.169  1.00  0.00    -0.273 OA
BRANCH  13  16
HETATM   16  C   UNL     1      -6.563  -1.112 -33.679  1.00  0.00     0.030 A 
HETATM   17  C   UNL     1      -5.302  -1.047 -33.064  1.00  0.00     0.032 A 
HETATM   18  C   UNL     1      -4.329  -2.034 -33.275  1.00  0.00     0.039 A 
HETATM   19  C   UNL     1      -4.608  -3.102 -34.115  1.00  0.00     0.065 A 
HETATM   20  C   UNL     1      -5.838  -3.196 -34.746  1.00  0.00     0.039 A 
HETATM   21  C   UNL     1      -6.801  -2.205 -34.530  1.00  0.00     0.032 A 
BRANCH  19  22
HETATM   22  O   UNL     1      -3.691  -4.080 -34.356  1.00  0.00    -0.361 OA
HETATM   23  H   UNL     1      -3.814  -4.788 -33.703  1.00  0.00     0.217 HD
ENDBRANCH  19  22
ENDBRANCH  13  16
ENDBRANCH   7   8
ENDBRANCH   6   7
ENDBRANCH   3   6
BRANCH   2  24
HETATM   24  C   UNL     1      -6.666   5.470 -30.643  1.00  0.00     0.094 A 
HETATM   25  C   UNL     1      -7.827   5.214 -29.715  1.00  0.00     0.028 A 
HETATM   26  C   UNL     1      -6.597   4.362 -29.614  1.00  0.00     0.028 A 
ENDBRANCH   2  24
BRANCH   1  27
HETATM   27  C   UNL     1      -3.983   4.657 -32.183  1.00  0.00     0.040 A 
HETATM   28  C   UNL     1      -2.906   5.599 -32.303  1.00  0.00     0.006 A 
HETATM   29  C   UNL     1      -2.757   6.874 -32.894  1.00  0.00     0.014 A 
HETATM   30  C   UNL     1      -1.793   5.042 -31.668  1.00  0.00     0.043 A 
HETATM   31  C   UNL     1      -1.524   7.534 -32.830  1.00  0.00     0.001 A 
HETATM   32  C   UNL     1      -0.440   6.949 -32.183  1.00  0.00     0.002 A 
HETATM   33  C   UNL     1      -0.555   5.691 -31.587  1.00  0.00     0.030 A 
HETATM   34  N   UNL     1      -2.174   3.812 -31.191  1.00  0.00    -0.364 N 
HETATM   35  H   UNL     1      -1.566   3.182 -30.688  1.00  0.00     0.165 HD
HETATM   36  C   UNL     1      -3.484   3.561 -31.512  1.00  0.00     0.104 A 
ENDBRANCH   1  27
TORSDOF 7
ENDMDL
MODEL 7
REMARK VINA RESULT:      -9.4      4.058      7.797
REMARK  7 active torsions:
REMARK  status: ('A' for Active; 'I' for Inactive)
REMARK    1  A    between atoms: C_8  and  C_9 
REMARK    2  A    between atoms: N_10  and  C_11 
REMARK    3  A    between atoms: C_14  and  S_15 
REMARK    4  A    between atoms: S_15  and  C_16 
REMARK    5  A    between atoms: C_16  and  C_17 
REMARK       I    between atoms: C_17  and  N_18 
REMARK    6  A    between atoms: N_21  and  C_22 
REMARK    7  A    between atoms: C_25  and  O_26 
ROOT
HETATM    1  C   UNL     1      -6.532   1.549 -31.930  1.00  0.00     0.167 A 
HETATM    2  N   UNL     1      -5.672   2.616 -31.724  1.00  0.00    -0.302 N 
HETATM    3  C   UNL     1      -6.109   3.227 -30.574  1.00  0.00     0.192 A 
HETATM    4  N   UNL     1      -7.129   2.564 -30.079  1.00  0.00    -0.122 NA
HETATM    5  N   UNL     1      -7.391   1.519 -30.923  1.00  0.00    -0.128 NA
ENDROOT
BRANCH   3   6
HETATM    6  S   UNL     1      -5.565   4.747 -29.958  1.00  0.00    -0.081 SA
BRANCH   6   7
HETATM    7  C   UNL     1      -6.926   5.819 -30.509  1.00  0.00     0.185 C 
BRANCH   7   8
HETATM    8  C   UNL     1      -7.219   5.659 -31.999  1.00  0.00     0.229 C 
HETATM    9  N   UNL     1      -8.408   4.999 -32.331  1.00  0.00    -0.348 N 
HETATM   10  C   UNL     1      -8.798   4.996 -33.746  1.00  0.00     0.145 C 
HETATM   11  C   UNL     1      -9.519   4.804 -31.385  1.00  0.00     0.145 C 
HETATM   12  C   UNL     1      -9.732   3.832 -34.117  1.00  0.00     0.143 C 
HETATM   13  N   UNL     1     -10.882   3.776 -33.192  1.00  0.00    -0.378 N 
HETATM   14  C   UNL     1     -10.459   3.646 -31.779  1.00  0.00     0.143 C 
HETATM   15  O   UNL     1      -6.454   6.062 -32.877  1.00  0.00    -0.273 OA
BRANCH  13  16
HETATM   16  C   UNL     1     -11.978   2.973 -33.543  1.00  0.00     0.030 A 
HETATM   17  C   UNL     1     -13.176   2.931 -32.810  1.00  0.00     0.032 A 
HETATM   18  C   UNL     1     -14.235   2.092 -33.180  1.00  0.00     0.039 A 
HETATM   19  C   UNL     1     -14.104   1.273 -34.293  1.00  0.00     0.065 A 
HETATM   20  C   UNL     1     -12.934   1.280 -35.035  1.00  0.00     0.039 A 
HETATM   21  C   UNL     1     -11.883   2.121 -34.657  1.00  0.00     0.032 A 
BRANCH  19  22
HETATM   22  O   UNL     1     -15.104   0.434 -34.685  1.00  0.00    -0.361 OA
HETATM   23  H   UNL     1     -15.431  -0.043 -33.905  1.00  0.00     0.217 HD
ENDBRANCH  19  22
ENDBRANCH  13  16
ENDBRANCH   7   8
ENDBRANCH   6   7
ENDBRANCH   3   6
BRANCH   2  24
HETATM   24  C   UNL     1      -4.602   3.013 -32.615  1.00  0.00     0.094 A 
HETATM   25  C   UNL     1      -3.423   3.911 -32.334  1.00  0.00     0.028 A 
HETATM   26  C   UNL     1      -3.213   2.431 -32.459  1.00  0.00     0.028 A 
ENDBRANCH   2  24
BRANCH   1  27
HETATM   27  C   UNL     1      -6.562   0.519 -33.022  1.00  0.00     0.040 A 
HETATM   28  C   UNL     1      -5.669  -0.599 -33.142  1.00  0.00     0.006 A 
HETATM   29  C   UNL     1      -4.568  -1.079 -32.398  1.00  0.00     0.014 A 
HETATM   30  C   UNL     1      -6.045  -1.313 -34.282  1.00  0.00     0.043 A 
HETATM   31  C   UNL     1      -3.895  -2.235 -32.812  1.00  0.00     0.001 A 
HETATM   32  C   UNL     1      -4.304  -2.922 -33.951  1.00  0.00     0.002 A 
HETATM   33  C   UNL     1      -5.389  -2.475 -34.708  1.00  0.00     0.030 A 
HETATM   34  N   UNL     1      -7.114  -0.654 -34.837  1.00  0.00    -0.364 N 
HETATM   35  H   UNL     1      -7.592  -0.947 -35.677  1.00  0.00     0.165 HD
HETATM   36  C   UNL     1      -7.422   0.462 -34.099  1.00  0.00     0.104 A 
ENDBRANCH   1  27
TORSDOF 7
ENDMDL
MODEL 8
REMARK VINA RESULT:      -9.4      4.587      8.235
REMARK  7 active torsions:
REMARK  status: ('A' for Active; 'I' for Inactive)
REMARK    1  A    between atoms: C_8  and  C_9 
REMARK    2  A    between atoms: N_10  and  C_11 
REMARK    3  A    between atoms: C_14  and  S_15 
REMARK    4  A    between atoms: S_15  and  C_16 
REMARK    5  A    between atoms: C_16  and  C_17 
REMARK       I    between atoms: C_17  and  N_18 
REMARK    6  A    between atoms: N_21  and  C_22 
REMARK    7  A    between atoms: C_25  and  O_26 
ROOT
HETATM    1  C   UNL     1      -6.169   2.134 -33.268  1.00  0.00     0.167 A 
HETATM    2  N   UNL     1      -6.276   2.502 -31.936  1.00  0.00    -0.302 N 
HETATM    3  C   UNL     1      -5.748   3.768 -31.858  1.00  0.00     0.192 A 
HETATM    4  N   UNL     1      -5.387   4.173 -33.054  1.00  0.00    -0.122 NA
HETATM    5  N   UNL     1      -5.650   3.156 -33.932  1.00  0.00    -0.128 NA
ENDROOT
BRANCH   3   6
HETATM    6  S   UNL     1      -5.403   4.640 -30.407  1.00  0.00    -0.081 SA
BRANCH   6   7
HETATM    7  C   UNL     1      -7.081   5.157 -29.940  1.00  0.00     0.185 C 
BRANCH   7   8
HETATM    8  C   UNL     1      -7.860   5.726 -31.124  1.00  0.00     0.229 C 
HETATM    9  N   UNL     1      -8.943   4.964 -31.578  1.00  0.00    -0.348 N 
HETATM   10  C   UNL     1      -9.812   5.576 -32.590  1.00  0.00     0.145 C 
HETATM   11  C   UNL     1      -9.577   3.901 -30.782  1.00  0.00     0.145 C 
HETATM   12  C   UNL     1     -10.583   4.546 -33.432  1.00  0.00     0.143 C 
HETATM   13  N   UNL     1     -11.287   3.586 -32.558  1.00  0.00    -0.378 N 
HETATM   14  C   UNL     1     -10.364   2.886 -31.636  1.00  0.00     0.143 C 
HETATM   15  O   UNL     1      -7.555   6.784 -31.678  1.00  0.00    -0.273 OA
BRANCH  13  16
HETATM   16  C   UNL     1     -12.266   2.760 -33.132  1.00  0.00     0.030 A 
HETATM   17  C   UNL     1     -12.043   1.967 -34.270  1.00  0.00     0.032 A 
HETATM   18  C   UNL     1     -13.059   1.179 -34.828  1.00  0.00     0.039 A 
HETATM   19  C   UNL     1     -14.322   1.182 -34.252  1.00  0.00     0.065 A 
HETATM   20  C   UNL     1     -14.582   1.957 -33.134  1.00  0.00     0.039 A 
HETATM   21  C   UNL     1     -13.561   2.741 -32.586  1.00  0.00     0.032 A 
BRANCH  19  22
HETATM   22  O   UNL     1     -15.342   0.438 -34.765  1.00  0.00    -0.361 OA
HETATM   23  H   UNL     1     -15.977   1.036 -35.191  1.00  0.00     0.217 HD
ENDBRANCH  19  22
ENDBRANCH  13  16
ENDBRANCH   7   8
ENDBRANCH   6   7
ENDBRANCH   3   6
BRANCH   2  24
HETATM   24  C   UNL     1      -6.770   1.656 -30.871  1.00  0.00     0.094 A 
HETATM   25  C   UNL     1      -6.708   0.153 -30.752  1.00  0.00     0.028 A 
HETATM   26  C   UNL     1      -5.812   1.002 -29.899  1.00  0.00     0.028 A 
ENDBRANCH   2  24
BRANCH   1  27
HETATM   27  C   UNL     1      -6.572   0.866 -33.964  1.00  0.00     0.040 A 
HETATM   28  C   UNL     1      -5.809  -0.350 -33.991  1.00  0.00     0.006 A 
HETATM   29  C   UNL     1      -4.561  -0.756 -33.468  1.00  0.00     0.014 A 
HETATM   30  C   UNL     1      -6.540  -1.284 -34.730  1.00  0.00     0.043 A 
HETATM   31  C   UNL     1      -4.098  -2.058 -33.696  1.00  0.00     0.001 A 
HETATM   32  C   UNL     1      -4.859  -2.961 -34.431  1.00  0.00     0.002 A 
HETATM   33  C   UNL     1      -6.097  -2.592 -34.962  1.00  0.00     0.030 A 
HETATM   34  N   UNL     1      -7.693  -0.661 -35.141  1.00  0.00    -0.364 N 
HETATM   35  H   UNL     1      -8.412  -1.100 -35.698  1.00  0.00     0.165 HD
HETATM   36  C   UNL     1      -7.714   0.640 -34.703  1.00  0.00     0.104 A 
ENDBRANCH   1  27
TORSDOF 7
ENDMDL
MODEL 9
REMARK VINA RESULT:      -9.4      2.052      3.473
REMARK  7 active torsions:
REMARK  status: ('A' for Active; 'I' for Inactive)
REMARK    1  A    between atoms: C_8  and  C_9 
REMARK    2  A    between atoms: N_10  and  C_11 
REMARK    3  A    between atoms: C_14  and  S_15 
REMARK    4  A    between atoms: S_15  and  C_16 
REMARK    5  A    between atoms: C_16  and  C_17 
REMARK       I    between atoms: C_17  and  N_18 
REMARK    6  A    between atoms: N_21  and  C_22 
REMARK    7  A    between atoms: C_25  and  O_26 
ROOT
HETATM    1  C   UNL     1      -6.042   5.425 -30.655  1.00  0.00     0.167 A 
HETATM    2  N   UNL     1      -6.671   4.192 -30.588  1.00  0.00    -0.302 N 
HETATM    3  C   UNL     1      -7.993   4.435 -30.875  1.00  0.00     0.192 A 
HETATM    4  N   UNL     1      -8.162   5.708 -31.146  1.00  0.00    -0.122 NA
HETATM    5  N   UNL     1      -6.947   6.325 -31.010  1.00  0.00    -0.128 NA
ENDROOT
BRANCH   3   6
HETATM    6  S   UNL     1      -9.294   3.309 -30.710  1.00  0.00    -0.081 SA
BRANCH   6   7
HETATM    7  C   UNL     1      -9.799   3.152 -32.449  1.00  0.00     0.185 C 
BRANCH   7   8
HETATM    8  C   UNL     1      -8.602   3.039 -33.390  1.00  0.00     0.229 C 
HETATM    9  N   UNL     1      -8.109   1.749 -33.616  1.00  0.00    -0.348 N 
HETATM   10  C   UNL     1      -7.081   1.598 -34.653  1.00  0.00     0.145 C 
HETATM   11  C   UNL     1      -8.874   0.525 -33.324  1.00  0.00     0.145 C 
HETATM   12  C   UNL     1      -6.205   0.348 -34.464  1.00  0.00     0.143 C 
HETATM   13  N   UNL     1      -7.047  -0.853 -34.295  1.00  0.00    -0.378 N 
HETATM   14  C   UNL     1      -7.985  -0.724 -33.156  1.00  0.00     0.143 C 
HETATM   15  O   UNL     1      -8.070   4.020 -33.914  1.00  0.00    -0.273 OA
BRANCH  13  16
HETATM   16  C   UNL     1      -6.437  -2.112 -34.400  1.00  0.00     0.030 A 
HETATM   17  C   UNL     1      -7.135  -3.290 -34.712  1.00  0.00     0.032 A 
HETATM   18  C   UNL     1      -6.490  -4.533 -34.778  1.00  0.00     0.039 A 
HETATM   19  C   UNL     1      -5.128  -4.611 -34.524  1.00  0.00     0.065 A 
HETATM   20  C   UNL     1      -4.407  -3.472 -34.205  1.00  0.00     0.039 A 
HETATM   21  C   UNL     1      -5.061  -2.238 -34.141  1.00  0.00     0.032 A 
BRANCH  19  22
HETATM   22  O   UNL     1      -4.461  -5.798 -34.568  1.00  0.00    -0.361 OA
HETATM   23  H   UNL     1      -5.043  -6.494 -34.222  1.00  0.00     0.217 HD
ENDBRANCH  19  22
ENDBRANCH  13  16
ENDBRANCH   7   8
ENDBRANCH   6   7
ENDBRANCH   3   6
BRANCH   2  24
HETATM   24  C   UNL     1      -6.037   2.949 -30.205  1.00  0.00     0.094 A 
HETATM   25  C   UNL     1      -6.465   1.536 -30.513  1.00  0.00     0.028 A 
HETATM   26  C   UNL     1      -5.282   2.123 -31.225  1.00  0.00     0.028 A 
ENDBRANCH   2  24
BRANCH   1  27
HETATM   27  C   UNL     1      -4.605   5.799 -30.435  1.00  0.00     0.040 A 
HETATM   28  C   UNL     1      -3.520   5.508 -31.330  1.00  0.00     0.006 A 
HETATM   29  C   UNL     1      -3.402   4.840 -32.569  1.00  0.00     0.014 A 
HETATM   30  C   UNL     1      -2.358   6.037 -30.762  1.00  0.00     0.043 A 
HETATM   31  C   UNL     1      -2.150   4.727 -33.186  1.00  0.00     0.001 A 
HETATM   32  C   UNL     1      -1.016   5.273 -32.592  1.00  0.00     0.002 A 
HETATM   33  C   UNL     1      -1.099   5.941 -31.368  1.00  0.00     0.030 A 
HETATM   34  N   UNL     1      -2.719   6.617 -29.571  1.00  0.00    -0.364 N 
HETATM   35  H   UNL     1      -2.076   7.077 -28.942  1.00  0.00     0.165 HD
HETATM   36  C   UNL     1      -4.065   6.463 -29.353  1.00  0.00     0.104 A 
ENDBRANCH   1  27
TORSDOF 7
ENDMDL
MODEL 10
REMARK VINA RESULT:      -9.0      4.180      7.973
REMARK  7 active torsions:
REMARK  status: ('A' for Active; 'I' for Inactive)
REMARK    1  A    between atoms: C_8  and  C_9 
REMARK    2  A    between atoms: N_10  and  C_11 
REMARK    3  A    between atoms: C_14  and  S_15 
REMARK    4  A    between atoms: S_15  and  C_16 
REMARK    5  A    between atoms: C_16  and  C_17 
REMARK       I    between atoms: C_17  and  N_18 
REMARK    6  A    between atoms: N_21  and  C_22 
REMARK    7  A    between atoms: C_25  and  O_26 
ROOT
HETATM    1  C   UNL     1      -5.476   1.300 -31.493  1.00  0.00     0.167 A 
HETATM    2  N   UNL     1      -5.285   2.620 -31.868  1.00  0.00    -0.302 N 
HETATM    3  C   UNL     1      -6.349   3.313 -31.341  1.00  0.00     0.192 A 
HETATM    4  N   UNL     1      -7.112   2.496 -30.652  1.00  0.00    -0.122 NA
HETATM    5  N   UNL     1      -6.568   1.243 -30.746  1.00  0.00    -0.128 NA
ENDROOT
BRANCH   3   6
HETATM    6  S   UNL     1      -6.765   4.955 -31.681  1.00  0.00    -0.081 SA
BRANCH   6   7
HETATM    7  C   UNL     1      -7.871   5.299 -30.281  1.00  0.00     0.185 C 
BRANCH   7   8
HETATM    8  C   UNL     1      -9.170   5.970 -30.723  1.00  0.00     0.229 C 
HETATM    9  N   UNL     1     -10.163   5.124 -31.231  1.00  0.00    -0.348 N 
HETATM   10  C   UNL     1     -11.479   5.720 -31.490  1.00  0.00     0.145 C 
HETATM   11  C   UNL     1     -10.177   3.669 -31.016  1.00  0.00     0.145 C 
HETATM   12  C   UNL     1     -12.303   4.947 -32.533  1.00  0.00     0.143 C 
HETATM   13  N   UNL     1     -12.367   3.513 -32.182  1.00  0.00    -0.378 N 
HETATM   14  C   UNL     1     -11.023   2.906 -32.057  1.00  0.00     0.143 C 
HETATM   15  O   UNL     1      -9.346   7.189 -30.665  1.00  0.00    -0.273 OA
BRANCH  13  16
HETATM   16  C   UNL     1     -13.304   2.709 -32.847  1.00  0.00     0.030 A 
HETATM   17  C   UNL     1     -14.651   2.603 -32.460  1.00  0.00     0.032 A 
HETATM   18  C   UNL     1     -15.547   1.763 -33.135  1.00  0.00     0.039 A 
HETATM   19  C   UNL     1     -15.099   1.008 -34.211  1.00  0.00     0.065 A 
HETATM   20  C   UNL     1     -13.777   1.079 -34.617  1.00  0.00     0.039 A 
HETATM   21  C   UNL     1     -12.891   1.920 -33.935  1.00  0.00     0.032 A 
BRANCH  19  22
HETATM   22  O   UNL     1     -15.932   0.172 -34.891  1.00  0.00    -0.361 OA
HETATM   23  H   UNL     1     -16.836   0.523 -34.837  1.00  0.00     0.217 HD
ENDBRANCH  19  22
ENDBRANCH  13  16
ENDBRANCH   7   8
ENDBRANCH   6   7
ENDBRANCH   3   6
BRANCH   2  24
HETATM   24  C   UNL     1      -4.216   3.104 -32.714  1.00  0.00     0.094 A 
HETATM   25  C   UNL     1      -3.657   4.501 -32.826  1.00  0.00     0.028 A 
HETATM   26  C   UNL     1      -2.860   3.438 -32.129  1.00  0.00     0.028 A 
ENDBRANCH   2  24
BRANCH   1  27
HETATM   27  C   UNL     1      -4.649   0.078 -31.773  1.00  0.00     0.040 A 
HETATM   28  C   UNL     1      -4.960  -0.937 -32.740  1.00  0.00     0.006 A 
HETATM   29  C   UNL     1      -6.018  -1.155 -33.652  1.00  0.00     0.014 A 
HETATM   30  C   UNL     1      -3.935  -1.885 -32.694  1.00  0.00     0.043 A 
HETATM   31  C   UNL     1      -6.012  -2.290 -34.470  1.00  0.00     0.001 A 
HETATM   32  C   UNL     1      -4.968  -3.208 -34.400  1.00  0.00     0.002 A 
HETATM   33  C   UNL     1      -3.908  -3.022 -33.511  1.00  0.00     0.030 A 
HETATM   34  N   UNL     1      -3.043  -1.468 -31.736  1.00  0.00    -0.364 N 
HETATM   35  H   UNL     1      -2.200  -1.966 -31.486  1.00  0.00     0.165 HD
HETATM   36  C   UNL     1      -3.473  -0.299 -31.161  1.00  0.00     0.104 A 
ENDBRANCH   1  27
TORSDOF 7
ENDMDL
