MODEL 1
REMARK VINA RESULT:      -9.9      0.000      0.000
REMARK  6 active torsions:
REMARK  status: ('A' for Active; 'I' for Inactive)
REMARK    1  A    between atoms: C_4  and  C_5 
REMARK    2  A    between atoms: C_5  and  C_6 
REMARK    3  A    between atoms: C_8  and  C_9 
REMARK    4  A    between atoms: C_9  and  C_10 
REMARK       I    between atoms: C_10  and  N_11 
REMARK    5  A    between atoms: N_11  and  N_12 
REMARK       I    between atoms: N_12  and  C_13 
REMARK       I    between atoms: C_13  and  N_14 
REMARK    6  A    between atoms: N_14  and  C_15 
ROOT
HETATM    1  C   UNL     1      -4.636   4.240 -31.294  1.00  0.00     0.238 C 
HETATM    2  N   UNL     1      -4.564   2.956 -31.793  1.00  0.00    -0.266 N 
HETATM    3  O   UNL     1      -5.138   4.486 -30.198  1.00  0.00    -0.272 OA
HETATM    4  H   UNL     1      -3.960   2.747 -32.580  1.00  0.00     0.190 HD
ENDROOT
BRANCH   1   5
HETATM    5  C   UNL     1      -4.178   5.356 -32.220  1.00  0.00     0.139 C 
BRANCH   5   6
HETATM    6  C   UNL     1      -2.909   5.120 -33.040  1.00  0.00     0.185 C 
HETATM    7  N   UNL     1      -1.736   5.458 -32.239  1.00  0.00    -0.363 N 
HETATM    8  C   UNL     1      -0.936   6.530 -32.532  1.00  0.00     0.125 C 
HETATM    9  H   UNL     1      -1.396   4.750 -31.595  1.00  0.00     0.161 HD
HETATM   10  N   UNL     1      -1.149   7.341 -33.531  1.00  0.00    -0.159 NA
HETATM   11  N   UNL     1      -2.137   7.011 -34.421  1.00  0.00    -0.244 N 
HETATM   12  C   UNL     1      -2.935   5.886 -34.361  1.00  0.00     0.261 C 
HETATM   13  H   UNL     1      -2.160   7.535 -35.293  1.00  0.00     0.192 HD
HETATM   14  O   UNL     1      -3.686   5.583 -35.285  1.00  0.00    -0.269 OA
BRANCH   8  15
HETATM   15  C   UNL     1       0.251   6.812 -31.618  1.00  0.00     0.118 C 
BRANCH  15  16
HETATM   16  C   UNL     1      -0.144   6.894 -30.164  1.00  0.00    -0.051 A 
HETATM   17  C   UNL     1       0.451   6.045 -29.219  1.00  0.00     0.007 A 
HETATM   18  C   UNL     1       0.109   6.137 -27.869  1.00  0.00     0.001 A 
HETATM   19  C   UNL     1      -0.827   7.079 -27.450  1.00  0.00     0.000 A 
HETATM   20  C   UNL     1      -1.422   7.930 -28.380  1.00  0.00     0.001 A 
HETATM   21  C   UNL     1      -1.081   7.840 -29.731  1.00  0.00     0.007 A 
ENDBRANCH  15  16
ENDBRANCH   8  15
ENDBRANCH   5   6
ENDBRANCH   1   5
BRANCH   2  22
HETATM   22  N   UNL     1      -4.829   1.909 -30.892  1.00  0.00    -0.249 N 
HETATM   23  C   UNL     1      -5.184   0.640 -31.299  1.00  0.00     0.339 C 
HETATM   24  N   UNL     1      -4.718   0.284 -32.545  1.00  0.00    -0.308 N 
HETATM   25  O   UNL     1      -5.849  -0.065 -30.546  1.00  0.00    -0.245 OA
HETATM   26  H   UNL     1      -3.927   0.817 -32.881  1.00  0.00     0.170 HD
HETATM   27  H   UNL     1      -5.230   2.203 -30.000  1.00  0.00     0.192 HD
BRANCH  24  28
HETATM   28  C   UNL     1      -5.036  -0.888 -33.264  1.00  0.00     0.038 A 
HETATM   29  C   UNL     1      -4.215  -2.019 -33.314  1.00  0.00     0.055 A 
HETATM   30  C   UNL     1      -4.604  -3.154 -34.040  1.00  0.00     0.058 A 
HETATM   31 CL   UNL     1      -3.528  -4.507 -34.057  1.00  0.00    -0.082 Cl
HETATM   32  C   UNL     1      -5.828  -3.168 -34.714  1.00  0.00     0.055 A 
HETATM   33 CL   UNL     1      -6.377  -4.531 -35.620  1.00  0.00    -0.083 Cl
HETATM   34  C   UNL     1      -6.657  -2.045 -34.661  1.00  0.00     0.028 A 
HETATM   35  C   UNL     1      -6.261  -0.913 -33.943  1.00  0.00     0.031 A 
ENDBRANCH  24  28
ENDBRANCH   2  22
TORSDOF 6
ENDMDL
MODEL 2
REMARK VINA RESULT:      -9.8      1.325      1.667
REMARK  6 active torsions:
REMARK  status: ('A' for Active; 'I' for Inactive)
REMARK    1  A    between atoms: C_4  and  C_5 
REMARK    2  A    between atoms: C_5  and  C_6 
REMARK    3  A    between atoms: C_8  and  C_9 
REMARK    4  A    between atoms: C_9  and  C_10 
REMARK       I    between atoms: C_10  and  N_11 
REMARK    5  A    between atoms: N_11  and  N_12 
REMARK       I    between atoms: N_12  and  C_13 
REMARK       I    between atoms: C_13  and  N_14 
REMARK    6  A    between atoms: N_14  and  C_15 
ROOT
HETATM    1  C   UNL     1      -3.223   3.224 -32.008  1.00  0.00     0.238 C 
HETATM    2  N   UNL     1      -4.589   3.038 -32.059  1.00  0.00    -0.266 N 
HETATM    3  O   UNL     1      -2.538   2.782 -31.086  1.00  0.00    -0.272 OA
HETATM    4  H   UNL     1      -5.097   3.211 -32.919  1.00  0.00     0.190 HD
ENDROOT
BRANCH   1   5
HETATM    5  C   UNL     1      -2.617   4.113 -33.084  1.00  0.00     0.139 C 
BRANCH   5   6
HETATM    6  C   UNL     1      -1.524   5.094 -32.658  1.00  0.00     0.185 C 
HETATM    7  N   UNL     1      -1.788   5.565 -31.301  1.00  0.00    -0.363 N 
HETATM    8  C   UNL     1      -2.138   6.862 -31.035  1.00  0.00     0.125 C 
HETATM    9  H   UNL     1      -1.486   4.969 -30.537  1.00  0.00     0.161 HD
HETATM   10  N   UNL     1      -2.277   7.779 -31.953  1.00  0.00    -0.159 NA
HETATM   11  N   UNL     1      -1.901   7.461 -33.232  1.00  0.00    -0.244 N 
HETATM   12  C   UNL     1      -1.383   6.250 -33.644  1.00  0.00     0.261 C 
HETATM   13  H   UNL     1      -1.825   8.234 -33.889  1.00  0.00     0.192 HD
HETATM   14  O   UNL     1      -0.923   6.103 -34.774  1.00  0.00    -0.269 OA
BRANCH   8  15
HETATM   15  C   UNL     1      -2.418   7.248 -29.587  1.00  0.00     0.118 C 
BRANCH  15  16
HETATM   16  C   UNL     1      -1.168   7.271 -28.742  1.00  0.00    -0.051 A 
HETATM   17  C   UNL     1      -0.012   7.919 -29.204  1.00  0.00     0.007 A 
HETATM   18  C   UNL     1       1.137   7.966 -28.413  1.00  0.00     0.001 A 
HETATM   19  C   UNL     1       1.142   7.373 -27.154  1.00  0.00     0.000 A 
HETATM   20  C   UNL     1      -0.002   6.730 -26.683  1.00  0.00     0.001 A 
HETATM   21  C   UNL     1      -1.153   6.681 -27.472  1.00  0.00     0.007 A 
ENDBRANCH  15  16
ENDBRANCH   8  15
ENDBRANCH   5   6
ENDBRANCH   1   5
BRANCH   2  22
HETATM   22  N   UNL     1      -5.134   2.092 -31.172  1.00  0.00    -0.249 N 
HETATM   23  C   UNL     1      -5.521   0.829 -31.567  1.00  0.00     0.339 C 
HETATM   24  N   UNL     1      -4.848   0.337 -32.664  1.00  0.00    -0.308 N 
HETATM   25  O   UNL     1      -6.391   0.244 -30.930  1.00  0.00    -0.245 OA
HETATM   26  H   UNL     1      -3.957   0.774 -32.858  1.00  0.00     0.170 HD
HETATM   27  H   UNL     1      -5.677   2.488 -30.404  1.00  0.00     0.192 HD
BRANCH  24  28
HETATM   28  C   UNL     1      -5.126  -0.858 -33.362  1.00  0.00     0.038 A 
HETATM   29  C   UNL     1      -4.277  -1.969 -33.375  1.00  0.00     0.055 A 
HETATM   30  C   UNL     1      -4.627  -3.128 -34.081  1.00  0.00     0.058 A 
HETATM   31 CL   UNL     1      -3.518  -4.455 -34.052  1.00  0.00    -0.082 Cl
HETATM   32  C   UNL     1      -5.840  -3.188 -34.772  1.00  0.00     0.055 A 
HETATM   33 CL   UNL     1      -6.341  -4.584 -35.656  1.00  0.00    -0.083 Cl
HETATM   34  C   UNL     1      -6.697  -2.085 -34.756  1.00  0.00     0.028 A 
HETATM   35  C   UNL     1      -6.340  -0.928 -34.058  1.00  0.00     0.031 A 
ENDBRANCH  24  28
ENDBRANCH   2  22
TORSDOF 6
ENDMDL
MODEL 3
REMARK VINA RESULT:      -9.5      1.951      3.557
REMARK  6 active torsions:
REMARK  status: ('A' for Active; 'I' for Inactive)
REMARK    1  A    between atoms: C_4  and  C_5 
REMARK    2  A    between atoms: C_5  and  C_6 
REMARK    3  A    between atoms: C_8  and  C_9 
REMARK    4  A    between atoms: C_9  and  C_10 
REMARK       I    between atoms: C_10  and  N_11 
REMARK    5  A    between atoms: N_11  and  N_12 
REMARK       I    between atoms: N_12  and  C_13 
REMARK       I    between atoms: C_13  and  N_14 
REMARK    6  A    between atoms: N_14  and  C_15 
ROOT
HETATM    1  C   UNL     1      -6.565   3.678 -32.772  1.00  0.00     0.238 C 
HETATM    2  N   UNL     1      -7.501   2.667 -32.838  1.00  0.00    -0.266 N 
HETATM    3  O   UNL     1      -5.815   3.934 -33.714  1.00  0.00    -0.272 OA
HETATM    4  H   UNL     1      -8.246   2.615 -32.152  1.00  0.00     0.190 HD
ENDROOT
BRANCH   1   5
HETATM    5  C   UNL     1      -6.417   4.384 -31.433  1.00  0.00     0.139 C 
BRANCH   5   6
HETATM    6  C   UNL     1      -5.178   4.062 -30.597  1.00  0.00     0.185 C 
HETATM    7  N   UNL     1      -4.008   4.710 -31.183  1.00  0.00    -0.363 N 
HETATM    8  C   UNL     1      -2.993   3.998 -31.763  1.00  0.00     0.125 C 
HETATM    9  H   UNL     1      -3.855   5.687 -30.950  1.00  0.00     0.161 HD
HETATM   10  N   UNL     1      -2.981   2.697 -31.855  1.00  0.00    -0.159 NA
HETATM   11  N   UNL     1      -3.963   2.003 -31.198  1.00  0.00    -0.244 N 
HETATM   12  C   UNL     1      -4.974   2.557 -30.439  1.00  0.00     0.261 C 
HETATM   13  H   UNL     1      -3.830   0.998 -31.110  1.00  0.00     0.192 HD
HETATM   14  O   UNL     1      -5.717   1.858 -29.754  1.00  0.00    -0.269 OA
BRANCH   8  15
HETATM   15  C   UNL     1      -1.827   4.771 -32.369  1.00  0.00     0.118 C 
BRANCH  15  16
HETATM   16  C   UNL     1      -1.056   5.558 -31.338  1.00  0.00    -0.051 A 
HETATM   17  C   UNL     1      -1.159   6.956 -31.288  1.00  0.00     0.007 A 
HETATM   18  C   UNL     1      -0.469   7.684 -30.318  1.00  0.00     0.001 A 
HETATM   19  C   UNL     1       0.326   7.024 -29.385  1.00  0.00     0.000 A 
HETATM   20  C   UNL     1       0.433   5.634 -29.421  1.00  0.00     0.001 A 
HETATM   21  C   UNL     1      -0.256   4.903 -30.392  1.00  0.00     0.007 A 
ENDBRANCH  15  16
ENDBRANCH   8  15
ENDBRANCH   5   6
ENDBRANCH   1   5
BRANCH   2  22
HETATM   22  N   UNL     1      -7.759   2.122 -34.108  1.00  0.00    -0.249 N 
HETATM   23  C   UNL     1      -7.165   0.963 -34.562  1.00  0.00     0.339 C 
HETATM   24  N   UNL     1      -6.791   0.081 -33.573  1.00  0.00    -0.308 N 
HETATM   25  O   UNL     1      -7.032   0.794 -35.771  1.00  0.00    -0.245 OA
HETATM   26  H   UNL     1      -7.262   0.200 -32.685  1.00  0.00     0.170 HD
HETATM   27  H   UNL     1      -7.974   2.809 -34.833  1.00  0.00     0.192 HD
BRANCH  24  28
HETATM   28  C   UNL     1      -6.049  -1.109 -33.735  1.00  0.00     0.038 A 
HETATM   29  C   UNL     1      -6.479  -2.196 -34.502  1.00  0.00     0.055 A 
HETATM   30  C   UNL     1      -5.680  -3.341 -34.628  1.00  0.00     0.058 A 
HETATM   31 CL   UNL     1      -6.287  -4.646 -35.588  1.00  0.00    -0.082 Cl
HETATM   32  C   UNL     1      -4.437  -3.401 -33.994  1.00  0.00     0.055 A 
HETATM   33 CL   UNL     1      -3.396  -4.774 -34.111  1.00  0.00    -0.083 Cl
HETATM   34  C   UNL     1      -3.998  -2.315 -33.234  1.00  0.00     0.028 A 
HETATM   35  C   UNL     1      -4.801  -1.178 -33.104  1.00  0.00     0.031 A 
ENDBRANCH  24  28
ENDBRANCH   2  22
TORSDOF 6
ENDMDL
MODEL 4
REMARK VINA RESULT:      -9.4      4.558     10.367
REMARK  6 active torsions:
REMARK  status: ('A' for Active; 'I' for Inactive)
REMARK    1  A    between atoms: C_4  and  C_5 
REMARK    2  A    between atoms: C_5  and  C_6 
REMARK    3  A    between atoms: C_8  and  C_9 
REMARK    4  A    between atoms: C_9  and  C_10 
REMARK       I    between atoms: C_10  and  N_11 
REMARK    5  A    between atoms: N_11  and  N_12 
REMARK       I    between atoms: N_12  and  C_13 
REMARK       I    between atoms: C_13  and  N_14 
REMARK    6  A    between atoms: N_14  and  C_15 
ROOT
HETATM    1  C   UNL     1      -4.179   3.859 -32.473  1.00  0.00     0.238 C 
HETATM    2  N   UNL     1      -2.941   3.719 -31.881  1.00  0.00    -0.266 N 
HETATM    3  O   UNL     1      -4.398   4.714 -33.332  1.00  0.00    -0.272 OA
HETATM    4  H   UNL     1      -2.721   2.884 -31.349  1.00  0.00     0.190 HD
ENDROOT
BRANCH   1   5
HETATM    5  C   UNL     1      -5.299   2.989 -31.923  1.00  0.00     0.139 C 
BRANCH   5   6
HETATM    6  C   UNL     1      -5.010   1.500 -31.732  1.00  0.00     0.185 C 
HETATM    7  N   UNL     1      -5.175   0.800 -33.004  1.00  0.00    -0.363 N 
HETATM    8  C   UNL     1      -6.187  -0.096 -33.217  1.00  0.00     0.125 C 
HETATM    9  H   UNL     1      -4.391   0.822 -33.649  1.00  0.00     0.161 HD
HETATM   10  N   UNL     1      -7.089  -0.397 -32.325  1.00  0.00    -0.159 NA
HETATM   11  N   UNL     1      -6.921   0.097 -31.058  1.00  0.00    -0.244 N 
HETATM   12  C   UNL     1      -5.874   0.889 -30.632  1.00  0.00     0.261 C 
HETATM   13  H   UNL     1      -7.511  -0.302 -30.331  1.00  0.00     0.192 HD
HETATM   14  O   UNL     1      -5.715   1.155 -29.443  1.00  0.00    -0.269 OA
BRANCH   8  15
HETATM   15  C   UNL     1      -6.287  -0.755 -34.589  1.00  0.00     0.118 C 
BRANCH  15  16
HETATM   16  C   UNL     1      -5.852  -2.200 -34.571  1.00  0.00    -0.051 A 
HETATM   17  C   UNL     1      -4.555  -2.545 -34.165  1.00  0.00     0.007 A 
HETATM   18  C   UNL     1      -4.159  -3.883 -34.120  1.00  0.00     0.001 A 
HETATM   19  C   UNL     1      -5.055  -4.888 -34.474  1.00  0.00     0.000 A 
HETATM   20  C   UNL     1      -6.349  -4.557 -34.874  1.00  0.00     0.001 A 
HETATM   21  C   UNL     1      -6.747  -3.219 -34.921  1.00  0.00     0.007 A 
ENDBRANCH  15  16
ENDBRANCH   8  15
ENDBRANCH   5   6
ENDBRANCH   1   5
BRANCH   2  22
HETATM   22  N   UNL     1      -1.868   4.396 -32.486  1.00  0.00    -0.249 N 
HETATM   23  C   UNL     1      -1.204   5.443 -31.882  1.00  0.00     0.339 C 
HETATM   24  N   UNL     1      -1.227   5.421 -30.505  1.00  0.00    -0.308 N 
HETATM   25  O   UNL     1      -0.643   6.279 -32.583  1.00  0.00    -0.245 OA
HETATM   26  H   UNL     1      -1.422   4.520 -30.088  1.00  0.00     0.170 HD
HETATM   27  H   UNL     1      -1.913   4.445 -33.506  1.00  0.00     0.192 HD
BRANCH  24  28
HETATM   28  C   UNL     1      -0.752   6.425 -29.634  1.00  0.00     0.038 A 
HETATM   29  C   UNL     1      -1.368   7.669 -29.469  1.00  0.00     0.055 A 
HETATM   30  C   UNL     1      -0.846   8.613 -28.574  1.00  0.00     0.058 A 
HETATM   31 CL   UNL     1      -1.663  10.131 -28.435  1.00  0.00    -0.082 Cl
HETATM   32  C   UNL     1       0.296   8.313 -27.828  1.00  0.00     0.055 A 
HETATM   33 CL   UNL     1       0.992   9.421 -26.701  1.00  0.00    -0.083 Cl
HETATM   34  C   UNL     1       0.912   7.069 -27.982  1.00  0.00     0.028 A 
HETATM   35  C   UNL     1       0.392   6.133 -28.881  1.00  0.00     0.031 A 
ENDBRANCH  24  28
ENDBRANCH   2  22
TORSDOF 6
ENDMDL
MODEL 5
REMARK VINA RESULT:      -9.4      4.340     10.049
REMARK  6 active torsions:
REMARK  status: ('A' for Active; 'I' for Inactive)
REMARK    1  A    between atoms: C_4  and  C_5 
REMARK    2  A    between atoms: C_5  and  C_6 
REMARK    3  A    between atoms: C_8  and  C_9 
REMARK    4  A    between atoms: C_9  and  C_10 
REMARK       I    between atoms: C_10  and  N_11 
REMARK    5  A    between atoms: N_11  and  N_12 
REMARK       I    between atoms: N_12  and  C_13 
REMARK       I    between atoms: C_13  and  N_14 
REMARK    6  A    between atoms: N_14  and  C_15 
ROOT
HETATM    1  C   UNL     1      -5.534   4.266 -33.660  1.00  0.00     0.238 C 
HETATM    2  N   UNL     1      -4.189   4.144 -33.379  1.00  0.00    -0.266 N 
HETATM    3  O   UNL     1      -5.986   5.229 -34.279  1.00  0.00    -0.272 OA
HETATM    4  H   UNL     1      -3.810   3.256 -33.071  1.00  0.00     0.190 HD
ENDROOT
BRANCH   1   5
HETATM    5  C   UNL     1      -6.453   3.213 -33.060  1.00  0.00     0.139 C 
BRANCH   5   6
HETATM    6  C   UNL     1      -5.832   1.872 -32.667  1.00  0.00     0.185 C 
HETATM    7  N   UNL     1      -5.974   0.924 -33.769  1.00  0.00    -0.363 N 
HETATM    8  C   UNL     1      -6.786  -0.175 -33.686  1.00  0.00     0.125 C 
HETATM    9  H   UNL     1      -5.285   0.972 -34.513  1.00  0.00     0.161 HD
HETATM   10  N   UNL     1      -7.505  -0.468 -32.637  1.00  0.00    -0.159 NA
HETATM   11  N   UNL     1      -7.317   0.283 -31.506  1.00  0.00    -0.244 N 
HETATM   12  C   UNL     1      -6.426   1.328 -31.370  1.00  0.00     0.261 C 
HETATM   13  H   UNL     1      -7.728  -0.075 -30.648  1.00  0.00     0.192 HD
HETATM   14  O   UNL     1      -6.205   1.843 -30.276  1.00  0.00    -0.269 OA
BRANCH   8  15
HETATM   15  C   UNL     1      -6.884  -1.091 -34.901  1.00  0.00     0.118 C 
BRANCH  15  16
HETATM   16  C   UNL     1      -6.129  -2.384 -34.714  1.00  0.00    -0.051 A 
HETATM   17  C   UNL     1      -4.823  -2.375 -34.203  1.00  0.00     0.007 A 
HETATM   18  C   UNL     1      -4.132  -3.571 -34.003  1.00  0.00     0.001 A 
HETATM   19  C   UNL     1      -4.741  -4.787 -34.305  1.00  0.00     0.000 A 
HETATM   20  C   UNL     1      -6.040  -4.808 -34.810  1.00  0.00     0.001 A 
HETATM   21  C   UNL     1      -6.733  -3.612 -35.012  1.00  0.00     0.007 A 
ENDBRANCH  15  16
ENDBRANCH   8  15
ENDBRANCH   5   6
ENDBRANCH   1   5
BRANCH   2  22
HETATM   22  N   UNL     1      -3.317   5.013 -34.059  1.00  0.00    -0.249 N 
HETATM   23  C   UNL     1      -2.462   5.878 -33.410  1.00  0.00     0.339 C 
HETATM   24  N   UNL     1      -2.077   5.471 -32.152  1.00  0.00    -0.308 N 
HETATM   25  O   UNL     1      -2.102   6.903 -33.981  1.00  0.00    -0.245 OA
HETATM   26  H   UNL     1      -2.175   4.482 -31.967  1.00  0.00     0.170 HD
HETATM   27  H   UNL     1      -3.661   5.343 -34.963  1.00  0.00     0.192 HD
BRANCH  24  28
HETATM   28  C   UNL     1      -1.324   6.213 -31.216  1.00  0.00     0.038 A 
HETATM   29  C   UNL     1      -1.850   7.249 -30.439  1.00  0.00     0.055 A 
HETATM   30  C   UNL     1      -1.044   7.933 -29.518  1.00  0.00     0.058 A 
HETATM   31 CL   UNL     1      -1.770   9.208 -28.602  1.00  0.00    -0.082 Cl
HETATM   32  C   UNL     1       0.297   7.574 -29.360  1.00  0.00     0.055 A 
HETATM   33 CL   UNL     1       1.348   8.365 -28.241  1.00  0.00    -0.083 Cl
HETATM   34  C   UNL     1       0.827   6.534 -30.127  1.00  0.00     0.028 A 
HETATM   35  C   UNL     1       0.021   5.860 -31.050  1.00  0.00     0.031 A 
ENDBRANCH  24  28
ENDBRANCH   2  22
TORSDOF 6
ENDMDL
MODEL 6
REMARK VINA RESULT:      -9.4      1.407      1.914
REMARK  6 active torsions:
REMARK  status: ('A' for Active; 'I' for Inactive)
REMARK    1  A    between atoms: C_4  and  C_5 
REMARK    2  A    between atoms: C_5  and  C_6 
REMARK    3  A    between atoms: C_8  and  C_9 
REMARK    4  A    between atoms: C_9  and  C_10 
REMARK       I    between atoms: C_10  and  N_11 
REMARK    5  A    between atoms: N_11  and  N_12 
REMARK       I    between atoms: N_12  and  C_13 
REMARK       I    between atoms: C_13  and  N_14 
REMARK    6  A    between atoms: N_14  and  C_15 
ROOT
HETATM    1  C   UNL     1      -3.963   3.544 -32.729  1.00  0.00     0.238 C 
HETATM    2  N   UNL     1      -5.191   2.986 -32.442  1.00  0.00    -0.266 N 
HETATM    3  O   UNL     1      -2.985   3.379 -31.999  1.00  0.00    -0.272 OA
HETATM    4  H   UNL     1      -5.913   2.946 -33.152  1.00  0.00     0.190 HD
ENDROOT
BRANCH   1   5
HETATM    5  C   UNL     1      -3.903   4.479 -33.927  1.00  0.00     0.139 C 
BRANCH   5   6
HETATM    6  C   UNL     1      -4.012   5.980 -33.659  1.00  0.00     0.185 C 
HETATM    7  N   UNL     1      -2.691   6.520 -33.345  1.00  0.00    -0.363 N 
HETATM    8  C   UNL     1      -2.372   6.987 -32.098  1.00  0.00     0.125 C 
HETATM    9  H   UNL     1      -2.087   6.750 -34.127  1.00  0.00     0.161 HD
HETATM   10  N   UNL     1      -3.199   6.986 -31.089  1.00  0.00    -0.159 NA
HETATM   11  N   UNL     1      -4.502   6.639 -31.334  1.00  0.00    -0.244 N 
HETATM   12  C   UNL     1      -5.027   6.290 -32.562  1.00  0.00     0.261 C 
HETATM   13  H   UNL     1      -5.172   6.832 -30.594  1.00  0.00     0.192 HD
HETATM   14  O   UNL     1      -6.238   6.150 -32.724  1.00  0.00    -0.269 OA
BRANCH   8  15
HETATM   15  C   UNL     1      -0.957   7.507 -31.866  1.00  0.00     0.118 C 
BRANCH  15  16
HETATM   16  C   UNL     1      -0.275   6.829 -30.703  1.00  0.00    -0.051 A 
HETATM   17  C   UNL     1      -0.058   7.523 -29.504  1.00  0.00     0.007 A 
HETATM   18  C   UNL     1       0.548   6.890 -28.418  1.00  0.00     0.001 A 
HETATM   19  C   UNL     1       0.937   5.557 -28.516  1.00  0.00     0.000 A 
HETATM   20  C   UNL     1       0.722   4.855 -29.701  1.00  0.00     0.001 A 
HETATM   21  C   UNL     1       0.117   5.487 -30.790  1.00  0.00     0.007 A 
ENDBRANCH  15  16
ENDBRANCH   8  15
ENDBRANCH   5   6
ENDBRANCH   1   5
BRANCH   2  22
HETATM   22  N   UNL     1      -5.221   1.998 -31.441  1.00  0.00    -0.249 N 
HETATM   23  C   UNL     1      -5.430   0.662 -31.712  1.00  0.00     0.339 C 
HETATM   24  N   UNL     1      -5.036   0.260 -32.969  1.00  0.00    -0.308 N 
HETATM   25  O   UNL     1      -5.916  -0.055 -30.842  1.00  0.00    -0.245 OA
HETATM   26  H   UNL     1      -4.363   0.862 -33.425  1.00  0.00     0.170 HD
HETATM   27  H   UNL     1      -5.575   2.315 -30.537  1.00  0.00     0.192 HD
BRANCH  24  28
HETATM   28  C   UNL     1      -5.251  -1.003 -33.560  1.00  0.00     0.038 A 
HETATM   29  C   UNL     1      -4.326  -2.050 -33.519  1.00  0.00     0.055 A 
HETATM   30  C   UNL     1      -4.615  -3.284 -34.119  1.00  0.00     0.058 A 
HETATM   31 CL   UNL     1      -3.414  -4.525 -34.030  1.00  0.00    -0.082 Cl
HETATM   32  C   UNL     1      -5.843  -3.482 -34.756  1.00  0.00     0.055 A 
HETATM   33 CL   UNL     1      -6.272  -4.976 -35.508  1.00  0.00    -0.083 Cl
HETATM   34  C   UNL     1      -6.775  -2.443 -34.792  1.00  0.00     0.028 A 
HETATM   35  C   UNL     1      -6.479  -1.212 -34.200  1.00  0.00     0.031 A 
ENDBRANCH  24  28
ENDBRANCH   2  22
TORSDOF 6
ENDMDL
MODEL 7
REMARK VINA RESULT:      -9.3      5.029      8.872
REMARK  6 active torsions:
REMARK  status: ('A' for Active; 'I' for Inactive)
REMARK    1  A    between atoms: C_4  and  C_5 
REMARK    2  A    between atoms: C_5  and  C_6 
REMARK    3  A    between atoms: C_8  and  C_9 
REMARK    4  A    between atoms: C_9  and  C_10 
REMARK       I    between atoms: C_10  and  N_11 
REMARK    5  A    between atoms: N_11  and  N_12 
REMARK       I    between atoms: N_12  and  C_13 
REMARK       I    between atoms: C_13  and  N_14 
REMARK    6  A    between atoms: N_14  and  C_15 
ROOT
HETATM    1  C   UNL     1      -5.475   3.262 -32.468  1.00  0.00     0.238 C 
HETATM    2  N   UNL     1      -6.584   3.863 -31.909  1.00  0.00    -0.266 N 
HETATM    3  O   UNL     1      -5.285   3.247 -33.684  1.00  0.00    -0.272 OA
HETATM    4  H   UNL     1      -6.613   4.058 -30.915  1.00  0.00     0.190 HD
ENDROOT
BRANCH   1   5
HETATM    5  C   UNL     1      -4.559   2.508 -31.517  1.00  0.00     0.139 C 
BRANCH   5   6
HETATM    6  C   UNL     1      -4.801   1.008 -31.341  1.00  0.00     0.185 C 
HETATM    7  N   UNL     1      -4.995   0.385 -32.648  1.00  0.00    -0.363 N 
HETATM    8  C   UNL     1      -6.201  -0.133 -33.038  1.00  0.00     0.125 C 
HETATM    9  H   UNL     1      -4.160   0.142 -33.173  1.00  0.00     0.161 HD
HETATM   10  N   UNL     1      -7.273  -0.111 -32.296  1.00  0.00    -0.159 NA
HETATM   11  N   UNL     1      -7.143   0.317 -31.000  1.00  0.00    -0.244 N 
HETATM   12  C   UNL     1      -5.970   0.728 -30.400  1.00  0.00     0.261 C 
HETATM   13  H   UNL     1      -7.931   0.143 -30.381  1.00  0.00     0.192 HD
HETATM   14  O   UNL     1      -5.911   0.942 -29.191  1.00  0.00    -0.269 OA
BRANCH   8  15
HETATM   15  C   UNL     1      -6.305  -0.740 -34.433  1.00  0.00     0.118 C 
BRANCH  15  16
HETATM   16  C   UNL     1      -5.909  -2.195 -34.462  1.00  0.00    -0.051 A 
HETATM   17  C   UNL     1      -6.848  -3.179 -34.808  1.00  0.00     0.007 A 
HETATM   18  C   UNL     1      -6.478  -4.524 -34.863  1.00  0.00     0.001 A 
HETATM   19  C   UNL     1      -5.167  -4.898 -34.580  1.00  0.00     0.000 A 
HETATM   20  C   UNL     1      -4.224  -3.929 -34.240  1.00  0.00     0.001 A 
HETATM   21  C   UNL     1      -4.593  -2.583 -34.183  1.00  0.00     0.007 A 
ENDBRANCH  15  16
ENDBRANCH   8  15
ENDBRANCH   5   6
ENDBRANCH   1   5
BRANCH   2  22
HETATM   22  N   UNL     1      -7.345   4.696 -32.748  1.00  0.00    -0.249 N 
HETATM   23  C   UNL     1      -8.572   4.328 -33.259  1.00  0.00     0.339 C 
HETATM   24  N   UNL     1      -9.266   3.419 -32.492  1.00  0.00    -0.308 N 
HETATM   25  O   UNL     1      -8.955   4.829 -34.312  1.00  0.00    -0.245 OA
HETATM   26  H   UNL     1      -8.985   3.367 -31.521  1.00  0.00     0.170 HD
HETATM   27  H   UNL     1      -6.797   5.316 -33.348  1.00  0.00     0.192 HD
BRANCH  24  28
HETATM   28  C   UNL     1     -10.472   2.770 -32.832  1.00  0.00     0.038 A 
HETATM   29  C   UNL     1     -11.740   3.321 -32.622  1.00  0.00     0.055 A 
HETATM   30  C   UNL     1     -12.895   2.622 -32.998  1.00  0.00     0.058 A 
HETATM   31 CL   UNL     1     -14.425   3.370 -32.696  1.00  0.00    -0.082 Cl
HETATM   32  C   UNL     1     -12.787   1.366 -33.601  1.00  0.00     0.055 A 
HETATM   33 CL   UNL     1     -14.164   0.450 -34.099  1.00  0.00    -0.083 Cl
HETATM   34  C   UNL     1     -11.524   0.813 -33.822  1.00  0.00     0.028 A 
HETATM   35  C   UNL     1     -10.375   1.511 -33.438  1.00  0.00     0.031 A 
ENDBRANCH  24  28
ENDBRANCH   2  22
TORSDOF 6
ENDMDL
MODEL 8
REMARK VINA RESULT:      -9.3      4.107      9.489
REMARK  6 active torsions:
REMARK  status: ('A' for Active; 'I' for Inactive)
REMARK    1  A    between atoms: C_4  and  C_5 
REMARK    2  A    between atoms: C_5  and  C_6 
REMARK    3  A    between atoms: C_8  and  C_9 
REMARK    4  A    between atoms: C_9  and  C_10 
REMARK       I    between atoms: C_10  and  N_11 
REMARK    5  A    between atoms: N_11  and  N_12 
REMARK       I    between atoms: N_12  and  C_13 
REMARK       I    between atoms: C_13  and  N_14 
REMARK    6  A    between atoms: N_14  and  C_15 
ROOT
HETATM    1  C   UNL     1      -7.676   3.428 -33.182  1.00  0.00     0.238 C 
HETATM    2  N   UNL     1      -6.321   3.466 -32.928  1.00  0.00    -0.266 N 
HETATM    3  O   UNL     1      -8.210   4.185 -33.993  1.00  0.00    -0.272 OA
HETATM    4  H   UNL     1      -5.873   2.703 -32.434  1.00  0.00     0.190 HD
ENDROOT
BRANCH   1   5
HETATM    5  C   UNL     1      -8.505   2.488 -32.319  1.00  0.00     0.139 C 
BRANCH   5   6
HETATM    6  C   UNL     1      -8.683   1.050 -32.808  1.00  0.00     0.185 C 
HETATM    7  N   UNL     1      -7.389   0.372 -32.820  1.00  0.00    -0.363 N 
HETATM    8  C   UNL     1      -6.774  -0.005 -33.984  1.00  0.00     0.125 C 
HETATM    9  H   UNL     1      -7.061  -0.016 -31.941  1.00  0.00     0.161 HD
HETATM   10  N   UNL     1      -7.272   0.211 -35.170  1.00  0.00    -0.159 NA
HETATM   11  N   UNL     1      -8.548   0.704 -35.245  1.00  0.00    -0.244 N 
HETATM   12  C   UNL     1      -9.366   0.994 -34.171  1.00  0.00     0.261 C 
HETATM   13  H   UNL     1      -8.994   0.679 -36.159  1.00  0.00     0.192 HD
HETATM   14  O   UNL     1     -10.551   1.279 -34.328  1.00  0.00    -0.269 OA
BRANCH   8  15
HETATM   15  C   UNL     1      -5.412  -0.684 -33.890  1.00  0.00     0.118 C 
BRANCH  15  16
HETATM   16  C   UNL     1      -5.484  -2.166 -34.167  1.00  0.00    -0.051 A 
HETATM   17  C   UNL     1      -6.689  -2.752 -34.583  1.00  0.00     0.007 A 
HETATM   18  C   UNL     1      -6.752  -4.117 -34.867  1.00  0.00     0.001 A 
HETATM   19  C   UNL     1      -5.613  -4.908 -34.745  1.00  0.00     0.000 A 
HETATM   20  C   UNL     1      -4.409  -4.336 -34.337  1.00  0.00     0.001 A 
HETATM   21  C   UNL     1      -4.344  -2.970 -34.051  1.00  0.00     0.007 A 
ENDBRANCH  15  16
ENDBRANCH   8  15
ENDBRANCH   5   6
ENDBRANCH   1   5
BRANCH   2  22
HETATM   22  N   UNL     1      -5.528   4.205 -33.824  1.00  0.00    -0.249 N 
HETATM   23  C   UNL     1      -4.451   4.966 -33.421  1.00  0.00     0.339 C 
HETATM   24  N   UNL     1      -3.843   4.536 -32.262  1.00  0.00    -0.308 N 
HETATM   25  O   UNL     1      -4.110   5.927 -34.104  1.00  0.00    -0.245 OA
HETATM   26  H   UNL     1      -4.015   3.570 -32.015  1.00  0.00     0.170 HD
HETATM   27  H   UNL     1      -6.024   4.560 -34.643  1.00  0.00     0.192 HD
BRANCH  24  28
HETATM   28  C   UNL     1      -2.816   5.193 -31.551  1.00  0.00     0.038 A 
HETATM   29  C   UNL     1      -1.476   4.794 -31.571  1.00  0.00     0.055 A 
HETATM   30  C   UNL     1      -0.507   5.504 -30.849  1.00  0.00     0.058 A 
HETATM   31 CL   UNL     1       1.126   4.940 -30.920  1.00  0.00    -0.082 Cl
HETATM   32  C   UNL     1      -0.873   6.631 -30.108  1.00  0.00     0.055 A 
HETATM   33 CL   UNL     1       0.265   7.560 -29.201  1.00  0.00    -0.083 Cl
HETATM   34  C   UNL     1      -2.208   7.040 -30.091  1.00  0.00     0.028 A 
HETATM   35  C   UNL     1      -3.172   6.324 -30.806  1.00  0.00     0.031 A 
ENDBRANCH  24  28
ENDBRANCH   2  22
TORSDOF 6
ENDMDL
MODEL 9
REMARK VINA RESULT:      -9.0      4.544      9.797
REMARK  6 active torsions:
REMARK  status: ('A' for Active; 'I' for Inactive)
REMARK    1  A    between atoms: C_4  and  C_5 
REMARK    2  A    between atoms: C_5  and  C_6 
REMARK    3  A    between atoms: C_8  and  C_9 
REMARK    4  A    between atoms: C_9  and  C_10 
REMARK       I    between atoms: C_10  and  N_11 
REMARK    5  A    between atoms: N_11  and  N_12 
REMARK       I    between atoms: N_12  and  C_13 
REMARK       I    between atoms: C_13  and  N_14 
REMARK    6  A    between atoms: N_14  and  C_15 
ROOT
HETATM    1  C   UNL     1      -4.089   2.071 -31.913  1.00  0.00     0.238 C 
HETATM    2  N   UNL     1      -3.776   3.410 -32.019  1.00  0.00    -0.266 N 
HETATM    3  O   UNL     1      -3.479   1.207 -32.543  1.00  0.00    -0.272 OA
HETATM    4  H   UNL     1      -4.131   4.073 -31.340  1.00  0.00     0.190 HD
ENDROOT
BRANCH   1   5
HETATM    5  C   UNL     1      -5.308   1.721 -31.074  1.00  0.00     0.139 C 
BRANCH   5   6
HETATM    6  C   UNL     1      -6.684   1.897 -31.718  1.00  0.00     0.185 C 
HETATM    7  N   UNL     1      -7.111   0.635 -32.317  1.00  0.00    -0.363 N 
HETATM    8  C   UNL     1      -7.226   0.472 -33.671  1.00  0.00     0.125 C 
HETATM    9  H   UNL     1      -7.539  -0.048 -31.699  1.00  0.00     0.161 HD
HETATM   10  N   UNL     1      -6.960   1.408 -34.540  1.00  0.00    -0.159 NA
HETATM   11  N   UNL     1      -6.699   2.666 -34.061  1.00  0.00    -0.244 N 
HETATM   12  C   UNL     1      -6.695   3.039 -32.732  1.00  0.00     0.261 C 
HETATM   13  H   UNL     1      -6.692   3.420 -34.743  1.00  0.00     0.192 HD
HETATM   14  O   UNL     1      -6.611   4.219 -32.399  1.00  0.00    -0.269 OA
BRANCH   8  15
HETATM   15  C   UNL     1      -7.656  -0.893 -34.197  1.00  0.00     0.118 C 
BRANCH  15  16
HETATM   16  C   UNL     1      -6.520  -1.886 -34.225  1.00  0.00    -0.051 A 
HETATM   17  C   UNL     1      -6.725  -3.184 -34.717  1.00  0.00     0.007 A 
HETATM   18  C   UNL     1      -5.670  -4.096 -34.770  1.00  0.00     0.001 A 
HETATM   19  C   UNL     1      -4.401  -3.721 -34.339  1.00  0.00     0.000 A 
HETATM   20  C   UNL     1      -4.184  -2.432 -33.853  1.00  0.00     0.001 A 
HETATM   21  C   UNL     1      -5.239  -1.517 -33.797  1.00  0.00     0.007 A 
ENDBRANCH  15  16
ENDBRANCH   8  15
ENDBRANCH   5   6
ENDBRANCH   1   5
BRANCH   2  22
HETATM   22  N   UNL     1      -2.562   3.730 -32.653  1.00  0.00    -0.249 N 
HETATM   23  C   UNL     1      -1.695   4.690 -32.174  1.00  0.00     0.339 C 
HETATM   24  N   UNL     1      -1.758   4.895 -30.814  1.00  0.00    -0.308 N 
HETATM   25  O   UNL     1      -0.943   5.261 -32.958  1.00  0.00    -0.245 OA
HETATM   26  H   UNL     1      -2.161   4.137 -30.279  1.00  0.00     0.170 HD
HETATM   27  H   UNL     1      -2.569   3.624 -33.669  1.00  0.00     0.192 HD
BRANCH  24  28
HETATM   28  C   UNL     1      -1.091   5.898 -30.077  1.00  0.00     0.038 A 
HETATM   29  C   UNL     1      -1.603   7.182 -29.868  1.00  0.00     0.055 A 
HETATM   30  C   UNL     1      -0.889   8.122 -29.113  1.00  0.00     0.058 A 
HETATM   31 CL   UNL     1      -1.587   9.691 -28.908  1.00  0.00    -0.082 Cl
HETATM   32  C   UNL     1       0.343   7.778 -28.549  1.00  0.00     0.055 A 
HETATM   33 CL   UNL     1       1.274   8.880 -27.601  1.00  0.00    -0.083 Cl
HETATM   34  C   UNL     1       0.855   6.494 -28.746  1.00  0.00     0.028 A 
HETATM   35  C   UNL     1       0.144   5.562 -29.507  1.00  0.00     0.031 A 
ENDBRANCH  24  28
ENDBRANCH   2  22
TORSDOF 6
ENDMDL
MODEL 10
REMARK VINA RESULT:      -8.9      3.518      5.061
REMARK  6 active torsions:
REMARK  status: ('A' for Active; 'I' for Inactive)
REMARK    1  A    between atoms: C_4  and  C_5 
REMARK    2  A    between atoms: C_5  and  C_6 
REMARK    3  A    between atoms: C_8  and  C_9 
REMARK    4  A    between atoms: C_9  and  C_10 
REMARK       I    between atoms: C_10  and  N_11 
REMARK    5  A    between atoms: N_11  and  N_12 
REMARK       I    between atoms: N_12  and  C_13 
REMARK       I    between atoms: C_13  and  N_14 
REMARK    6  A    between atoms: N_14  and  C_15 
ROOT
HETATM    1  C   UNL     1      -9.532   3.987 -31.030  1.00  0.00     0.238 C 
HETATM    2  N   UNL     1      -9.450   3.150 -32.123  1.00  0.00    -0.266 N 
HETATM    3  O   UNL     1     -10.235   3.720 -30.055  1.00  0.00    -0.272 OA
HETATM    4  H   UNL     1      -8.711   3.272 -32.806  1.00  0.00     0.190 HD
ENDROOT
BRANCH   1   5
HETATM    5  C   UNL     1      -8.809   5.321 -31.138  1.00  0.00     0.139 C 
BRANCH   5   6
HETATM    6  C   UNL     1      -7.327   5.355 -30.763  1.00  0.00     0.185 C 
HETATM    7  N   UNL     1      -6.526   4.868 -31.882  1.00  0.00    -0.363 N 
HETATM    8  C   UNL     1      -5.836   3.686 -31.826  1.00  0.00     0.125 C 
HETATM    9  H   UNL     1      -6.307   5.531 -32.619  1.00  0.00     0.161 HD
HETATM   10  N   UNL     1      -5.840   2.893 -30.789  1.00  0.00    -0.159 NA
HETATM   11  N   UNL     1      -6.441   3.345 -29.644  1.00  0.00    -0.244 N 
HETATM   12  C   UNL     1      -7.048   4.574 -29.482  1.00  0.00     0.261 C 
HETATM   13  H   UNL     1      -6.265   2.812 -28.796  1.00  0.00     0.192 HD
HETATM   14  O   UNL     1      -7.420   4.963 -28.376  1.00  0.00    -0.269 OA
BRANCH   8  15
HETATM   15  C   UNL     1      -5.049   3.253 -33.058  1.00  0.00     0.118 C 
BRANCH  15  16
HETATM   16  C   UNL     1      -3.830   4.111 -33.296  1.00  0.00    -0.051 A 
HETATM   17  C   UNL     1      -3.809   5.035 -34.351  1.00  0.00     0.007 A 
HETATM   18  C   UNL     1      -2.694   5.850 -34.557  1.00  0.00     0.001 A 
HETATM   19  C   UNL     1      -1.594   5.752 -33.710  1.00  0.00     0.000 A 
HETATM   20  C   UNL     1      -1.605   4.840 -32.656  1.00  0.00     0.001 A 
HETATM   21  C   UNL     1      -2.719   4.023 -32.448  1.00  0.00     0.007 A 
ENDBRANCH  15  16
ENDBRANCH   8  15
ENDBRANCH   5   6
ENDBRANCH   1   5
BRANCH   2  22
HETATM   22  N   UNL     1      -9.975   1.854 -31.971  1.00  0.00    -0.249 N 
HETATM   23  C   UNL     1      -9.305   0.720 -32.380  1.00  0.00     0.339 C 
HETATM   24  N   UNL     1      -7.933   0.836 -32.396  1.00  0.00    -0.308 N 
HETATM   25  O   UNL     1      -9.950  -0.282 -32.672  1.00  0.00    -0.245 OA
HETATM   26  H   UNL     1      -7.553   1.576 -31.821  1.00  0.00     0.170 HD
HETATM   27  H   UNL     1     -10.994   1.795 -32.024  1.00  0.00     0.192 HD
BRANCH  24  28
HETATM   28  C   UNL     1      -7.009  -0.108 -32.894  1.00  0.00     0.038 A 
HETATM   29  C   UNL     1      -5.827  -0.463 -32.237  1.00  0.00     0.055 A 
HETATM   30  C   UNL     1      -4.963  -1.420 -32.787  1.00  0.00     0.058 A 
HETATM   31 CL   UNL     1      -3.518  -1.797 -31.915  1.00  0.00    -0.082 Cl
HETATM   32  C   UNL     1      -5.284  -2.040 -33.997  1.00  0.00     0.055 A 
HETATM   33 CL   UNL     1      -4.274  -3.233 -34.730  1.00  0.00    -0.083 Cl
HETATM   34  C   UNL     1      -6.468  -1.697 -34.654  1.00  0.00     0.028 A 
HETATM   35  C   UNL     1      -7.322  -0.735 -34.107  1.00  0.00     0.031 A 
ENDBRANCH  24  28
ENDBRANCH   2  22
TORSDOF 6
ENDMDL
