MODEL 1
REMARK VINA RESULT:     -10.7      0.000      0.000
REMARK  4 active torsions:
REMARK  status: ('A' for Active; 'I' for Inactive)
REMARK    1  A    between atoms: C_2  and  N_3 
REMARK    2  A    between atoms: C_7  and  N_8 
REMARK       I    between atoms: N_8  and  C_9 
REMARK    3  A    between atoms: C_9  and  C_10 
REMARK    4  A    between atoms: C_10  and  N_11 
ROOT
HETATM    1  N   UNL     1      -9.360   1.405 -34.510  1.00  0.00    -0.326 N 
HETATM    2  C   UNL     1     -10.587   1.133 -33.939  1.00  0.00     0.242 C 
HETATM    3  O   UNL     1     -10.811   0.275 -33.085  1.00  0.00    -0.271 OA
HETATM    4  H   UNL     1      -9.383   2.138 -35.219  1.00  0.00     0.169 HD
ENDROOT
BRANCH   2   5
HETATM    5  C   UNL     1     -11.758   1.901 -34.559  1.00  0.00     0.257 C 
BRANCH   5   6
HETATM    6  N   UNL     1     -12.768   2.464 -33.661  1.00  0.00    -0.224 N 
HETATM    7  N   UNL     1     -12.538   3.774 -33.177  1.00  0.00    -0.180 NA
HETATM    8  C   UNL     1     -13.500   4.420 -32.579  1.00  0.00     0.153 A 
HETATM    9  C   UNL     1     -14.799   3.834 -32.418  1.00  0.00     0.028 A 
HETATM   10  C   UNL     1     -15.006   2.559 -32.877  1.00  0.00     0.116 A 
HETATM   11  C   UNL     1     -16.025   4.314 -31.890  1.00  0.00     0.005 A 
HETATM   12  N   UNL     1     -16.309   2.222 -32.644  1.00  0.00    -0.350 N 
HETATM   13  C   UNL     1     -14.000   1.781 -33.537  1.00  0.00     0.291 A 
HETATM   14  H   UNL     1     -16.733   1.340 -32.900  1.00  0.00     0.166 HD
HETATM   15  C   UNL     1     -16.962   3.287 -32.057  1.00  0.00     0.044 A 
HETATM   16  C   UNL     1     -18.302   3.420 -31.675  1.00  0.00     0.030 A 
HETATM   17  C   UNL     1     -18.698   4.633 -31.107  1.00  0.00     0.002 A 
HETATM   18  C   UNL     1     -17.787   5.671 -30.923  1.00  0.00     0.001 A 
HETATM   19  C   UNL     1     -16.448   5.525 -31.308  1.00  0.00     0.014 A 
HETATM   20  O   UNL     1     -14.224   0.658 -33.973  1.00  0.00    -0.264 OA
ENDBRANCH   5   6
ENDBRANCH   2   5
BRANCH   1  21
HETATM   21  C   UNL     1      -8.127   0.767 -34.266  1.00  0.00     0.035 A 
HETATM   22  C   UNL     1      -7.906  -0.597 -34.482  1.00  0.00     0.044 A 
HETATM   23  C   UNL     1      -6.633  -1.165 -34.240  1.00  0.00     0.005 A 
HETATM   24  C   UNL     1      -5.606  -0.350 -33.766  1.00  0.00     0.046 A 
HETATM   25  C   UNL     1      -6.106  -2.486 -34.392  1.00  0.00     0.003 A 
HETATM   26  N   UNL     1      -4.496  -1.157 -33.602  1.00  0.00    -0.346 N 
HETATM   27  C   UNL     1      -5.804   1.022 -33.544  1.00  0.00     0.033 A 
HETATM   28  C   UNL     1      -4.769  -2.456 -33.992  1.00  0.00     0.046 A 
HETATM   29  C   UNL     1      -3.960  -3.605 -34.028  1.00  0.00     0.030 A 
HETATM   30  C   UNL     1      -4.528  -4.799 -34.483  1.00  0.00     0.002 A 
HETATM   31  C   UNL     1      -5.857  -4.851 -34.886  1.00  0.00     0.001 A 
HETATM   32  C   UNL     1      -6.655  -3.704 -34.844  1.00  0.00     0.014 A 
HETATM   33  C   UNL     1      -7.073   1.560 -33.806  1.00  0.00     0.032 A 
BRANCH  26  34
HETATM   34  C   UNL     1      -3.214  -0.713 -33.076  1.00  0.00     0.125 C 
HETATM   35  C   UNL     1      -3.202  -0.645 -31.559  1.00  0.00     0.027 C 
ENDBRANCH  26  34
ENDBRANCH   1  21
TORSDOF 4
ENDMDL
MODEL 2
REMARK VINA RESULT:     -10.3      7.116     11.795
REMARK  4 active torsions:
REMARK  status: ('A' for Active; 'I' for Inactive)
REMARK    1  A    between atoms: C_2  and  N_3 
REMARK    2  A    between atoms: C_7  and  N_8 
REMARK       I    between atoms: N_8  and  C_9 
REMARK    3  A    between atoms: C_9  and  C_10 
REMARK    4  A    between atoms: C_10  and  N_11 
ROOT
HETATM    1  N   UNL     1      -2.741   3.337 -31.925  1.00  0.00    -0.326 N 
HETATM    2  C   UNL     1      -2.409   4.531 -32.533  1.00  0.00     0.242 C 
HETATM    3  O   UNL     1      -3.103   5.145 -33.343  1.00  0.00    -0.271 OA
HETATM    4  H   UNL     1      -2.022   2.972 -31.301  1.00  0.00     0.169 HD
ENDROOT
BRANCH   2   5
HETATM    5  C   UNL     1      -0.986   5.016 -32.241  1.00  0.00     0.257 C 
BRANCH   5   6
HETATM    6  N   UNL     1      -0.700   5.558 -30.911  1.00  0.00    -0.224 N 
HETATM    7  N   UNL     1       0.211   4.833 -30.105  1.00  0.00    -0.180 NA
HETATM    8  C   UNL     1       0.692   5.380 -29.023  1.00  0.00     0.153 A 
HETATM    9  C   UNL     1       0.329   6.714 -28.642  1.00  0.00     0.028 A 
HETATM   10  C   UNL     1      -0.564   7.401 -29.422  1.00  0.00     0.116 A 
HETATM   11  C   UNL     1       0.740   7.571 -27.588  1.00  0.00     0.005 A 
HETATM   12  N   UNL     1      -0.737   8.645 -28.887  1.00  0.00    -0.350 N 
HETATM   13  C   UNL     1      -1.143   6.868 -30.619  1.00  0.00     0.291 A 
HETATM   14  H   UNL     1      -1.333   9.364 -29.276  1.00  0.00     0.166 HD
HETATM   15  C   UNL     1       0.066   8.784 -27.773  1.00  0.00     0.044 A 
HETATM   16  C   UNL     1       0.251   9.886 -26.930  1.00  0.00     0.030 A 
HETATM   17  C   UNL     1       1.149   9.746 -25.869  1.00  0.00     0.002 A 
HETATM   18  C   UNL     1       1.830   8.550 -25.655  1.00  0.00     0.001 A 
HETATM   19  C   UNL     1       1.634   7.454 -26.506  1.00  0.00     0.014 A 
HETATM   20  O   UNL     1      -1.910   7.519 -31.320  1.00  0.00    -0.264 OA
ENDBRANCH   5   6
ENDBRANCH   2   5
BRANCH   1  21
HETATM   21  C   UNL     1      -3.906   2.563 -32.106  1.00  0.00     0.035 A 
HETATM   22  C   UNL     1      -3.930   1.355 -32.811  1.00  0.00     0.044 A 
HETATM   23  C   UNL     1      -5.132   0.618 -32.930  1.00  0.00     0.005 A 
HETATM   24  C   UNL     1      -6.296   1.122 -32.351  1.00  0.00     0.046 A 
HETATM   25  C   UNL     1      -5.457  -0.631 -33.545  1.00  0.00     0.003 A 
HETATM   26  N   UNL     1      -7.307   0.222 -32.633  1.00  0.00    -0.346 N 
HETATM   27  C   UNL     1      -6.295   2.331 -31.637  1.00  0.00     0.033 A 
HETATM   28  C   UNL     1      -6.819  -0.859 -33.344  1.00  0.00     0.046 A 
HETATM   29  C   UNL     1      -7.454  -2.018 -33.826  1.00  0.00     0.030 A 
HETATM   30  C   UNL     1      -6.683  -2.954 -34.521  1.00  0.00     0.002 A 
HETATM   31  C   UNL     1      -5.325  -2.746 -34.733  1.00  0.00     0.001 A 
HETATM   32  C   UNL     1      -4.702  -1.590 -34.253  1.00  0.00     0.014 A 
HETATM   33  C   UNL     1      -5.086   3.033 -31.523  1.00  0.00     0.032 A 
BRANCH  26  34
HETATM   34  C   UNL     1      -8.701   0.391 -32.253  1.00  0.00     0.125 C 
HETATM   35  C   UNL     1      -9.541   0.975 -33.375  1.00  0.00     0.027 C 
ENDBRANCH  26  34
ENDBRANCH   1  21
TORSDOF 4
ENDMDL
MODEL 3
REMARK VINA RESULT:     -10.2      5.794      9.094
REMARK  4 active torsions:
REMARK  status: ('A' for Active; 'I' for Inactive)
REMARK    1  A    between atoms: C_2  and  N_3 
REMARK    2  A    between atoms: C_7  and  N_8 
REMARK       I    between atoms: N_8  and  C_9 
REMARK    3  A    between atoms: C_9  and  C_10 
REMARK    4  A    between atoms: C_10  and  N_11 
ROOT
HETATM    1  N   UNL     1      -6.376   2.689 -33.358  1.00  0.00    -0.326 N 
HETATM    2  C   UNL     1      -7.429   3.221 -32.641  1.00  0.00     0.242 C 
HETATM    3  O   UNL     1      -8.372   2.587 -32.167  1.00  0.00    -0.271 OA
HETATM    4  H   UNL     1      -5.705   3.381 -33.689  1.00  0.00     0.169 HD
ENDROOT
BRANCH   2   5
HETATM    5  C   UNL     1      -7.444   4.750 -32.580  1.00  0.00     0.257 C 
BRANCH   5   6
HETATM    6  N   UNL     1      -6.236   5.435 -32.115  1.00  0.00    -0.224 N 
HETATM    7  N   UNL     1      -6.073   5.569 -30.714  1.00  0.00    -0.180 NA
HETATM    8  C   UNL     1      -4.922   5.944 -30.231  1.00  0.00     0.153 A 
HETATM    9  C   UNL     1      -3.806   6.206 -31.093  1.00  0.00     0.028 A 
HETATM   10  C   UNL     1      -3.979   6.088 -32.447  1.00  0.00     0.116 A 
HETATM   11  C   UNL     1      -2.450   6.548 -30.852  1.00  0.00     0.005 A 
HETATM   12  N   UNL     1      -2.788   6.355 -33.060  1.00  0.00    -0.350 N 
HETATM   13  C   UNL     1      -5.213   5.690 -33.056  1.00  0.00     0.291 A 
HETATM   14  H   UNL     1      -2.632   6.323 -34.059  1.00  0.00     0.166 HD
HETATM   15  C   UNL     1      -1.828   6.621 -32.105  1.00  0.00     0.044 A 
HETATM   16  C   UNL     1      -0.466   6.908 -32.255  1.00  0.00     0.030 A 
HETATM   17  C   UNL     1       0.282   7.126 -31.095  1.00  0.00     0.002 A 
HETATM   18  C   UNL     1      -0.310   7.066 -29.836  1.00  0.00     0.001 A 
HETATM   19  C   UNL     1      -1.674   6.779 -29.699  1.00  0.00     0.014 A 
HETATM   20  O   UNL     1      -5.330   5.553 -34.269  1.00  0.00    -0.264 OA
ENDBRANCH   5   6
ENDBRANCH   2   5
BRANCH   1  21
HETATM   21  C   UNL     1      -6.160   1.343 -33.717  1.00  0.00     0.035 A 
HETATM   22  C   UNL     1      -5.243   0.508 -33.071  1.00  0.00     0.044 A 
HETATM   23  C   UNL     1      -5.097  -0.843 -33.468  1.00  0.00     0.005 A 
HETATM   24  C   UNL     1      -5.868  -1.325 -34.525  1.00  0.00     0.046 A 
HETATM   25  C   UNL     1      -4.288  -1.920 -32.992  1.00  0.00     0.003 A 
HETATM   26  N   UNL     1      -5.514  -2.648 -34.709  1.00  0.00    -0.346 N 
HETATM   27  C   UNL     1      -6.796  -0.505 -35.187  1.00  0.00     0.033 A 
HETATM   28  C   UNL     1      -4.568  -3.039 -33.779  1.00  0.00     0.046 A 
HETATM   29  C   UNL     1      -3.934  -4.275 -33.561  1.00  0.00     0.030 A 
HETATM   30  C   UNL     1      -3.004  -4.366 -32.521  1.00  0.00     0.002 A 
HETATM   31  C   UNL     1      -2.710  -3.265 -31.725  1.00  0.00     0.001 A 
HETATM   32  C   UNL     1      -3.343  -2.039 -31.951  1.00  0.00     0.014 A 
HETATM   33  C   UNL     1      -6.929   0.825 -34.763  1.00  0.00     0.032 A 
BRANCH  26  34
HETATM   34  C   UNL     1      -6.047  -3.515 -35.749  1.00  0.00     0.125 C 
HETATM   35  C   UNL     1      -7.037  -4.530 -35.206  1.00  0.00     0.027 C 
ENDBRANCH  26  34
ENDBRANCH   1  21
TORSDOF 4
ENDMDL
MODEL 4
REMARK VINA RESULT:     -10.0      6.104     10.731
REMARK  4 active torsions:
REMARK  status: ('A' for Active; 'I' for Inactive)
REMARK    1  A    between atoms: C_2  and  N_3 
REMARK    2  A    between atoms: C_7  and  N_8 
REMARK       I    between atoms: N_8  and  C_9 
REMARK    3  A    between atoms: C_9  and  C_10 
REMARK    4  A    between atoms: C_10  and  N_11 
ROOT
HETATM    1  N   UNL     1      -5.763   3.820 -32.189  1.00  0.00    -0.326 N 
HETATM    2  C   UNL     1      -6.348   3.814 -33.440  1.00  0.00     0.242 C 
HETATM    3  O   UNL     1      -6.387   4.764 -34.221  1.00  0.00    -0.271 OA
HETATM    4  H   UNL     1      -5.856   2.941 -31.681  1.00  0.00     0.169 HD
ENDROOT
BRANCH   2   5
HETATM    5  C   UNL     1      -7.117   2.533 -33.773  1.00  0.00     0.257 C 
BRANCH   5   6
HETATM    6  N   UNL     1      -6.354   1.295 -33.949  1.00  0.00    -0.224 N 
HETATM    7  N   UNL     1      -5.185   1.145 -33.165  1.00  0.00    -0.180 NA
HETATM    8  C   UNL     1      -4.601  -0.019 -33.092  1.00  0.00     0.153 A 
HETATM    9  C   UNL     1      -5.134  -1.160 -33.778  1.00  0.00     0.028 A 
HETATM   10  C   UNL     1      -6.258  -1.000 -34.545  1.00  0.00     0.116 A 
HETATM   11  C   UNL     1      -4.765  -2.529 -33.821  1.00  0.00     0.005 A 
HETATM   12  N   UNL     1      -6.596  -2.212 -35.075  1.00  0.00    -0.350 N 
HETATM   13  C   UNL     1      -6.952   0.246 -34.684  1.00  0.00     0.291 A 
HETATM   14  H   UNL     1      -7.397  -2.381 -35.669  1.00  0.00     0.166 HD
HETATM   15  C   UNL     1      -5.709  -3.172 -34.631  1.00  0.00     0.044 A 
HETATM   16  C   UNL     1      -5.678  -4.550 -34.877  1.00  0.00     0.030 A 
HETATM   17  C   UNL     1      -4.657  -5.292 -34.278  1.00  0.00     0.002 A 
HETATM   18  C   UNL     1      -3.701  -4.680 -33.472  1.00  0.00     0.001 A 
HETATM   19  C   UNL     1      -3.742  -3.300 -33.235  1.00  0.00     0.014 A 
HETATM   20  O   UNL     1      -7.979   0.353 -35.345  1.00  0.00    -0.264 OA
ENDBRANCH   5   6
ENDBRANCH   2   5
BRANCH   1  21
HETATM   21  C   UNL     1      -5.117   4.889 -31.536  1.00  0.00     0.035 A 
HETATM   22  C   UNL     1      -3.751   4.900 -31.236  1.00  0.00     0.044 A 
HETATM   23  C   UNL     1      -3.164   6.020 -30.602  1.00  0.00     0.005 A 
HETATM   24  C   UNL     1      -3.970   7.106 -30.262  1.00  0.00     0.046 A 
HETATM   25  C   UNL     1      -1.826   6.331 -30.206  1.00  0.00     0.003 A 
HETATM   26  N   UNL     1      -3.153   8.036 -29.647  1.00  0.00    -0.346 N 
HETATM   27  C   UNL     1      -5.343   7.117 -30.554  1.00  0.00     0.033 A 
HETATM   28  C   UNL     1      -1.842   7.596 -29.616  1.00  0.00     0.046 A 
HETATM   29  C   UNL     1      -0.671   8.197 -29.122  1.00  0.00     0.030 A 
HETATM   30  C   UNL     1       0.532   7.495 -29.237  1.00  0.00     0.002 A 
HETATM   31  C   UNL     1       0.571   6.234 -29.821  1.00  0.00     0.001 A 
HETATM   32  C   UNL     1      -0.599   5.642 -30.307  1.00  0.00     0.014 A 
HETATM   33  C   UNL     1      -5.895   5.999 -31.196  1.00  0.00     0.032 A 
BRANCH  26  34
HETATM   34  C   UNL     1      -3.605   9.302 -29.090  1.00  0.00     0.125 C 
HETATM   35  C   UNL     1      -3.565  10.430 -30.106  1.00  0.00     0.027 C 
ENDBRANCH  26  34
ENDBRANCH   1  21
TORSDOF 4
ENDMDL
MODEL 5
REMARK VINA RESULT:      -9.9      7.372     11.767
REMARK  4 active torsions:
REMARK  status: ('A' for Active; 'I' for Inactive)
REMARK    1  A    between atoms: C_2  and  N_3 
REMARK    2  A    between atoms: C_7  and  N_8 
REMARK       I    between atoms: N_8  and  C_9 
REMARK    3  A    between atoms: C_9  and  C_10 
REMARK    4  A    between atoms: C_10  and  N_11 
ROOT
HETATM    1  N   UNL     1      -3.235   5.159 -32.629  1.00  0.00    -0.326 N 
HETATM    2  C   UNL     1      -3.013   6.068 -33.642  1.00  0.00     0.242 C 
HETATM    3  O   UNL     1      -3.433   5.980 -34.796  1.00  0.00    -0.271 OA
HETATM    4  H   UNL     1      -2.781   5.396 -31.748  1.00  0.00     0.169 HD
ENDROOT
BRANCH   2   5
HETATM    5  C   UNL     1      -2.038   7.192 -33.281  1.00  0.00     0.257 C 
BRANCH   5   6
HETATM    6  N   UNL     1      -1.549   7.266 -31.903  1.00  0.00    -0.224 N 
HETATM    7  N   UNL     1      -0.429   6.464 -31.575  1.00  0.00    -0.180 NA
HETATM    8  C   UNL     1       0.201   6.661 -30.451  1.00  0.00     0.153 A 
HETATM    9  C   UNL     1      -0.209   7.693 -29.543  1.00  0.00     0.028 A 
HETATM   10  C   UNL     1      -1.303   8.454 -29.863  1.00  0.00     0.116 A 
HETATM   11  C   UNL     1       0.316   8.174 -28.316  1.00  0.00     0.005 A 
HETATM   12  N   UNL     1      -1.488   9.380 -28.877  1.00  0.00    -0.350 N 
HETATM   13  C   UNL     1      -2.053   8.294 -31.073  1.00  0.00     0.291 A 
HETATM   14  H   UNL     1      -2.218  10.081 -28.872  1.00  0.00     0.166 HD
HETATM   15  C   UNL     1      -0.498   9.244 -27.925  1.00  0.00     0.044 A 
HETATM   16  C   UNL     1      -0.259   9.989 -26.765  1.00  0.00     0.030 A 
HETATM   17  C   UNL     1       0.841   9.632 -25.980  1.00  0.00     0.002 A 
HETATM   18  C   UNL     1       1.665   8.568 -26.340  1.00  0.00     0.001 A 
HETATM   19  C   UNL     1       1.414   7.830 -27.503  1.00  0.00     0.014 A 
HETATM   20  O   UNL     1      -3.004   9.014 -31.353  1.00  0.00    -0.264 OA
ENDBRANCH   5   6
ENDBRANCH   2   5
BRANCH   1  21
HETATM   21  C   UNL     1      -3.956   3.948 -32.689  1.00  0.00     0.035 A 
HETATM   22  C   UNL     1      -5.309   3.870 -33.036  1.00  0.00     0.044 A 
HETATM   23  C   UNL     1      -5.962   2.617 -33.102  1.00  0.00     0.005 A 
HETATM   24  C   UNL     1      -5.244   1.462 -32.797  1.00  0.00     0.046 A 
HETATM   25  C   UNL     1      -7.292   2.224 -33.447  1.00  0.00     0.003 A 
HETATM   26  N   UNL     1      -6.120   0.400 -32.921  1.00  0.00    -0.346 N 
HETATM   27  C   UNL     1      -3.885   1.516 -32.447  1.00  0.00     0.033 A 
HETATM   28  C   UNL     1      -7.366   0.835 -33.332  1.00  0.00     0.046 A 
HETATM   29  C   UNL     1      -8.551   0.131 -33.612  1.00  0.00     0.030 A 
HETATM   30  C   UNL     1      -9.673   0.860 -34.017  1.00  0.00     0.002 A 
HETATM   31  C   UNL     1      -9.621   2.244 -34.139  1.00  0.00     0.001 A 
HETATM   32  C   UNL     1      -8.440   2.936 -33.856  1.00  0.00     0.014 A 
HETATM   33  C   UNL     1      -3.260   2.770 -32.404  1.00  0.00     0.032 A 
BRANCH  26  34
HETATM   34  C   UNL     1      -5.788  -0.989 -32.643  1.00  0.00     0.125 C 
HETATM   35  C   UNL     1      -5.274  -1.720 -33.871  1.00  0.00     0.027 C 
ENDBRANCH  26  34
ENDBRANCH   1  21
TORSDOF 4
ENDMDL
MODEL 6
REMARK VINA RESULT:      -9.9      6.916     11.467
REMARK  4 active torsions:
REMARK  status: ('A' for Active; 'I' for Inactive)
REMARK    1  A    between atoms: C_2  and  N_3 
REMARK    2  A    between atoms: C_7  and  N_8 
REMARK       I    between atoms: N_8  and  C_9 
REMARK    3  A    between atoms: C_9  and  C_10 
REMARK    4  A    between atoms: C_10  and  N_11 
ROOT
HETATM    1  N   UNL     1      -4.092   5.436 -33.028  1.00  0.00    -0.326 N 
HETATM    2  C   UNL     1      -3.382   5.953 -34.093  1.00  0.00     0.242 C 
HETATM    3  O   UNL     1      -3.576   5.698 -35.281  1.00  0.00    -0.271 OA
HETATM    4  H   UNL     1      -3.764   5.750 -32.115  1.00  0.00     0.169 HD
ENDROOT
BRANCH   2   5
HETATM    5  C   UNL     1      -2.174   6.804 -33.694  1.00  0.00     0.257 C 
BRANCH   5   6
HETATM    6  N   UNL     1      -1.764   6.805 -32.288  1.00  0.00    -0.224 N 
HETATM    7  N   UNL     1      -0.899   5.764 -31.871  1.00  0.00    -0.180 NA
HETATM    8  C   UNL     1      -0.307   5.841 -30.712  1.00  0.00     0.153 A 
HETATM    9  C   UNL     1      -0.501   6.974 -29.854  1.00  0.00     0.028 A 
HETATM   10  C   UNL     1      -1.351   7.969 -30.261  1.00  0.00     0.116 A 
HETATM   11  C   UNL     1       0.054   7.356 -28.605  1.00  0.00     0.005 A 
HETATM   12  N   UNL     1      -1.358   8.948 -29.309  1.00  0.00    -0.350 N 
HETATM   13  C   UNL     1      -2.045   7.955 -31.515  1.00  0.00     0.291 A 
HETATM   14  H   UNL     1      -1.890   9.806 -29.366  1.00  0.00     0.166 HD
HETATM   15  C   UNL     1      -0.491   8.607 -28.292  1.00  0.00     0.044 A 
HETATM   16  C   UNL     1      -0.143   9.312 -27.133  1.00  0.00     0.030 A 
HETATM   17  C   UNL     1       0.786   8.723 -26.271  1.00  0.00     0.002 A 
HETATM   18  C   UNL     1       1.340   7.477 -26.553  1.00  0.00     0.001 A 
HETATM   19  C   UNL     1       0.983   6.781 -27.715  1.00  0.00     0.014 A 
HETATM   20  O   UNL     1      -2.769   8.877 -31.872  1.00  0.00    -0.264 OA
ENDBRANCH   5   6
ENDBRANCH   2   5
BRANCH   1  21
HETATM   21  C   UNL     1      -5.155   4.509 -33.059  1.00  0.00     0.035 A 
HETATM   22  C   UNL     1      -4.989   3.152 -33.352  1.00  0.00     0.044 A 
HETATM   23  C   UNL     1      -6.098   2.274 -33.338  1.00  0.00     0.005 A 
HETATM   24  C   UNL     1      -7.363   2.784 -33.048  1.00  0.00     0.046 A 
HETATM   25  C   UNL     1      -6.236   0.868 -33.560  1.00  0.00     0.003 A 
HETATM   26  N   UNL     1      -8.250   1.727 -33.123  1.00  0.00    -0.346 N 
HETATM   27  C   UNL     1      -7.553   4.143 -32.750  1.00  0.00     0.033 A 
HETATM   28  C   UNL     1      -7.587   0.548 -33.416  1.00  0.00     0.046 A 
HETATM   29  C   UNL     1      -8.056  -0.769 -33.566  1.00  0.00     0.030 A 
HETATM   30  C   UNL     1      -7.128  -1.771 -33.866  1.00  0.00     0.002 A 
HETATM   31  C   UNL     1      -5.778  -1.474 -34.013  1.00  0.00     0.001 A 
HETATM   32  C   UNL     1      -5.321  -0.162 -33.865  1.00  0.00     0.014 A 
HETATM   33  C   UNL     1      -6.433   4.987 -32.756  1.00  0.00     0.032 A 
BRANCH  26  34
HETATM   34  C   UNL     1      -9.689   1.833 -32.937  1.00  0.00     0.125 C 
HETATM   35  C   UNL     1     -10.429   2.044 -34.246  1.00  0.00     0.027 C 
ENDBRANCH  26  34
ENDBRANCH   1  21
TORSDOF 4
ENDMDL
MODEL 7
REMARK VINA RESULT:      -9.8      7.431     10.999
REMARK  4 active torsions:
REMARK  status: ('A' for Active; 'I' for Inactive)
REMARK    1  A    between atoms: C_2  and  N_3 
REMARK    2  A    between atoms: C_7  and  N_8 
REMARK       I    between atoms: N_8  and  C_9 
REMARK    3  A    between atoms: C_9  and  C_10 
REMARK    4  A    between atoms: C_10  and  N_11 
ROOT
HETATM    1  N   UNL     1      -2.944   3.651 -31.195  1.00  0.00    -0.326 N 
HETATM    2  C   UNL     1      -2.025   4.430 -31.869  1.00  0.00     0.242 C 
HETATM    3  O   UNL     1      -1.988   4.612 -33.085  1.00  0.00    -0.271 OA
HETATM    4  H   UNL     1      -2.794   3.605 -30.188  1.00  0.00     0.169 HD
ENDROOT
BRANCH   2   5
HETATM    5  C   UNL     1      -0.897   4.979 -30.991  1.00  0.00     0.257 C 
BRANCH   5   6
HETATM    6  N   UNL     1      -1.195   6.113 -30.112  1.00  0.00    -0.224 N 
HETATM    7  N   UNL     1      -2.446   6.753 -30.292  1.00  0.00    -0.180 NA
HETATM    8  C   UNL     1      -2.873   7.598 -29.396  1.00  0.00     0.153 A 
HETATM    9  C   UNL     1      -2.106   7.880 -28.218  1.00  0.00     0.028 A 
HETATM   10  C   UNL     1      -0.890   7.267 -28.061  1.00  0.00     0.116 A 
HETATM   11  C   UNL     1      -2.345   8.677 -27.068  1.00  0.00     0.005 A 
HETATM   12  N   UNL     1      -0.358   7.660 -26.867  1.00  0.00    -0.350 N 
HETATM   13  C   UNL     1      -0.348   6.333 -29.003  1.00  0.00     0.291 A 
HETATM   14  H   UNL     1       0.528   7.343 -26.496  1.00  0.00     0.166 HD
HETATM   15  C   UNL     1      -1.238   8.509 -26.228  1.00  0.00     0.044 A 
HETATM   16  C   UNL     1      -1.141   9.128 -24.975  1.00  0.00     0.030 A 
HETATM   17  C   UNL     1      -2.204   9.939 -24.569  1.00  0.00     0.002 A 
HETATM   18  C   UNL     1      -3.316  10.129 -25.386  1.00  0.00     0.001 A 
HETATM   19  C   UNL     1      -3.400   9.506 -26.637  1.00  0.00     0.014 A 
HETATM   20  O   UNL     1       0.725   5.768 -28.819  1.00  0.00    -0.264 OA
ENDBRANCH   5   6
ENDBRANCH   2   5
BRANCH   1  21
HETATM   21  C   UNL     1      -4.003   2.893 -31.734  1.00  0.00     0.035 A 
HETATM   22  C   UNL     1      -3.839   1.620 -32.292  1.00  0.00     0.044 A 
HETATM   23  C   UNL     1      -4.953   0.905 -32.791  1.00  0.00     0.005 A 
HETATM   24  C   UNL     1      -6.215   1.495 -32.738  1.00  0.00     0.046 A 
HETATM   25  C   UNL     1      -5.102  -0.391 -33.375  1.00  0.00     0.003 A 
HETATM   26  N   UNL     1      -7.101   0.597 -33.302  1.00  0.00    -0.346 N 
HETATM   27  C   UNL     1      -6.405   2.770 -32.181  1.00  0.00     0.033 A 
HETATM   28  C   UNL     1      -6.452  -0.563 -33.682  1.00  0.00     0.046 A 
HETATM   29  C   UNL     1      -6.932  -1.748 -34.268  1.00  0.00     0.030 A 
HETATM   30  C   UNL     1      -6.017  -2.769 -34.540  1.00  0.00     0.002 A 
HETATM   31  C   UNL     1      -4.668  -2.619 -34.242  1.00  0.00     0.001 A 
HETATM   32  C   UNL     1      -4.199  -1.436 -33.663  1.00  0.00     0.014 A 
HETATM   33  C   UNL     1      -5.284   3.449 -31.681  1.00  0.00     0.032 A 
BRANCH  26  34
HETATM   34  C   UNL     1      -8.524   0.839 -33.491  1.00  0.00     0.125 C 
HETATM   35  C   UNL     1      -9.358   0.328 -32.329  1.00  0.00     0.027 C 
ENDBRANCH  26  34
ENDBRANCH   1  21
TORSDOF 4
ENDMDL
MODEL 8
REMARK VINA RESULT:      -9.8      3.458      4.619
REMARK  4 active torsions:
REMARK  status: ('A' for Active; 'I' for Inactive)
REMARK    1  A    between atoms: C_2  and  N_3 
REMARK    2  A    between atoms: C_7  and  N_8 
REMARK       I    between atoms: N_8  and  C_9 
REMARK    3  A    between atoms: C_9  and  C_10 
REMARK    4  A    between atoms: C_10  and  N_11 
ROOT
HETATM    1  N   UNL     1      -9.151   2.016 -33.841  1.00  0.00    -0.326 N 
HETATM    2  C   UNL     1      -9.950   2.472 -32.812  1.00  0.00     0.242 C 
HETATM    3  O   UNL     1      -9.749   2.297 -31.611  1.00  0.00    -0.271 OA
HETATM    4  H   UNL     1      -9.499   2.242 -34.772  1.00  0.00     0.169 HD
ENDROOT
BRANCH   2   5
HETATM    5  C   UNL     1     -11.257   3.127 -33.269  1.00  0.00     0.257 C 
BRANCH   5   6
HETATM    6  N   UNL     1     -11.185   4.449 -33.894  1.00  0.00    -0.224 N 
HETATM    7  N   UNL     1      -9.906   4.898 -34.301  1.00  0.00    -0.180 NA
HETATM    8  C   UNL     1      -9.803   5.943 -35.074  1.00  0.00     0.153 A 
HETATM    9  C   UNL     1     -10.968   6.639 -35.538  1.00  0.00     0.028 A 
HETATM   10  C   UNL     1     -12.201   6.204 -35.127  1.00  0.00     0.116 A 
HETATM   11  C   UNL     1     -11.162   7.731 -36.423  1.00  0.00     0.005 A 
HETATM   12  N   UNL     1     -13.153   6.991 -35.709  1.00  0.00    -0.350 N 
HETATM   13  C   UNL     1     -12.397   5.071 -34.272  1.00  0.00     0.291 A 
HETATM   14  H   UNL     1     -14.151   6.877 -35.587  1.00  0.00     0.166 HD
HETATM   15  C   UNL     1     -12.545   7.923 -36.524  1.00  0.00     0.044 A 
HETATM   16  C   UNL     1     -13.112   8.906 -37.345  1.00  0.00     0.030 A 
HETATM   17  C   UNL     1     -12.243   9.715 -38.082  1.00  0.00     0.002 A 
HETATM   18  C   UNL     1     -10.862   9.551 -37.997  1.00  0.00     0.001 A 
HETATM   19  C   UNL     1     -10.308   8.565 -37.172  1.00  0.00     0.014 A 
HETATM   20  O   UNL     1     -13.513   4.680 -33.950  1.00  0.00    -0.264 OA
ENDBRANCH   5   6
ENDBRANCH   2   5
BRANCH   1  21
HETATM   21  C   UNL     1      -7.970   1.251 -33.751  1.00  0.00     0.035 A 
HETATM   22  C   UNL     1      -7.906  -0.113 -34.057  1.00  0.00     0.044 A 
HETATM   23  C   UNL     1      -6.679  -0.812 -33.969  1.00  0.00     0.005 A 
HETATM   24  C   UNL     1      -5.537  -0.126 -33.556  1.00  0.00     0.046 A 
HETATM   25  C   UNL     1      -6.302  -2.164 -34.238  1.00  0.00     0.003 A 
HETATM   26  N   UNL     1      -4.503  -1.043 -33.542  1.00  0.00    -0.346 N 
HETATM   27  C   UNL     1      -5.577   1.242 -33.246  1.00  0.00     0.033 A 
HETATM   28  C   UNL     1      -4.938  -2.284 -33.969  1.00  0.00     0.046 A 
HETATM   29  C   UNL     1      -4.254  -3.500 -34.142  1.00  0.00     0.030 A 
HETATM   30  C   UNL     1      -4.977  -4.606 -34.599  1.00  0.00     0.002 A 
HETATM   31  C   UNL     1      -6.336  -4.509 -34.874  1.00  0.00     0.001 A 
HETATM   32  C   UNL     1      -7.009  -3.297 -34.696  1.00  0.00     0.014 A 
HETATM   33  C   UNL     1      -6.804   1.912 -33.356  1.00  0.00     0.032 A 
BRANCH  26  34
HETATM   34  C   UNL     1      -3.140  -0.753 -33.121  1.00  0.00     0.125 C 
HETATM   35  C   UNL     1      -2.989  -0.746 -31.610  1.00  0.00     0.027 C 
ENDBRANCH  26  34
ENDBRANCH   1  21
TORSDOF 4
ENDMDL
MODEL 9
REMARK VINA RESULT:      -9.7      7.234     11.592
REMARK  4 active torsions:
REMARK  status: ('A' for Active; 'I' for Inactive)
REMARK    1  A    between atoms: C_2  and  N_3 
REMARK    2  A    between atoms: C_7  and  N_8 
REMARK       I    between atoms: N_8  and  C_9 
REMARK    3  A    between atoms: C_9  and  C_10 
REMARK    4  A    between atoms: C_10  and  N_11 
ROOT
HETATM    1  N   UNL     1      -4.754   5.812 -30.844  1.00  0.00    -0.326 N 
HETATM    2  C   UNL     1      -5.199   4.505 -30.867  1.00  0.00     0.242 C 
HETATM    3  O   UNL     1      -5.172   3.718 -29.922  1.00  0.00    -0.271 OA
HETATM    4  H   UNL     1      -4.838   6.297 -31.737  1.00  0.00     0.169 HD
ENDROOT
BRANCH   2   5
HETATM    5  C   UNL     1      -5.622   4.005 -32.251  1.00  0.00     0.257 C 
BRANCH   5   6
HETATM    6  N   UNL     1      -5.822   2.566 -32.434  1.00  0.00    -0.224 N 
HETATM    7  N   UNL     1      -7.147   2.128 -32.676  1.00  0.00    -0.180 NA
HETATM    8  C   UNL     1      -7.359   0.908 -33.086  1.00  0.00     0.153 A 
HETATM    9  C   UNL     1      -6.270   0.003 -33.315  1.00  0.00     0.028 A 
HETATM   10  C   UNL     1      -4.994   0.433 -33.063  1.00  0.00     0.116 A 
HETATM   11  C   UNL     1      -6.195  -1.322 -33.817  1.00  0.00     0.005 A 
HETATM   12  N   UNL     1      -4.128  -0.577 -33.375  1.00  0.00    -0.350 N 
HETATM   13  C   UNL     1      -4.678   1.753 -32.604  1.00  0.00     0.291 A 
HETATM   14  H   UNL     1      -3.121  -0.519 -33.298  1.00  0.00     0.166 HD
HETATM   15  C   UNL     1      -4.837  -1.658 -33.858  1.00  0.00     0.044 A 
HETATM   16  C   UNL     1      -4.379  -2.892 -34.334  1.00  0.00     0.030 A 
HETATM   17  C   UNL     1      -5.334  -3.809 -34.780  1.00  0.00     0.002 A 
HETATM   18  C   UNL     1      -6.693  -3.506 -34.745  1.00  0.00     0.001 A 
HETATM   19  C   UNL     1      -7.138  -2.268 -34.266  1.00  0.00     0.014 A 
HETATM   20  O   UNL     1      -3.524   2.124 -32.424  1.00  0.00    -0.264 OA
ENDBRANCH   5   6
ENDBRANCH   2   5
BRANCH   1  21
HETATM   21  C   UNL     1      -4.169   6.513 -29.770  1.00  0.00     0.035 A 
HETATM   22  C   UNL     1      -2.794   6.746 -29.657  1.00  0.00     0.044 A 
HETATM   23  C   UNL     1      -2.279   7.481 -28.563  1.00  0.00     0.005 A 
HETATM   24  C   UNL     1      -3.158   7.954 -27.590  1.00  0.00     0.046 A 
HETATM   25  C   UNL     1      -0.961   7.897 -28.198  1.00  0.00     0.003 A 
HETATM   26  N   UNL     1      -2.394   8.610 -26.643  1.00  0.00    -0.346 N 
HETATM   27  C   UNL     1      -4.541   7.733 -27.684  1.00  0.00     0.033 A 
HETATM   28  C   UNL     1      -1.057   8.604 -26.999  1.00  0.00     0.046 A 
HETATM   29  C   UNL     1       0.074   9.157 -26.372  1.00  0.00     0.030 A 
HETATM   30  C   UNL     1       1.319   8.986 -26.985  1.00  0.00     0.002 A 
HETATM   31  C   UNL     1       1.438   8.286 -28.180  1.00  0.00     0.001 A 
HETATM   32  C   UNL     1       0.308   7.737 -28.794  1.00  0.00     0.014 A 
HETATM   33  C   UNL     1      -5.025   7.014 -28.786  1.00  0.00     0.032 A 
BRANCH  26  34
HETATM   34  C   UNL     1      -2.915   9.213 -25.426  1.00  0.00     0.125 C 
HETATM   35  C   UNL     1      -2.962   8.233 -24.267  1.00  0.00     0.027 C 
ENDBRANCH  26  34
ENDBRANCH   1  21
TORSDOF 4
ENDMDL
MODEL 10
REMARK VINA RESULT:      -9.1      7.395     11.259
REMARK  4 active torsions:
REMARK  status: ('A' for Active; 'I' for Inactive)
REMARK    1  A    between atoms: C_2  and  N_3 
REMARK    2  A    between atoms: C_7  and  N_8 
REMARK       I    between atoms: N_8  and  C_9 
REMARK    3  A    between atoms: C_9  and  C_10 
REMARK    4  A    between atoms: C_10  and  N_11 
ROOT
HETATM    1  N   UNL     1      -6.622   4.636 -29.083  1.00  0.00    -0.326 N 
HETATM    2  C   UNL     1      -6.726   6.007 -29.198  1.00  0.00     0.242 C 
HETATM    3  O   UNL     1      -7.144   6.619 -30.181  1.00  0.00    -0.271 OA
HETATM    4  H   UNL     1      -6.227   4.320 -28.198  1.00  0.00     0.169 HD
ENDROOT
BRANCH   2   5
HETATM    5  C   UNL     1      -6.126   6.788 -28.026  1.00  0.00     0.257 C 
BRANCH   5   6
HETATM    6  N   UNL     1      -4.667   6.850 -27.912  1.00  0.00    -0.224 N 
HETATM    7  N   UNL     1      -3.923   6.702 -29.107  1.00  0.00    -0.180 NA
HETATM    8  C   UNL     1      -2.650   6.987 -29.116  1.00  0.00     0.153 A 
HETATM    9  C   UNL     1      -1.991   7.468 -27.937  1.00  0.00     0.028 A 
HETATM   10  C   UNL     1      -2.717   7.593 -26.781  1.00  0.00     0.116 A 
HETATM   11  C   UNL     1      -0.670   7.917 -27.675  1.00  0.00     0.005 A 
HETATM   12  N   UNL     1      -1.898   8.089 -25.807  1.00  0.00    -0.350 N 
HETATM   13  C   UNL     1      -4.115   7.293 -26.688  1.00  0.00     0.291 A 
HETATM   14  H   UNL     1      -2.186   8.293 -24.859  1.00  0.00     0.166 HD
HETATM   15  C   UNL     1      -0.642   8.315 -26.333  1.00  0.00     0.044 A 
HETATM   16  C   UNL     1       0.502   8.847 -25.728  1.00  0.00     0.030 A 
HETATM   17  C   UNL     1       1.650   8.977 -26.514  1.00  0.00     0.002 A 
HETATM   18  C   UNL     1       1.655   8.583 -27.850  1.00  0.00     0.001 A 
HETATM   19  C   UNL     1       0.503   8.051 -28.443  1.00  0.00     0.014 A 
HETATM   20  O   UNL     1      -4.750   7.451 -25.652  1.00  0.00    -0.264 OA
ENDBRANCH   5   6
ENDBRANCH   2   5
BRANCH   1  21
HETATM   21  C   UNL     1      -6.942   3.655 -30.045  1.00  0.00     0.035 A 
HETATM   22  C   UNL     1      -6.009   2.760 -30.578  1.00  0.00     0.044 A 
HETATM   23  C   UNL     1      -6.408   1.784 -31.521  1.00  0.00     0.005 A 
HETATM   24  C   UNL     1      -7.741   1.739 -31.927  1.00  0.00     0.046 A 
HETATM   25  C   UNL     1      -5.710   0.740 -32.203  1.00  0.00     0.003 A 
HETATM   26  N   UNL     1      -7.844   0.718 -32.853  1.00  0.00    -0.346 N 
HETATM   27  C   UNL     1      -8.696   2.626 -31.404  1.00  0.00     0.033 A 
HETATM   28  C   UNL     1      -6.627   0.085 -33.026  1.00  0.00     0.046 A 
HETATM   29  C   UNL     1      -6.253  -1.005 -33.832  1.00  0.00     0.030 A 
HETATM   30  C   UNL     1      -4.921  -1.430 -33.792  1.00  0.00     0.002 A 
HETATM   31  C   UNL     1      -3.991  -0.792 -32.980  1.00  0.00     0.001 A 
HETATM   32  C   UNL     1      -4.372   0.293 -32.184  1.00  0.00     0.014 A 
HETATM   33  C   UNL     1      -8.274   3.574 -30.460  1.00  0.00     0.032 A 
BRANCH  26  34
HETATM   34  C   UNL     1      -9.062   0.363 -33.567  1.00  0.00     0.125 C 
HETATM   35  C   UNL     1     -10.077  -0.327 -32.673  1.00  0.00     0.027 C 
ENDBRANCH  26  34
ENDBRANCH   1  21
TORSDOF 4
ENDMDL
