MODEL 1
REMARK VINA RESULT:     -10.8      0.000      0.000
REMARK  7 active torsions:
REMARK  status: ('A' for Active; 'I' for Inactive)
REMARK    1  A    between atoms: C_4  and  C_5 
REMARK    2  A    between atoms: C_5  and  C_6 
REMARK    3  A    between atoms: C_6  and  N_7 
REMARK       I    between atoms: N_7  and  C_8 
REMARK    4  A    between atoms: C_8  and  C_9 
REMARK    5  A    between atoms: C_10  and  N_11 
REMARK    6  A    between atoms: N_12  and  N_13 
REMARK    7  A    between atoms: C_14  and  C_15 
ROOT
HETATM    1  C   UNL     1      -5.087   2.023 -31.176  1.00  0.00     0.110 A 
HETATM    2  C   UNL     1      -4.838   3.371 -30.945  1.00  0.00     0.143 A 
HETATM    3  N   UNL     1      -6.043   4.068 -31.067  1.00  0.00    -0.197 N 
HETATM    4  C   UNL     1      -7.006   3.184 -31.517  1.00  0.00     0.183 A 
HETATM    5  C   UNL     1      -6.441   1.915 -31.570  1.00  0.00     0.125 A 
HETATM    6  N   UNL     1      -7.154   0.843 -32.007  1.00  0.00    -0.242 NA
HETATM    7  C   UNL     1      -8.411   1.125 -32.395  1.00  0.00     0.086 A 
HETATM    8  C   UNL     1      -8.967   2.430 -32.314  1.00  0.00     0.088 A 
HETATM    9  N   UNL     1      -8.282   3.486 -31.856  1.00  0.00    -0.225 NA
HETATM   10  C   UNL     1      -9.193   0.098 -32.910  1.00  0.00     0.034 A 
HETATM   11  C   UNL     1     -10.501   0.320 -33.347  1.00  0.00     0.002 A 
HETATM   12  C   UNL     1     -11.045   1.593 -33.256  1.00  0.00     0.002 A 
HETATM   13  C   UNL     1     -10.273   2.634 -32.739  1.00  0.00     0.034 A 
ENDROOT
BRANCH   1  14
HETATM   14  C   UNL     1      -4.083   0.982 -31.073  1.00  0.00     0.257 C 
HETATM   15  N   UNL     1      -4.625  -0.292 -31.150  1.00  0.00    -0.356 N 
HETATM   16  H   UNL     1      -5.638  -0.286 -31.214  1.00  0.00     0.162 HD
HETATM   17  O   UNL     1      -2.885   1.227 -31.060  1.00  0.00    -0.267 OA
BRANCH  15  18
HETATM   18  C   UNL     1      -4.009  -1.314 -31.973  1.00  0.00     0.127 C 
BRANCH  18  19
HETATM   19  C   UNL     1      -4.111  -1.169 -33.491  1.00  0.00     0.058 C 
BRANCH  19  20
HETATM   20  C   UNL     1      -4.844  -2.373 -34.044  1.00  0.00    -0.057 A 
HETATM   21  C   UNL     1      -6.195  -2.259 -34.410  1.00  0.00     0.007 A 
HETATM   22  C   UNL     1      -6.916  -3.381 -34.817  1.00  0.00     0.001 A 
HETATM   23  C   UNL     1      -6.293  -4.626 -34.871  1.00  0.00     0.000 A 
HETATM   24  C   UNL     1      -4.948  -4.747 -34.523  1.00  0.00     0.001 A 
HETATM   25  C   UNL     1      -4.226  -3.627 -34.109  1.00  0.00     0.007 A 
ENDBRANCH  19  20
ENDBRANCH  18  19
ENDBRANCH  15  18
ENDBRANCH   1  14
BRANCH   2  26
HETATM   26  N   UNL     1      -3.657   3.991 -30.661  1.00  0.00    -0.383 N 
HETATM   27  H   UNL     1      -3.565   4.983 -30.870  1.00  0.00     0.157 HD
HETATM   28  H   UNL     1      -2.784   3.502 -30.839  1.00  0.00     0.157 HD
ENDBRANCH   2  26
BRANCH   3  29
HETATM   29  N   UNL     1      -6.214   5.424 -30.987  1.00  0.00    -0.176 NA
HETATM   30  C   UNL     1      -5.795   6.160 -31.970  1.00  0.00     0.153 C 
BRANCH  30  31
HETATM   31  C   UNL     1      -5.012   5.748 -33.117  1.00  0.00     0.011 A 
HETATM   32  C   UNL     1      -3.614   5.980 -33.324  1.00  0.00     0.004 A 
HETATM   33  C   UNL     1      -3.269   5.388 -34.540  1.00  0.00     0.043 A 
HETATM   34  C   UNL     1      -2.614   6.667 -32.604  1.00  0.00     0.014 A 
HETATM   35  C   UNL     1      -1.973   5.435 -35.066  1.00  0.00     0.030 A 
HETATM   36  N   UNL     1      -4.410   4.803 -35.043  1.00  0.00    -0.364 N 
HETATM   37  C   UNL     1      -1.003   6.127 -34.335  1.00  0.00     0.002 A 
HETATM   38  C   UNL     1      -1.316   6.738 -33.123  1.00  0.00     0.001 A 
HETATM   39  H   UNL     1      -4.455   4.290 -35.915  1.00  0.00     0.165 HD
HETATM   40  C   UNL     1      -5.466   5.019 -34.198  1.00  0.00     0.102 A 
ENDBRANCH  30  31
ENDBRANCH   3  29
TORSDOF 7
ENDMDL
MODEL 2
REMARK VINA RESULT:     -10.7      1.548      5.405
REMARK  7 active torsions:
REMARK  status: ('A' for Active; 'I' for Inactive)
REMARK    1  A    between atoms: C_4  and  C_5 
REMARK    2  A    between atoms: C_5  and  C_6 
REMARK    3  A    between atoms: C_6  and  N_7 
REMARK       I    between atoms: N_7  and  C_8 
REMARK    4  A    between atoms: C_8  and  C_9 
REMARK    5  A    between atoms: C_10  and  N_11 
REMARK    6  A    between atoms: N_12  and  N_13 
REMARK    7  A    between atoms: C_14  and  C_15 
ROOT
HETATM    1  C   UNL     1      -4.159   1.960 -30.831  1.00  0.00     0.110 A 
HETATM    2  C   UNL     1      -5.321   2.222 -30.115  1.00  0.00     0.143 A 
HETATM    3  N   UNL     1      -5.668   3.561 -30.314  1.00  0.00    -0.197 N 
HETATM    4  C   UNL     1      -4.649   4.167 -31.025  1.00  0.00     0.183 A 
HETATM    5  C   UNL     1      -3.721   3.192 -31.370  1.00  0.00     0.125 A 
HETATM    6  N   UNL     1      -2.590   3.507 -32.056  1.00  0.00    -0.242 NA
HETATM    7  C   UNL     1      -2.448   4.815 -32.336  1.00  0.00     0.086 A 
HETATM    8  C   UNL     1      -3.422   5.787 -31.984  1.00  0.00     0.088 A 
HETATM    9  N   UNL     1      -4.554   5.481 -31.335  1.00  0.00    -0.225 NA
HETATM   10  C   UNL     1      -1.293   5.234 -32.984  1.00  0.00     0.034 A 
HETATM   11  C   UNL     1      -1.071   6.578 -33.293  1.00  0.00     0.002 A 
HETATM   12  C   UNL     1      -2.029   7.524 -32.958  1.00  0.00     0.002 A 
HETATM   13  C   UNL     1      -3.195   7.118 -32.309  1.00  0.00     0.034 A 
ENDROOT
BRANCH   1  14
HETATM   14  C   UNL     1      -3.533   0.655 -30.915  1.00  0.00     0.257 C 
HETATM   15  N   UNL     1      -4.408  -0.330 -31.346  1.00  0.00    -0.356 N 
HETATM   16  H   UNL     1      -5.353   0.015 -31.482  1.00  0.00     0.162 HD
HETATM   17  O   UNL     1      -2.331   0.493 -30.752  1.00  0.00    -0.267 OA
BRANCH  15  18
HETATM   18  C   UNL     1      -4.006  -1.296 -32.348  1.00  0.00     0.127 C 
BRANCH  18  19
HETATM   19  C   UNL     1      -4.524  -1.108 -33.775  1.00  0.00     0.058 C 
BRANCH  19  20
HETATM   20  C   UNL     1      -5.098  -2.423 -34.258  1.00  0.00    -0.057 A 
HETATM   21  C   UNL     1      -6.448  -2.497 -34.639  1.00  0.00     0.007 A 
HETATM   22  C   UNL     1      -7.022  -3.720 -34.982  1.00  0.00     0.001 A 
HETATM   23  C   UNL     1      -6.251  -4.881 -34.956  1.00  0.00     0.000 A 
HETATM   24  C   UNL     1      -4.907  -4.816 -34.593  1.00  0.00     0.001 A 
HETATM   25  C   UNL     1      -4.332  -3.594 -34.243  1.00  0.00     0.007 A 
ENDBRANCH  19  20
ENDBRANCH  18  19
ENDBRANCH  15  18
ENDBRANCH   1  14
BRANCH   2  26
HETATM   26  N   UNL     1      -6.050   1.385 -29.322  1.00  0.00    -0.383 N 
HETATM   27  H   UNL     1      -6.506   1.769 -28.496  1.00  0.00     0.157 HD
HETATM   28  H   UNL     1      -5.702   0.447 -29.138  1.00  0.00     0.157 HD
ENDBRANCH   2  26
BRANCH   3  29
HETATM   29  N   UNL     1      -6.706   4.232 -29.724  1.00  0.00    -0.176 NA
HETATM   30  C   UNL     1      -7.829   4.324 -30.367  1.00  0.00     0.153 C 
BRANCH  30  31
HETATM   31  C   UNL     1      -8.107   3.928 -31.732  1.00  0.00     0.011 A 
HETATM   32  C   UNL     1      -8.585   2.650 -32.171  1.00  0.00     0.004 A 
HETATM   33  C   UNL     1      -8.742   2.718 -33.555  1.00  0.00     0.043 A 
HETATM   34  C   UNL     1      -8.869   1.431 -31.520  1.00  0.00     0.014 A 
HETATM   35  C   UNL     1      -9.183   1.633 -34.322  1.00  0.00     0.030 A 
HETATM   36  N   UNL     1      -8.391   3.993 -33.941  1.00  0.00    -0.364 N 
HETATM   37  C   UNL     1      -9.452   0.435 -33.654  1.00  0.00     0.002 A 
HETATM   38  C   UNL     1      -9.295   0.331 -32.273  1.00  0.00     0.001 A 
HETATM   39  H   UNL     1      -8.417   4.331 -34.894  1.00  0.00     0.165 HD
HETATM   40  C   UNL     1      -8.001   4.727 -32.853  1.00  0.00     0.102 A 
ENDBRANCH  30  31
ENDBRANCH   3  29
TORSDOF 7
ENDMDL
MODEL 3
REMARK VINA RESULT:     -10.1      1.698      3.292
REMARK  7 active torsions:
REMARK  status: ('A' for Active; 'I' for Inactive)
REMARK    1  A    between atoms: C_4  and  C_5 
REMARK    2  A    between atoms: C_5  and  C_6 
REMARK    3  A    between atoms: C_6  and  N_7 
REMARK       I    between atoms: N_7  and  C_8 
REMARK    4  A    between atoms: C_8  and  C_9 
REMARK    5  A    between atoms: C_10  and  N_11 
REMARK    6  A    between atoms: N_12  and  N_13 
REMARK    7  A    between atoms: C_14  and  C_15 
ROOT
HETATM    1  C   UNL     1      -4.689   1.829 -32.095  1.00  0.00     0.110 A 
HETATM    2  C   UNL     1      -4.183   3.050 -32.526  1.00  0.00     0.143 A 
HETATM    3  N   UNL     1      -5.251   3.837 -32.967  1.00  0.00    -0.197 N 
HETATM    4  C   UNL     1      -6.392   3.058 -32.952  1.00  0.00     0.183 A 
HETATM    5  C   UNL     1      -6.070   1.824 -32.397  1.00  0.00     0.125 A 
HETATM    6  N   UNL     1      -6.999   0.840 -32.281  1.00  0.00    -0.242 NA
HETATM    7  C   UNL     1      -8.216   1.155 -32.761  1.00  0.00     0.086 A 
HETATM    8  C   UNL     1      -8.520   2.430 -33.307  1.00  0.00     0.088 A 
HETATM    9  N   UNL     1      -7.619   3.417 -33.398  1.00  0.00    -0.225 NA
HETATM   10  C   UNL     1      -9.212   0.186 -32.734  1.00  0.00     0.034 A 
HETATM   11  C   UNL     1     -10.494   0.437 -33.230  1.00  0.00     0.002 A 
HETATM   12  C   UNL     1     -10.791   1.688 -33.753  1.00  0.00     0.002 A 
HETATM   13  C   UNL     1      -9.802   2.671 -33.784  1.00  0.00     0.034 A 
ENDROOT
BRANCH   1  14
HETATM   14  C   UNL     1      -3.882   0.777 -31.509  1.00  0.00     0.257 C 
HETATM   15  N   UNL     1      -4.514  -0.457 -31.532  1.00  0.00    -0.356 N 
HETATM   16  H   UNL     1      -5.455  -0.410 -31.907  1.00  0.00     0.162 HD
HETATM   17  O   UNL     1      -2.721   0.955 -31.166  1.00  0.00    -0.267 OA
BRANCH  15  18
HETATM   18  C   UNL     1      -3.799  -1.652 -31.936  1.00  0.00     0.127 C 
BRANCH  18  19
HETATM   19  C   UNL     1      -3.511  -1.846 -33.425  1.00  0.00     0.058 C 
BRANCH  19  20
HETATM   20  C   UNL     1      -4.611  -2.695 -34.025  1.00  0.00    -0.057 A 
HETATM   21  C   UNL     1      -5.875  -2.132 -34.262  1.00  0.00     0.007 A 
HETATM   22  C   UNL     1      -6.932  -2.924 -34.711  1.00  0.00     0.001 A 
HETATM   23  C   UNL     1      -6.733  -4.286 -34.935  1.00  0.00     0.000 A 
HETATM   24  C   UNL     1      -5.478  -4.851 -34.715  1.00  0.00     0.001 A 
HETATM   25  C   UNL     1      -4.421  -4.061 -34.259  1.00  0.00     0.007 A 
ENDBRANCH  19  20
ENDBRANCH  18  19
ENDBRANCH  15  18
ENDBRANCH   1  14
BRANCH   2  26
HETATM   26  N   UNL     1      -2.890   3.481 -32.562  1.00  0.00    -0.383 N 
HETATM   27  H   UNL     1      -2.147   2.788 -32.642  1.00  0.00     0.157 HD
HETATM   28  H   UNL     1      -2.604   4.248 -31.958  1.00  0.00     0.157 HD
ENDBRANCH   2  26
BRANCH   3  29
HETATM   29  N   UNL     1      -5.168   5.079 -33.537  1.00  0.00    -0.176 NA
HETATM   30  C   UNL     1      -4.996   6.106 -32.762  1.00  0.00     0.153 C 
BRANCH  30  31
HETATM   31  C   UNL     1      -5.026   6.142 -31.315  1.00  0.00     0.011 A 
HETATM   32  C   UNL     1      -6.186   6.031 -30.481  1.00  0.00     0.004 A 
HETATM   33  C   UNL     1      -5.753   6.084 -29.156  1.00  0.00     0.043 A 
HETATM   34  C   UNL     1      -7.570   5.923 -30.733  1.00  0.00     0.014 A 
HETATM   35  C   UNL     1      -6.631   6.019 -28.068  1.00  0.00     0.030 A 
HETATM   36  N   UNL     1      -4.380   6.203 -29.183  1.00  0.00    -0.364 N 
HETATM   37  C   UNL     1      -7.997   5.918 -28.344  1.00  0.00     0.002 A 
HETATM   38  C   UNL     1      -8.464   5.873 -29.656  1.00  0.00     0.001 A 
HETATM   39  H   UNL     1      -3.793   6.255 -28.360  1.00  0.00     0.165 HD
HETATM   40  C   UNL     1      -3.933   6.245 -30.477  1.00  0.00     0.102 A 
ENDBRANCH  30  31
ENDBRANCH   3  29
TORSDOF 7
ENDMDL
MODEL 4
REMARK VINA RESULT:     -10.1      2.571      6.420
REMARK  7 active torsions:
REMARK  status: ('A' for Active; 'I' for Inactive)
REMARK    1  A    between atoms: C_4  and  C_5 
REMARK    2  A    between atoms: C_5  and  C_6 
REMARK    3  A    between atoms: C_6  and  N_7 
REMARK       I    between atoms: N_7  and  C_8 
REMARK    4  A    between atoms: C_8  and  C_9 
REMARK    5  A    between atoms: C_10  and  N_11 
REMARK    6  A    between atoms: N_12  and  N_13 
REMARK    7  A    between atoms: C_14  and  C_15 
ROOT
HETATM    1  C   UNL     1      -9.009   0.860 -32.481  1.00  0.00     0.110 A 
HETATM    2  C   UNL     1      -8.605   1.615 -31.386  1.00  0.00     0.143 A 
HETATM    3  N   UNL     1      -7.236   1.414 -31.192  1.00  0.00    -0.197 N 
HETATM    4  C   UNL     1      -6.821   0.425 -32.065  1.00  0.00     0.183 A 
HETATM    5  C   UNL     1      -7.894   0.087 -32.881  1.00  0.00     0.125 A 
HETATM    6  N   UNL     1      -7.783  -0.886 -33.824  1.00  0.00    -0.242 NA
HETATM    7  C   UNL     1      -6.581  -1.487 -33.873  1.00  0.00     0.086 A 
HETATM    8  C   UNL     1      -5.497  -1.108 -33.036  1.00  0.00     0.088 A 
HETATM    9  N   UNL     1      -5.588  -0.130 -32.125  1.00  0.00    -0.225 NA
HETATM   10  C   UNL     1      -6.397  -2.533 -34.769  1.00  0.00     0.034 A 
HETATM   11  C   UNL     1      -5.181  -3.214 -34.863  1.00  0.00     0.002 A 
HETATM   12  C   UNL     1      -4.120  -2.834 -34.053  1.00  0.00     0.002 A 
HETATM   13  C   UNL     1      -4.289  -1.784 -33.150  1.00  0.00     0.034 A 
ENDROOT
BRANCH   1  14
HETATM   14  C   UNL     1     -10.354   0.865 -33.020  1.00  0.00     0.257 C 
HETATM   15  N   UNL     1     -10.672   2.058 -33.650  1.00  0.00    -0.356 N 
HETATM   16  H   UNL     1      -9.930   2.748 -33.585  1.00  0.00     0.162 HD
HETATM   17  O   UNL     1     -11.061  -0.134 -33.027  1.00  0.00    -0.267 OA
BRANCH  15  18
HETATM   18  C   UNL     1     -11.344   2.065 -34.934  1.00  0.00     0.127 C 
BRANCH  18  19
HETATM   19  C   UNL     1     -12.565   2.971 -35.100  1.00  0.00     0.058 C 
BRANCH  19  20
HETATM   20  C   UNL     1     -13.533   2.689 -33.970  1.00  0.00    -0.057 A 
HETATM   21  C   UNL     1     -14.284   1.503 -33.974  1.00  0.00     0.007 A 
HETATM   22  C   UNL     1     -15.258   1.278 -33.002  1.00  0.00     0.001 A 
HETATM   23  C   UNL     1     -15.485   2.231 -32.011  1.00  0.00     0.000 A 
HETATM   24  C   UNL     1     -14.734   3.406 -31.990  1.00  0.00     0.001 A 
HETATM   25  C   UNL     1     -13.764   3.637 -32.966  1.00  0.00     0.007 A 
ENDBRANCH  19  20
ENDBRANCH  18  19
ENDBRANCH  15  18
ENDBRANCH   1  14
BRANCH   2  26
HETATM   26  N   UNL     1      -9.349   2.424 -30.578  1.00  0.00    -0.383 N 
HETATM   27  H   UNL     1     -10.312   2.160 -30.376  1.00  0.00     0.157 HD
HETATM   28  H   UNL     1      -9.265   3.433 -30.672  1.00  0.00     0.157 HD
ENDBRANCH   2  26
BRANCH   3  29
HETATM   29  N   UNL     1      -6.472   1.919 -30.175  1.00  0.00    -0.176 NA
HETATM   30  C   UNL     1      -5.882   3.061 -30.351  1.00  0.00     0.153 C 
BRANCH  30  31
HETATM   31  C   UNL     1      -5.795   3.838 -31.571  1.00  0.00     0.011 A 
HETATM   32  C   UNL     1      -4.621   4.057 -32.362  1.00  0.00     0.004 A 
HETATM   33  C   UNL     1      -4.997   4.831 -33.460  1.00  0.00     0.043 A 
HETATM   34  C   UNL     1      -3.265   3.694 -32.228  1.00  0.00     0.014 A 
HETATM   35  C   UNL     1      -4.090   5.249 -34.440  1.00  0.00     0.030 A 
HETATM   36  N   UNL     1      -6.352   5.058 -33.350  1.00  0.00    -0.364 N 
HETATM   37  C   UNL     1      -2.751   4.881 -34.281  1.00  0.00     0.002 A 
HETATM   38  C   UNL     1      -2.340   4.117 -33.191  1.00  0.00     0.001 A 
HETATM   39  H   UNL     1      -6.900   5.587 -34.016  1.00  0.00     0.165 HD
HETATM   40  C   UNL     1      -6.841   4.470 -32.214  1.00  0.00     0.102 A 
ENDBRANCH  30  31
ENDBRANCH   3  29
TORSDOF 7
ENDMDL
MODEL 5
REMARK VINA RESULT:      -9.9      2.307      7.159
REMARK  7 active torsions:
REMARK  status: ('A' for Active; 'I' for Inactive)
REMARK    1  A    between atoms: C_4  and  C_5 
REMARK    2  A    between atoms: C_5  and  C_6 
REMARK    3  A    between atoms: C_6  and  N_7 
REMARK       I    between atoms: N_7  and  C_8 
REMARK    4  A    between atoms: C_8  and  C_9 
REMARK    5  A    between atoms: C_10  and  N_11 
REMARK    6  A    between atoms: N_12  and  N_13 
REMARK    7  A    between atoms: C_14  and  C_15 
ROOT
HETATM    1  C   UNL     1      -4.456   4.597 -33.006  1.00  0.00     0.110 A 
HETATM    2  C   UNL     1      -4.050   3.859 -31.900  1.00  0.00     0.143 A 
HETATM    3  N   UNL     1      -5.156   3.161 -31.407  1.00  0.00    -0.197 N 
HETATM    4  C   UNL     1      -6.273   3.579 -32.107  1.00  0.00     0.183 A 
HETATM    5  C   UNL     1      -5.858   4.447 -33.110  1.00  0.00     0.125 A 
HETATM    6  N   UNL     1      -6.754   5.040 -33.944  1.00  0.00    -0.242 NA
HETATM    7  C   UNL     1      -8.040   4.733 -33.696  1.00  0.00     0.086 A 
HETATM    8  C   UNL     1      -8.432   3.829 -32.674  1.00  0.00     0.088 A 
HETATM    9  N   UNL     1      -7.555   3.216 -31.867  1.00  0.00    -0.225 NA
HETATM   10  C   UNL     1      -9.026   5.339 -34.464  1.00  0.00     0.034 A 
HETATM   11  C   UNL     1     -10.383   5.081 -34.254  1.00  0.00     0.002 A 
HETATM   12  C   UNL     1     -10.763   4.188 -33.262  1.00  0.00     0.002 A 
HETATM   13  C   UNL     1      -9.784   3.570 -32.484  1.00  0.00     0.034 A 
ENDROOT
BRANCH   1  14
HETATM   14  C   UNL     1      -3.564   5.400 -33.819  1.00  0.00     0.257 C 
HETATM   15  N   UNL     1      -3.326   6.652 -33.274  1.00  0.00    -0.356 N 
HETATM   16  H   UNL     1      -3.855   6.819 -32.424  1.00  0.00     0.162 HD
HETATM   17  O   UNL     1      -2.989   4.949 -34.801  1.00  0.00    -0.267 OA
BRANCH  15  18
HETATM   18  C   UNL     1      -1.985   7.200 -33.227  1.00  0.00     0.127 C 
BRANCH  18  19
HETATM   19  C   UNL     1      -1.597   8.042 -32.011  1.00  0.00     0.058 C 
BRANCH  19  20
HETATM   20  C   UNL     1      -0.766   7.188 -31.076  1.00  0.00    -0.057 A 
HETATM   21  C   UNL     1      -0.057   6.087 -31.582  1.00  0.00     0.007 A 
HETATM   22  C   UNL     1       0.624   5.226 -30.722  1.00  0.00     0.001 A 
HETATM   23  C   UNL     1       0.610   5.461 -29.348  1.00  0.00     0.000 A 
HETATM   24  C   UNL     1      -0.081   6.559 -28.837  1.00  0.00     0.001 A 
HETATM   25  C   UNL     1      -0.768   7.419 -29.696  1.00  0.00     0.007 A 
ENDBRANCH  19  20
ENDBRANCH  18  19
ENDBRANCH  15  18
ENDBRANCH   1  14
BRANCH   2  26
HETATM   26  N   UNL     1      -2.817   3.782 -31.323  1.00  0.00    -0.383 N 
HETATM   27  H   UNL     1      -2.696   3.182 -30.508  1.00  0.00     0.157 HD
HETATM   28  H   UNL     1      -2.256   4.626 -31.236  1.00  0.00     0.157 HD
ENDBRANCH   2  26
BRANCH   3  29
HETATM   29  N   UNL     1      -5.193   2.378 -30.285  1.00  0.00    -0.176 NA
HETATM   30  C   UNL     1      -4.899   1.120 -30.397  1.00  0.00     0.153 C 
BRANCH  30  31
HETATM   31  C   UNL     1      -4.669   0.366 -31.612  1.00  0.00     0.011 A 
HETATM   32  C   UNL     1      -5.669  -0.145 -32.502  1.00  0.00     0.004 A 
HETATM   33  C   UNL     1      -5.005  -0.776 -33.555  1.00  0.00     0.043 A 
HETATM   34  C   UNL     1      -7.079  -0.155 -32.493  1.00  0.00     0.014 A 
HETATM   35  C   UNL     1      -5.680  -1.405 -34.608  1.00  0.00     0.030 A 
HETATM   36  N   UNL     1      -3.654  -0.639 -33.323  1.00  0.00    -0.364 N 
HETATM   37  C   UNL     1      -7.077  -1.406 -34.572  1.00  0.00     0.002 A 
HETATM   38  C   UNL     1      -7.770  -0.794 -33.530  1.00  0.00     0.001 A 
HETATM   39  H   UNL     1      -2.929  -0.994 -33.932  1.00  0.00     0.165 HD
HETATM   40  C   UNL     1      -3.441   0.041 -32.153  1.00  0.00     0.102 A 
ENDBRANCH  30  31
ENDBRANCH   3  29
TORSDOF 7
ENDMDL
MODEL 6
REMARK VINA RESULT:      -9.8      2.660      4.489
REMARK  7 active torsions:
REMARK  status: ('A' for Active; 'I' for Inactive)
REMARK    1  A    between atoms: C_4  and  C_5 
REMARK    2  A    between atoms: C_5  and  C_6 
REMARK    3  A    between atoms: C_6  and  N_7 
REMARK       I    between atoms: N_7  and  C_8 
REMARK    4  A    between atoms: C_8  and  C_9 
REMARK    5  A    between atoms: C_10  and  N_11 
REMARK    6  A    between atoms: N_12  and  N_13 
REMARK    7  A    between atoms: C_14  and  C_15 
ROOT
HETATM    1  C   UNL     1      -4.030   3.858 -31.765  1.00  0.00     0.110 A 
HETATM    2  C   UNL     1      -3.197   4.606 -32.588  1.00  0.00     0.143 A 
HETATM    3  N   UNL     1      -3.522   5.956 -32.433  1.00  0.00    -0.197 N 
HETATM    4  C   UNL     1      -4.648   6.037 -31.636  1.00  0.00     0.183 A 
HETATM    5  C   UNL     1      -4.963   4.756 -31.197  1.00  0.00     0.125 A 
HETATM    6  N   UNL     1      -6.049   4.527 -30.412  1.00  0.00    -0.242 NA
HETATM    7  C   UNL     1      -6.780   5.621 -30.131  1.00  0.00     0.086 A 
HETATM    8  C   UNL     1      -6.424   6.921 -30.580  1.00  0.00     0.088 A 
HETATM    9  N   UNL     1      -5.339   7.160 -31.329  1.00  0.00    -0.225 NA
HETATM   10  C   UNL     1      -7.941   5.470 -29.382  1.00  0.00     0.034 A 
HETATM   11  C   UNL     1      -8.757   6.558 -29.065  1.00  0.00     0.002 A 
HETATM   12  C   UNL     1      -8.400   7.828 -29.496  1.00  0.00     0.002 A 
HETATM   13  C   UNL     1      -7.237   7.996 -30.247  1.00  0.00     0.034 A 
ENDROOT
BRANCH   1  14
HETATM   14  C   UNL     1      -3.943   2.419 -31.612  1.00  0.00     0.257 C 
HETATM   15  N   UNL     1      -5.091   1.766 -32.035  1.00  0.00    -0.356 N 
HETATM   16  H   UNL     1      -5.820   2.406 -32.333  1.00  0.00     0.162 HD
HETATM   17  O   UNL     1      -2.910   1.858 -31.274  1.00  0.00    -0.267 OA
BRANCH  15  18
HETATM   18  C   UNL     1      -5.009   0.574 -32.855  1.00  0.00     0.127 C 
BRANCH  18  19
HETATM   19  C   UNL     1      -6.316  -0.048 -33.348  1.00  0.00     0.058 C 
BRANCH  19  20
HETATM   20  C   UNL     1      -6.035  -1.464 -33.804  1.00  0.00    -0.057 A 
HETATM   21  C   UNL     1      -4.716  -1.944 -33.819  1.00  0.00     0.007 A 
HETATM   22  C   UNL     1      -4.425  -3.206 -34.338  1.00  0.00     0.001 A 
HETATM   23  C   UNL     1      -5.452  -4.004 -34.839  1.00  0.00     0.000 A 
HETATM   24  C   UNL     1      -6.767  -3.542 -34.817  1.00  0.00     0.001 A 
HETATM   25  C   UNL     1      -7.059  -2.277 -34.304  1.00  0.00     0.007 A 
ENDBRANCH  19  20
ENDBRANCH  18  19
ENDBRANCH  15  18
ENDBRANCH   1  14
BRANCH   2  26
HETATM   26  N   UNL     1      -2.219   4.179 -33.438  1.00  0.00    -0.383 N 
HETATM   27  H   UNL     1      -1.505   3.547 -33.082  1.00  0.00     0.157 HD
HETATM   28  H   UNL     1      -1.820   4.835 -34.105  1.00  0.00     0.157 HD
ENDBRANCH   2  26
BRANCH   3  29
HETATM   29  N   UNL     1      -2.984   7.010 -33.122  1.00  0.00    -0.176 NA
HETATM   30  C   UNL     1      -2.081   7.736 -32.538  1.00  0.00     0.153 C 
BRANCH  30  31
HETATM   31  C   UNL     1      -1.651   7.677 -31.156  1.00  0.00     0.011 A 
HETATM   32  C   UNL     1      -0.715   6.750 -30.592  1.00  0.00     0.004 A 
HETATM   33  C   UNL     1      -0.572   7.073 -29.242  1.00  0.00     0.043 A 
HETATM   34  C   UNL     1      -0.001   5.644 -31.099  1.00  0.00     0.014 A 
HETATM   35  C   UNL     1       0.262   6.356 -28.376  1.00  0.00     0.030 A 
HETATM   36  N   UNL     1      -1.375   8.166 -28.999  1.00  0.00    -0.364 N 
HETATM   37  C   UNL     1       0.954   5.261 -28.901  1.00  0.00     0.002 A 
HETATM   38  C   UNL     1       0.825   4.906 -30.242  1.00  0.00     0.001 A 
HETATM   39  H   UNL     1      -1.463   8.624 -28.102  1.00  0.00     0.165 HD
HETATM   40  C   UNL     1      -2.033   8.533 -30.143  1.00  0.00     0.102 A 
ENDBRANCH  30  31
ENDBRANCH   3  29
TORSDOF 7
ENDMDL
MODEL 7
REMARK VINA RESULT:      -9.8      1.934      5.538
REMARK  7 active torsions:
REMARK  status: ('A' for Active; 'I' for Inactive)
REMARK    1  A    between atoms: C_4  and  C_5 
REMARK    2  A    between atoms: C_5  and  C_6 
REMARK    3  A    between atoms: C_6  and  N_7 
REMARK       I    between atoms: N_7  and  C_8 
REMARK    4  A    between atoms: C_8  and  C_9 
REMARK    5  A    between atoms: C_10  and  N_11 
REMARK    6  A    between atoms: N_12  and  N_13 
REMARK    7  A    between atoms: C_14  and  C_15 
ROOT
HETATM    1  C   UNL     1      -5.662   2.660 -31.326  1.00  0.00     0.110 A 
HETATM    2  C   UNL     1      -6.289   3.274 -30.248  1.00  0.00     0.143 A 
HETATM    3  N   UNL     1      -5.934   4.625 -30.243  1.00  0.00    -0.197 N 
HETATM    4  C   UNL     1      -4.976   4.820 -31.220  1.00  0.00     0.183 A 
HETATM    5  C   UNL     1      -4.811   3.625 -31.912  1.00  0.00     0.125 A 
HETATM    6  N   UNL     1      -3.905   3.513 -32.919  1.00  0.00    -0.242 NA
HETATM    7  C   UNL     1      -3.189   4.627 -33.157  1.00  0.00     0.086 A 
HETATM    8  C   UNL     1      -3.391   5.839 -32.444  1.00  0.00     0.088 A 
HETATM    9  N   UNL     1      -4.303   5.967 -31.471  1.00  0.00    -0.225 NA
HETATM   10  C   UNL     1      -2.199   4.584 -34.131  1.00  0.00     0.034 A 
HETATM   11  C   UNL     1      -1.406   5.697 -34.422  1.00  0.00     0.002 A 
HETATM   12  C   UNL     1      -1.613   6.883 -33.731  1.00  0.00     0.002 A 
HETATM   13  C   UNL     1      -2.604   6.941 -32.752  1.00  0.00     0.034 A 
ENDROOT
BRANCH   1  14
HETATM   14  C   UNL     1      -5.846   1.269 -31.689  1.00  0.00     0.257 C 
HETATM   15  N   UNL     1      -6.224   1.107 -33.013  1.00  0.00    -0.356 N 
HETATM   16  H   UNL     1      -6.359   1.990 -33.494  1.00  0.00     0.162 HD
HETATM   17  O   UNL     1      -5.559   0.351 -30.932  1.00  0.00    -0.267 OA
BRANCH  15  18
HETATM   18  C   UNL     1      -5.605   0.094 -33.844  1.00  0.00     0.127 C 
BRANCH  18  19
HETATM   19  C   UNL     1      -6.520  -0.842 -34.635  1.00  0.00     0.058 C 
BRANCH  19  20
HETATM   20  C   UNL     1      -5.998  -2.257 -34.499  1.00  0.00    -0.057 A 
HETATM   21  C   UNL     1      -4.680  -2.476 -34.067  1.00  0.00     0.007 A 
HETATM   22  C   UNL     1      -4.147  -3.764 -34.040  1.00  0.00     0.001 A 
HETATM   23  C   UNL     1      -4.929  -4.848 -34.437  1.00  0.00     0.000 A 
HETATM   24  C   UNL     1      -6.243  -4.642 -34.854  1.00  0.00     0.001 A 
HETATM   25  C   UNL     1      -6.777  -3.353 -34.888  1.00  0.00     0.007 A 
ENDBRANCH  19  20
ENDBRANCH  18  19
ENDBRANCH  15  18
ENDBRANCH   1  14
BRANCH   2  26
HETATM   26  N   UNL     1      -7.108   2.727 -29.304  1.00  0.00    -0.383 N 
HETATM   27  H   UNL     1      -7.222   1.714 -29.284  1.00  0.00     0.157 HD
HETATM   28  H   UNL     1      -7.983   3.192 -29.075  1.00  0.00     0.157 HD
ENDBRANCH   2  26
BRANCH   3  29
HETATM   29  N   UNL     1      -6.281   5.557 -29.303  1.00  0.00    -0.176 NA
HETATM   30  C   UNL     1      -7.282   6.345 -29.551  1.00  0.00     0.153 C 
BRANCH  30  31
HETATM   31  C   UNL     1      -8.020   6.481 -30.790  1.00  0.00     0.011 A 
HETATM   32  C   UNL     1      -9.188   5.746 -31.173  1.00  0.00     0.004 A 
HETATM   33  C   UNL     1      -9.585   6.218 -32.424  1.00  0.00     0.043 A 
HETATM   34  C   UNL     1      -9.927   4.699 -30.583  1.00  0.00     0.014 A 
HETATM   35  C   UNL     1     -10.692   5.707 -33.111  1.00  0.00     0.030 A 
HETATM   36  N   UNL     1      -8.703   7.214 -32.780  1.00  0.00    -0.364 N 
HETATM   37  C   UNL     1     -11.404   4.666 -32.508  1.00  0.00     0.002 A 
HETATM   38  C   UNL     1     -11.028   4.164 -31.264  1.00  0.00     0.001 A 
HETATM   39  H   UNL     1      -8.753   7.745 -33.640  1.00  0.00     0.165 HD
HETATM   40  C   UNL     1      -7.754   7.377 -31.806  1.00  0.00     0.102 A 
ENDBRANCH  30  31
ENDBRANCH   3  29
TORSDOF 7
ENDMDL
MODEL 8
REMARK VINA RESULT:      -9.7      2.416      7.288
REMARK  7 active torsions:
REMARK  status: ('A' for Active; 'I' for Inactive)
REMARK    1  A    between atoms: C_4  and  C_5 
REMARK    2  A    between atoms: C_5  and  C_6 
REMARK    3  A    between atoms: C_6  and  N_7 
REMARK       I    between atoms: N_7  and  C_8 
REMARK    4  A    between atoms: C_8  and  C_9 
REMARK    5  A    between atoms: C_10  and  N_11 
REMARK    6  A    between atoms: N_12  and  N_13 
REMARK    7  A    between atoms: C_14  and  C_15 
ROOT
HETATM    1  C   UNL     1      -8.244   3.945 -32.165  1.00  0.00     0.110 A 
HETATM    2  C   UNL     1      -8.276   3.028 -31.121  1.00  0.00     0.143 A 
HETATM    3  N   UNL     1      -6.961   2.736 -30.751  1.00  0.00    -0.197 N 
HETATM    4  C   UNL     1      -6.115   3.348 -31.657  1.00  0.00     0.183 A 
HETATM    5  C   UNL     1      -6.886   4.115 -32.522  1.00  0.00     0.125 A 
HETATM    6  N   UNL     1      -6.319   4.814 -33.541  1.00  0.00    -0.242 NA
HETATM    7  C   UNL     1      -4.985   4.675 -33.643  1.00  0.00     0.086 A 
HETATM    8  C   UNL     1      -4.220   3.896 -32.733  1.00  0.00     0.088 A 
HETATM    9  N   UNL     1      -4.767   3.230 -31.708  1.00  0.00    -0.225 NA
HETATM   10  C   UNL     1      -4.329   5.308 -34.692  1.00  0.00     0.034 A 
HETATM   11  C   UNL     1      -2.948   5.196 -34.870  1.00  0.00     0.002 A 
HETATM   12  C   UNL     1      -2.203   4.444 -33.972  1.00  0.00     0.002 A 
HETATM   13  C   UNL     1      -2.846   3.805 -32.913  1.00  0.00     0.034 A 
ENDROOT
BRANCH   1  14
HETATM   14  C   UNL     1      -9.424   4.531 -32.769  1.00  0.00     0.257 C 
HETATM   15  N   UNL     1      -9.550   4.214 -34.113  1.00  0.00    -0.356 N 
HETATM   16  H   UNL     1      -8.770   3.668 -34.463  1.00  0.00     0.162 HD
HETATM   17  O   UNL     1     -10.272   5.121 -32.113  1.00  0.00    -0.267 OA
BRANCH  15  18
HETATM   18  C   UNL     1     -10.826   3.802 -34.664  1.00  0.00     0.127 C 
BRANCH  18  19
HETATM   19  C   UNL     1     -11.142   2.307 -34.700  1.00  0.00     0.058 C 
BRANCH  19  20
HETATM   20  C   UNL     1     -12.537   2.094 -34.152  1.00  0.00    -0.057 A 
HETATM   21  C   UNL     1     -13.004   2.899 -33.101  1.00  0.00     0.007 A 
HETATM   22  C   UNL     1     -14.242   2.647 -32.510  1.00  0.00     0.001 A 
HETATM   23  C   UNL     1     -15.030   1.593 -32.969  1.00  0.00     0.000 A 
HETATM   24  C   UNL     1     -14.581   0.796 -34.022  1.00  0.00     0.001 A 
HETATM   25  C   UNL     1     -13.339   1.042 -34.610  1.00  0.00     0.007 A 
ENDBRANCH  19  20
ENDBRANCH  18  19
ENDBRANCH  15  18
ENDBRANCH   1  14
BRANCH   2  26
HETATM   26  N   UNL     1      -9.354   2.454 -30.515  1.00  0.00    -0.383 N 
HETATM   27  H   UNL     1      -9.381   2.421 -29.497  1.00  0.00     0.157 HD
HETATM   28  H   UNL     1      -9.757   1.609 -30.913  1.00  0.00     0.157 HD
ENDBRANCH   2  26
BRANCH   3  29
HETATM   29  N   UNL     1      -6.560   1.823 -29.813  1.00  0.00    -0.176 NA
HETATM   30  C   UNL     1      -6.336   0.602 -30.192  1.00  0.00     0.153 C 
BRANCH  30  31
HETATM   31  C   UNL     1      -6.600   0.012 -31.488  1.00  0.00     0.011 A 
HETATM   32  C   UNL     1      -5.702  -0.800 -32.255  1.00  0.00     0.004 A 
HETATM   33  C   UNL     1      -6.373  -1.178 -33.417  1.00  0.00     0.043 A 
HETATM   34  C   UNL     1      -4.367  -1.222 -32.081  1.00  0.00     0.014 A 
HETATM   35  C   UNL     1      -5.784  -1.970 -34.410  1.00  0.00     0.030 A 
HETATM   36  N   UNL     1      -7.637  -0.633 -33.351  1.00  0.00    -0.364 N 
HETATM   37  C   UNL     1      -4.459  -2.370 -34.217  1.00  0.00     0.002 A 
HETATM   38  C   UNL     1      -3.756  -2.001 -33.072  1.00  0.00     0.001 A 
HETATM   39  H   UNL     1      -8.350  -0.752 -34.059  1.00  0.00     0.165 HD
HETATM   40  C   UNL     1      -7.781   0.090 -32.197  1.00  0.00     0.102 A 
ENDBRANCH  30  31
ENDBRANCH   3  29
TORSDOF 7
ENDMDL
MODEL 9
REMARK VINA RESULT:      -9.6      2.264      7.431
REMARK  7 active torsions:
REMARK  status: ('A' for Active; 'I' for Inactive)
REMARK    1  A    between atoms: C_4  and  C_5 
REMARK    2  A    between atoms: C_5  and  C_6 
REMARK    3  A    between atoms: C_6  and  N_7 
REMARK       I    between atoms: N_7  and  C_8 
REMARK    4  A    between atoms: C_8  and  C_9 
REMARK    5  A    between atoms: C_10  and  N_11 
REMARK    6  A    between atoms: N_12  and  N_13 
REMARK    7  A    between atoms: C_14  and  C_15 
ROOT
HETATM    1  C   UNL     1      -4.365   4.052 -32.216  1.00  0.00     0.110 A 
HETATM    2  C   UNL     1      -4.221   2.947 -31.385  1.00  0.00     0.143 A 
HETATM    3  N   UNL     1      -5.401   2.788 -30.655  1.00  0.00    -0.197 N 
HETATM    4  C   UNL     1      -6.216   3.873 -30.916  1.00  0.00     0.183 A 
HETATM    5  C   UNL     1      -5.604   4.652 -31.892  1.00  0.00     0.125 A 
HETATM    6  N   UNL     1      -6.171   5.807 -32.330  1.00  0.00    -0.242 NA
HETATM    7  C   UNL     1      -7.331   6.127 -31.729  1.00  0.00     0.086 A 
HETATM    8  C   UNL     1      -7.941   5.303 -30.746  1.00  0.00     0.088 A 
HETATM    9  N   UNL     1      -7.406   4.147 -30.331  1.00  0.00    -0.225 NA
HETATM   10  C   UNL     1      -7.951   7.321 -32.075  1.00  0.00     0.034 A 
HETATM   11  C   UNL     1      -9.149   7.726 -31.482  1.00  0.00     0.002 A 
HETATM   12  C   UNL     1      -9.749   6.913 -30.530  1.00  0.00     0.002 A 
HETATM   13  C   UNL     1      -9.140   5.710 -30.174  1.00  0.00     0.034 A 
ENDROOT
BRANCH   1  14
HETATM   14  C   UNL     1      -3.365   4.488 -33.170  1.00  0.00     0.257 C 
HETATM   15  N   UNL     1      -3.559   5.795 -33.588  1.00  0.00    -0.356 N 
HETATM   16  H   UNL     1      -4.398   6.213 -33.197  1.00  0.00     0.162 HD
HETATM   17  O   UNL     1      -2.388   3.807 -33.453  1.00  0.00    -0.267 OA
BRANCH  15  18
HETATM   18  C   UNL     1      -2.448   6.722 -33.674  1.00  0.00     0.127 C 
BRANCH  18  19
HETATM   19  C   UNL     1      -2.350   7.823 -32.618  1.00  0.00     0.058 C 
BRANCH  19  20
HETATM   20  C   UNL     1      -1.391   7.373 -31.536  1.00  0.00    -0.057 A 
HETATM   21  C   UNL     1      -1.462   7.947 -30.257  1.00  0.00     0.007 A 
HETATM   22  C   UNL     1      -0.519   7.626 -29.282  1.00  0.00     0.001 A 
HETATM   23  C   UNL     1       0.500   6.720 -29.572  1.00  0.00     0.000 A 
HETATM   24  C   UNL     1       0.571   6.133 -30.835  1.00  0.00     0.001 A 
HETATM   25  C   UNL     1      -0.368   6.459 -31.815  1.00  0.00     0.007 A 
ENDBRANCH  19  20
ENDBRANCH  18  19
ENDBRANCH  15  18
ENDBRANCH   1  14
BRANCH   2  26
HETATM   26  N   UNL     1      -3.148   2.118 -31.236  1.00  0.00    -0.383 N 
HETATM   27  H   UNL     1      -3.215   1.164 -31.588  1.00  0.00     0.157 HD
HETATM   28  H   UNL     1      -2.616   2.145 -30.369  1.00  0.00     0.157 HD
ENDBRANCH   2  26
BRANCH   3  29
HETATM   29  N   UNL     1      -5.636   1.862 -29.674  1.00  0.00    -0.176 NA
HETATM   30  C   UNL     1      -6.245   0.762 -29.994  1.00  0.00     0.153 C 
BRANCH  30  31
HETATM   31  C   UNL     1      -6.865   0.425 -31.260  1.00  0.00     0.011 A 
HETATM   32  C   UNL     1      -6.306  -0.396 -32.292  1.00  0.00     0.004 A 
HETATM   33  C   UNL     1      -7.251  -0.480 -33.315  1.00  0.00     0.043 A 
HETATM   34  C   UNL     1      -5.068  -1.050 -32.465  1.00  0.00     0.014 A 
HETATM   35  C   UNL     1      -7.029  -1.197 -34.496  1.00  0.00     0.030 A 
HETATM   36  N   UNL     1      -8.350   0.246 -32.911  1.00  0.00    -0.364 N 
HETATM   37  C   UNL     1      -5.792  -1.831 -34.645  1.00  0.00     0.002 A 
HETATM   38  C   UNL     1      -4.823  -1.759 -33.648  1.00  0.00     0.001 A 
HETATM   39  H   UNL     1      -9.198   0.353 -33.453  1.00  0.00     0.165 HD
HETATM   40  C   UNL     1      -8.126   0.800 -31.678  1.00  0.00     0.102 A 
ENDBRANCH  30  31
ENDBRANCH   3  29
TORSDOF 7
ENDMDL
MODEL 10
REMARK VINA RESULT:      -9.6     15.933     18.057
REMARK  7 active torsions:
REMARK  status: ('A' for Active; 'I' for Inactive)
REMARK    1  A    between atoms: C_4  and  C_5 
REMARK    2  A    between atoms: C_5  and  C_6 
REMARK    3  A    between atoms: C_6  and  N_7 
REMARK       I    between atoms: N_7  and  C_8 
REMARK    4  A    between atoms: C_8  and  C_9 
REMARK    5  A    between atoms: C_10  and  N_11 
REMARK    6  A    between atoms: N_12  and  N_13 
REMARK    7  A    between atoms: C_14  and  C_15 
ROOT
HETATM    1  C   UNL     1      -5.440 -14.385 -39.197  1.00  0.00     0.110 A 
HETATM    2  C   UNL     1      -4.540 -13.380 -39.532  1.00  0.00     0.143 A 
HETATM    3  N   UNL     1      -4.006 -12.857 -38.352  1.00  0.00    -0.197 N 
HETATM    4  C   UNL     1      -4.679 -13.427 -37.287  1.00  0.00     0.183 A 
HETATM    5  C   UNL     1      -5.551 -14.386 -37.787  1.00  0.00     0.125 A 
HETATM    6  N   UNL     1      -6.368 -15.094 -36.963  1.00  0.00    -0.242 NA
HETATM    7  C   UNL     1      -6.272 -14.768 -35.662  1.00  0.00     0.086 A 
HETATM    8  C   UNL     1      -5.359 -13.793 -35.178  1.00  0.00     0.088 A 
HETATM    9  N   UNL     1      -4.528 -13.113 -35.979  1.00  0.00    -0.225 NA
HETATM   10  C   UNL     1      -7.114 -15.401 -34.755  1.00  0.00     0.034 A 
HETATM   11  C   UNL     1      -7.081 -15.103 -33.390  1.00  0.00     0.002 A 
HETATM   12  C   UNL     1      -6.180 -14.158 -32.919  1.00  0.00     0.002 A 
HETATM   13  C   UNL     1      -5.328 -13.515 -33.817  1.00  0.00     0.034 A 
ENDROOT
BRANCH   1  14
HETATM   14  C   UNL     1      -6.145 -15.201 -40.166  1.00  0.00     0.257 C 
HETATM   15  N   UNL     1      -6.490 -16.447 -39.666  1.00  0.00    -0.356 N 
HETATM   16  H   UNL     1      -6.148 -16.601 -38.722  1.00  0.00     0.162 HD
HETATM   17  O   UNL     1      -6.504 -14.765 -41.251  1.00  0.00    -0.267 OA
BRANCH  15  18
HETATM   18  C   UNL     1      -7.812 -16.998 -39.888  1.00  0.00     0.127 C 
BRANCH  18  19
HETATM   19  C   UNL     1      -8.932 -16.582 -38.935  1.00  0.00     0.058 C 
BRANCH  19  20
HETATM   20  C   UNL     1      -9.566 -15.310 -39.459  1.00  0.00    -0.057 A 
HETATM   21  C   UNL     1      -9.320 -14.090 -38.810  1.00  0.00     0.007 A 
HETATM   22  C   UNL     1      -9.979 -12.928 -39.210  1.00  0.00     0.001 A 
HETATM   23  C   UNL     1     -10.885 -12.972 -40.268  1.00  0.00     0.000 A 
HETATM   24  C   UNL     1     -11.125 -14.177 -40.928  1.00  0.00     0.001 A 
HETATM   25  C   UNL     1     -10.471 -15.342 -40.525  1.00  0.00     0.007 A 
ENDBRANCH  19  20
ENDBRANCH  18  19
ENDBRANCH  15  18
ENDBRANCH   1  14
BRANCH   2  26
HETATM   26  N   UNL     1      -4.192 -12.914 -40.765  1.00  0.00    -0.383 N 
HETATM   27  H   UNL     1      -3.804 -13.568 -41.443  1.00  0.00     0.157 HD
HETATM   28  H   UNL     1      -3.743 -12.004 -40.844  1.00  0.00     0.157 HD
ENDBRANCH   2  26
BRANCH   3  29
HETATM   29  N   UNL     1      -3.140 -11.802 -38.245  1.00  0.00    -0.176 NA
HETATM   30  C   UNL     1      -1.869 -12.028 -38.374  1.00  0.00     0.153 C 
BRANCH  30  31
HETATM   31  C   UNL     1      -1.200 -13.309 -38.474  1.00  0.00     0.011 A 
HETATM   32  C   UNL     1      -0.984 -14.245 -37.411  1.00  0.00     0.004 A 
HETATM   33  C   UNL     1      -0.333 -15.352 -37.956  1.00  0.00     0.043 A 
HETATM   34  C   UNL     1      -1.254 -14.238 -36.026  1.00  0.00     0.014 A 
HETATM   35  C   UNL     1       0.048 -16.460 -37.191  1.00  0.00     0.030 A 
HETATM   36  N   UNL     1      -0.176 -15.106 -39.303  1.00  0.00    -0.364 N 
HETATM   37  C   UNL     1      -0.226 -16.426 -35.821  1.00  0.00     0.002 A 
HETATM   38  C   UNL     1      -0.865 -15.332 -35.243  1.00  0.00     0.001 A 
HETATM   39  H   UNL     1       0.259 -15.746 -39.955  1.00  0.00     0.165 HD
HETATM   40  C   UNL     1      -0.689 -13.878 -39.624  1.00  0.00     0.102 A 
ENDBRANCH  30  31
ENDBRANCH   3  29
TORSDOF 7
ENDMDL
