MODEL 1
REMARK VINA RESULT:      -7.5      0.000      0.000
REMARK  10 active torsions:
REMARK  status: ('A' for Active; 'I' for Inactive)
REMARK    1  A    between atoms: C_6  and  C_7 
REMARK    2  A    between atoms: C_7  and  C_8 
REMARK       I    between atoms: C_8  and  N_9 
REMARK    3  A    between atoms: N_9  and  C_10 
REMARK    4  A    between atoms: C_10  and  C_11 
REMARK    5  A    between atoms: C_11  and  N_12 
REMARK    6  A    between atoms: C_19  and  C_20 
REMARK    7  A    between atoms: C_29  and  C_30 
REMARK    8  A    between atoms: C_30  and  O_31 
REMARK    9  A    between atoms: O_31  and  C_32 
REMARK   10  A    between atoms: C_32  and  C_33 
ROOT
HETATM    1  C   UNL     1      -1.836   4.991 -34.947  1.00  0.00     0.071 C 
HETATM    2  C   UNL     1      -2.850   5.599 -34.012  1.00  0.00     0.048 C 
HETATM    3  N   UNL     1      -4.153   5.623 -34.525  1.00  0.00    -0.229 NA
HETATM    4  C   UNL     1      -5.102   5.454 -33.657  1.00  0.00     0.170 C 
HETATM    5  N   UNL     1      -4.839   5.502 -32.115  1.00  0.00    -0.319 N 
HETATM    6  C   UNL     1      -5.445   4.497 -31.570  1.00  0.00     0.011 C 
HETATM    7  C   UNL     1      -3.733   6.456 -31.910  1.00  0.00     0.166 C 
HETATM    8  S   UNL     1      -6.680   4.850 -33.982  1.00  0.00    -0.086 SA
HETATM    9  C   UNL     1      -6.630   3.965 -32.372  1.00  0.00     0.135 C 
HETATM   10  C   UNL     1      -2.602   5.896 -32.712  1.00  0.00     0.069 C 
ENDROOT
BRANCH   6  11
HETATM   11  C   UNL     1      -4.953   3.881 -30.292  1.00  0.00     0.156 C 
BRANCH  11  12
HETATM   12  C   UNL     1      -4.883   2.373 -30.364  1.00  0.00     0.223 C 
HETATM   13  N   UNL     1      -3.907   1.814 -31.162  1.00  0.00    -0.359 N 
HETATM   14  H   UNL     1      -3.288   2.406 -31.716  1.00  0.00     0.162 HD
HETATM   15  O   UNL     1      -5.713   1.689 -29.771  1.00  0.00    -0.273 OA
BRANCH  13  16
HETATM   16  C   UNL     1      -3.792   0.357 -31.196  1.00  0.00     0.150 C 
BRANCH  16  17
HETATM   17  C   UNL     1      -3.903  -0.297 -32.584  1.00  0.00     0.254 C 
BRANCH  17  18
HETATM   18  N   UNL     1      -5.127  -1.192 -32.673  1.00  0.00    -0.070 N 
HETATM   19  H   UNL     1      -5.104  -1.863 -31.891  1.00  0.00     0.279 HD
HETATM   20  C   UNL     1      -5.216  -2.005 -33.961  1.00  0.00     0.235 C 
HETATM   21  C   UNL     1      -6.357  -1.372 -34.726  1.00  0.00     0.029 C 
HETATM   22  C   UNL     1      -7.335  -1.012 -33.629  1.00  0.00     0.029 C 
HETATM   23  C   UNL     1      -6.445  -0.429 -32.548  1.00  0.00     0.235 C 
ENDBRANCH  17  18
ENDBRANCH  16  17
ENDBRANCH  13  16
ENDBRANCH  11  12
ENDBRANCH   6  11
BRANCH   7  24
HETATM   24  C   UNL     1      -3.483   7.090 -30.549  1.00  0.00    -0.030 A 
HETATM   25  C   UNL     1      -4.027   6.613 -29.347  1.00  0.00     0.011 A 
HETATM   26  C   UNL     1      -3.868   7.320 -28.145  1.00  0.00     0.024 A 
HETATM   27  C   UNL     1      -3.209   8.544 -28.131  1.00  0.00     0.034 A 
HETATM   28 CL   UNL     1      -3.048   9.419 -26.663  1.00  0.00    -0.084 Cl
HETATM   29  C   UNL     1      -2.715   9.074 -29.314  1.00  0.00     0.024 A 
HETATM   30  C   UNL     1      -2.861   8.361 -30.507  1.00  0.00     0.011 A 
ENDBRANCH   7  24
BRANCH  10  31
HETATM   31  C   UNL     1      -1.622   5.078 -31.981  1.00  0.00     0.294 C 
HETATM   32  O   UNL     1      -1.948   3.970 -31.569  1.00  0.00    -0.259 OA
BRANCH  31  33
HETATM   33  O   UNL     1      -0.510   5.769 -31.684  1.00  0.00    -0.314 OA
BRANCH  33  34
HETATM   34  C   UNL     1       0.201   5.222 -30.565  1.00  0.00     0.206 C 
BRANCH  34  35
HETATM   35  C   UNL     1      -0.039   6.091 -29.375  1.00  0.00    -0.011 C 
HETATM   36  C   UNL     1       0.520   7.296 -29.203  1.00  0.00     0.009 C 
ENDBRANCH  34  35
ENDBRANCH  33  34
ENDBRANCH  31  33
ENDBRANCH  10  31
TORSDOF 10
ENDMDL
MODEL 2
REMARK VINA RESULT:      -7.5      3.863      8.564
REMARK  10 active torsions:
REMARK  status: ('A' for Active; 'I' for Inactive)
REMARK    1  A    between atoms: C_6  and  C_7 
REMARK    2  A    between atoms: C_7  and  C_8 
REMARK       I    between atoms: C_8  and  N_9 
REMARK    3  A    between atoms: N_9  and  C_10 
REMARK    4  A    between atoms: C_10  and  C_11 
REMARK    5  A    between atoms: C_11  and  N_12 
REMARK    6  A    between atoms: C_19  and  C_20 
REMARK    7  A    between atoms: C_29  and  C_30 
REMARK    8  A    between atoms: C_30  and  O_31 
REMARK    9  A    between atoms: O_31  and  C_32 
REMARK   10  A    between atoms: C_32  and  C_33 
ROOT
HETATM    1  C   UNL     1      -4.854  -0.989 -32.033  1.00  0.00     0.071 C 
HETATM    2  C   UNL     1      -5.994  -0.067 -31.678  1.00  0.00     0.048 C 
HETATM    3  N   UNL     1      -5.797   0.649 -30.490  1.00  0.00    -0.229 NA
HETATM    4  C   UNL     1      -6.287   1.849 -30.470  1.00  0.00     0.170 C 
HETATM    5  N   UNL     1      -7.268   2.367 -31.574  1.00  0.00    -0.319 N 
HETATM    6  C   UNL     1      -6.879   3.546 -31.939  1.00  0.00     0.011 C 
HETATM    7  C   UNL     1      -8.047   1.198 -32.022  1.00  0.00     0.166 C 
HETATM    8  S   UNL     1      -5.743   3.151 -29.485  1.00  0.00    -0.086 SA
HETATM    9  C   UNL     1      -6.060   4.294 -30.890  1.00  0.00     0.135 C 
HETATM   10  C   UNL     1      -7.018   0.231 -32.516  1.00  0.00     0.069 C 
ENDROOT
BRANCH   6  11
HETATM   11  C   UNL     1      -7.162   4.075 -33.316  1.00  0.00     0.156 C 
BRANCH  11  12
HETATM   12  C   UNL     1      -6.029   4.916 -33.859  1.00  0.00     0.223 C 
HETATM   13  N   UNL     1      -5.084   4.288 -34.643  1.00  0.00    -0.359 N 
HETATM   14  H   UNL     1      -5.132   3.283 -34.807  1.00  0.00     0.162 HD
HETATM   15  O   UNL     1      -5.940   6.102 -33.551  1.00  0.00    -0.273 OA
BRANCH  13  16
HETATM   16  C   UNL     1      -4.015   5.100 -35.221  1.00  0.00     0.150 C 
BRANCH  16  17
HETATM   17  C   UNL     1      -2.699   5.149 -34.426  1.00  0.00     0.254 C 
BRANCH  17  18
HETATM   18  N   UNL     1      -2.761   6.194 -33.324  1.00  0.00    -0.070 N 
HETATM   19  H   UNL     1      -3.695   6.630 -33.335  1.00  0.00     0.279 HD
HETATM   20  C   UNL     1      -1.738   7.316 -33.467  1.00  0.00     0.235 C 
HETATM   21  C   UNL     1      -0.745   7.062 -32.355  1.00  0.00     0.029 C 
HETATM   22  C   UNL     1      -1.625   6.567 -31.228  1.00  0.00     0.029 C 
HETATM   23  C   UNL     1      -2.573   5.610 -31.924  1.00  0.00     0.235 C 
ENDBRANCH  17  18
ENDBRANCH  16  17
ENDBRANCH  13  16
ENDBRANCH  11  12
ENDBRANCH   6  11
BRANCH   7  24
HETATM   24  C   UNL     1      -9.370   1.367 -32.754  1.00  0.00    -0.030 A 
HETATM   25  C   UNL     1      -9.941   2.610 -33.070  1.00  0.00     0.011 A 
HETATM   26  C   UNL     1     -11.226   2.699 -33.626  1.00  0.00     0.024 A 
HETATM   27  C   UNL     1     -11.988   1.553 -33.827  1.00  0.00     0.034 A 
HETATM   28 CL   UNL     1     -13.572   1.674 -34.475  1.00  0.00    -0.084 Cl
HETATM   29  C   UNL     1     -11.477   0.315 -33.465  1.00  0.00     0.024 A 
HETATM   30  C   UNL     1     -10.190   0.227 -32.926  1.00  0.00     0.011 A 
ENDBRANCH   7  24
BRANCH  10  31
HETATM   31  C   UNL     1      -6.762   0.228 -33.964  1.00  0.00     0.294 C 
HETATM   32  O   UNL     1      -6.213   1.196 -34.482  1.00  0.00    -0.259 OA
BRANCH  31  33
HETATM   33  O   UNL     1      -7.365  -0.800 -34.581  1.00  0.00    -0.314 OA
BRANCH  33  34
HETATM   34  C   UNL     1      -6.438  -1.797 -35.035  1.00  0.00     0.206 C 
BRANCH  34  35
HETATM   35  C   UNL     1      -6.914  -3.136 -34.583  1.00  0.00    -0.011 C 
HETATM   36  C   UNL     1      -6.387  -4.297 -34.993  1.00  0.00     0.009 C 
ENDBRANCH  34  35
ENDBRANCH  33  34
ENDBRANCH  31  33
ENDBRANCH  10  31
TORSDOF 10
ENDMDL
MODEL 3
REMARK VINA RESULT:      -7.4      2.860      7.116
REMARK  10 active torsions:
REMARK  status: ('A' for Active; 'I' for Inactive)
REMARK    1  A    between atoms: C_6  and  C_7 
REMARK    2  A    between atoms: C_7  and  C_8 
REMARK       I    between atoms: C_8  and  N_9 
REMARK    3  A    between atoms: N_9  and  C_10 
REMARK    4  A    between atoms: C_10  and  C_11 
REMARK    5  A    between atoms: C_11  and  N_12 
REMARK    6  A    between atoms: C_19  and  C_20 
REMARK    7  A    between atoms: C_29  and  C_30 
REMARK    8  A    between atoms: C_30  and  O_31 
REMARK    9  A    between atoms: O_31  and  C_32 
REMARK   10  A    between atoms: C_32  and  C_33 
ROOT
HETATM    1  C   UNL     1      -8.909   0.407 -32.141  1.00  0.00     0.071 C 
HETATM    2  C   UNL     1      -8.359   1.789 -32.394  1.00  0.00     0.048 C 
HETATM    3  N   UNL     1      -9.284   2.817 -32.177  1.00  0.00    -0.229 NA
HETATM    4  C   UNL     1      -8.797   3.921 -31.701  1.00  0.00     0.170 C 
HETATM    5  N   UNL     1      -7.257   4.191 -31.635  1.00  0.00    -0.319 N 
HETATM    6  C   UNL     1      -6.980   4.667 -30.464  1.00  0.00     0.011 C 
HETATM    7  C   UNL     1      -6.660   3.489 -32.787  1.00  0.00     0.166 C 
HETATM    8  S   UNL     1      -9.658   5.103 -30.794  1.00  0.00    -0.086 SA
HETATM    9  C   UNL     1      -8.153   5.354 -29.769  1.00  0.00     0.135 C 
HETATM   10  C   UNL     1      -7.044   2.057 -32.592  1.00  0.00     0.069 C 
ENDROOT
BRANCH   6  11
HETATM   11  C   UNL     1      -5.629   4.476 -29.837  1.00  0.00     0.156 C 
BRANCH  11  12
HETATM   12  C   UNL     1      -4.846   5.765 -29.742  1.00  0.00     0.223 C 
HETATM   13  N   UNL     1      -4.259   6.071 -28.532  1.00  0.00    -0.359 N 
HETATM   14  H   UNL     1      -4.393   5.465 -27.723  1.00  0.00     0.162 HD
HETATM   15  O   UNL     1      -4.796   6.528 -30.704  1.00  0.00    -0.273 OA
BRANCH  13  16
HETATM   16  C   UNL     1      -3.452   7.286 -28.442  1.00  0.00     0.150 C 
BRANCH  16  17
HETATM   17  C   UNL     1      -1.932   7.100 -28.596  1.00  0.00     0.254 C 
BRANCH  17  18
HETATM   18  N   UNL     1      -1.594   6.407 -29.905  1.00  0.00    -0.070 N 
HETATM   19  H   UNL     1      -2.344   5.736 -30.128  1.00  0.00     0.279 HD
HETATM   20  C   UNL     1      -0.285   5.625 -29.878  1.00  0.00     0.235 C 
HETATM   21  C   UNL     1       0.653   6.432 -30.749  1.00  0.00     0.029 C 
HETATM   22  C   UNL     1      -0.261   6.934 -31.846  1.00  0.00     0.029 C 
HETATM   23  C   UNL     1      -1.504   7.365 -31.092  1.00  0.00     0.235 C 
ENDBRANCH  17  18
ENDBRANCH  16  17
ENDBRANCH  13  16
ENDBRANCH  11  12
ENDBRANCH   6  11
BRANCH   7  24
HETATM   24  C   UNL     1      -5.279   3.861 -33.305  1.00  0.00    -0.030 A 
HETATM   25  C   UNL     1      -4.087   3.637 -32.598  1.00  0.00     0.011 A 
HETATM   26  C   UNL     1      -2.858   4.124 -33.072  1.00  0.00     0.024 A 
HETATM   27  C   UNL     1      -2.804   4.889 -34.231  1.00  0.00     0.034 A 
HETATM   28 CL   UNL     1      -1.303   5.509 -34.785  1.00  0.00    -0.084 Cl
HETATM   29  C   UNL     1      -3.973   5.182 -34.919  1.00  0.00     0.024 A 
HETATM   30  C   UNL     1      -5.194   4.683 -34.454  1.00  0.00     0.011 A 
ENDBRANCH   7  24
BRANCH  10  31
HETATM   31  C   UNL     1      -6.047   1.193 -31.942  1.00  0.00     0.294 C 
HETATM   32  O   UNL     1      -5.827   1.322 -30.742  1.00  0.00    -0.259 OA
BRANCH  31  33
HETATM   33  O   UNL     1      -5.342   0.478 -32.834  1.00  0.00    -0.314 OA
BRANCH  33  34
HETATM   34  C   UNL     1      -5.444  -0.936 -32.616  1.00  0.00     0.206 C 
BRANCH  34  35
HETATM   35  C   UNL     1      -5.966  -1.575 -33.859  1.00  0.00    -0.011 C 
HETATM   36  C   UNL     1      -6.596  -0.910 -34.836  1.00  0.00     0.009 C 
ENDBRANCH  34  35
ENDBRANCH  33  34
ENDBRANCH  31  33
ENDBRANCH  10  31
TORSDOF 10
ENDMDL
MODEL 4
REMARK VINA RESULT:      -6.9      3.269      8.377
REMARK  10 active torsions:
REMARK  status: ('A' for Active; 'I' for Inactive)
REMARK    1  A    between atoms: C_6  and  C_7 
REMARK    2  A    between atoms: C_7  and  C_8 
REMARK       I    between atoms: C_8  and  N_9 
REMARK    3  A    between atoms: N_9  and  C_10 
REMARK    4  A    between atoms: C_10  and  C_11 
REMARK    5  A    between atoms: C_11  and  N_12 
REMARK    6  A    between atoms: C_19  and  C_20 
REMARK    7  A    between atoms: C_29  and  C_30 
REMARK    8  A    between atoms: C_30  and  O_31 
REMARK    9  A    between atoms: O_31  and  C_32 
REMARK   10  A    between atoms: C_32  and  C_33 
ROOT
HETATM    1  C   UNL     1      -7.883   5.028 -32.840  1.00  0.00     0.071 C 
HETATM    2  C   UNL     1      -6.699   4.210 -33.289  1.00  0.00     0.048 C 
HETATM    3  N   UNL     1      -5.991   4.774 -34.357  1.00  0.00    -0.229 NA
HETATM    4  C   UNL     1      -4.709   4.581 -34.347  1.00  0.00     0.170 C 
HETATM    5  N   UNL     1      -4.028   3.561 -33.374  1.00  0.00    -0.319 N 
HETATM    6  C   UNL     1      -2.997   4.135 -32.843  1.00  0.00     0.011 C 
HETATM    7  C   UNL     1      -4.998   2.471 -33.167  1.00  0.00     0.166 C 
HETATM    8  S   UNL     1      -3.525   5.574 -35.106  1.00  0.00    -0.086 SA
HETATM    9  C   UNL     1      -2.414   5.277 -33.672  1.00  0.00     0.135 C 
HETATM   10  C   UNL     1      -6.207   3.147 -32.604  1.00  0.00     0.069 C 
ENDROOT
BRANCH   6  11
HETATM   11  C   UNL     1      -2.487   3.738 -31.488  1.00  0.00     0.156 C 
BRANCH  11  12
HETATM   12  C   UNL     1      -1.504   4.737 -30.922  1.00  0.00     0.223 C 
HETATM   13  N   UNL     1      -2.010   5.908 -30.398  1.00  0.00    -0.359 N 
HETATM   14  H   UNL     1      -3.010   6.104 -30.437  1.00  0.00     0.162 HD
HETATM   15  O   UNL     1      -0.297   4.520 -30.989  1.00  0.00    -0.273 OA
BRANCH  13  16
HETATM   16  C   UNL     1      -1.076   6.858 -29.796  1.00  0.00     0.150 C 
BRANCH  16  17
HETATM   17  C   UNL     1      -1.018   6.865 -28.259  1.00  0.00     0.254 C 
BRANCH  17  18
HETATM   18  N   UNL     1      -0.375   8.140 -27.739  1.00  0.00    -0.070 N 
HETATM   19  H   UNL     1      -0.832   8.947 -28.188  1.00  0.00     0.279 HD
HETATM   20  C   UNL     1       1.119   8.249 -28.028  1.00  0.00     0.235 C 
HETATM   21  C   UNL     1       1.776   8.072 -26.676  1.00  0.00     0.029 C 
HETATM   22  C   UNL     1       0.820   8.785 -25.744  1.00  0.00     0.029 C 
HETATM   23  C   UNL     1      -0.542   8.331 -26.232  1.00  0.00     0.235 C 
ENDBRANCH  17  18
ENDBRANCH  16  17
ENDBRANCH  13  16
ENDBRANCH  11  12
ENDBRANCH   6  11
BRANCH   7  24
HETATM   24  C   UNL     1      -4.555   1.111 -32.647  1.00  0.00    -0.030 A 
HETATM   25  C   UNL     1      -3.472   0.917 -31.775  1.00  0.00     0.011 A 
HETATM   26  C   UNL     1      -3.032  -0.373 -31.439  1.00  0.00     0.024 A 
HETATM   27  C   UNL     1      -3.629  -1.492 -32.009  1.00  0.00     0.034 A 
HETATM   28 CL   UNL     1      -3.061  -3.064 -31.619  1.00  0.00    -0.084 Cl
HETATM   29  C   UNL     1      -4.660  -1.332 -32.923  1.00  0.00     0.024 A 
HETATM   30  C   UNL     1      -5.108  -0.047 -33.245  1.00  0.00     0.011 A 
ENDBRANCH   7  24
BRANCH  10  31
HETATM   31  C   UNL     1      -6.346   3.132 -31.140  1.00  0.00     0.294 C 
HETATM   32  O   UNL     1      -5.727   3.950 -30.467  1.00  0.00    -0.259 OA
BRANCH  31  33
HETATM   33  O   UNL     1      -7.014   2.051 -30.708  1.00  0.00    -0.314 OA
BRANCH  33  34
HETATM   34  C   UNL     1      -8.327   1.946 -31.276  1.00  0.00     0.206 C 
BRANCH  34  35
HETATM   35  C   UNL     1      -8.549   0.536 -31.712  1.00  0.00    -0.011 C 
HETATM   36  C   UNL     1      -9.542   0.150 -32.523  1.00  0.00     0.009 C 
ENDBRANCH  34  35
ENDBRANCH  33  34
ENDBRANCH  31  33
ENDBRANCH  10  31
TORSDOF 10
ENDMDL
MODEL 5
REMARK VINA RESULT:      -6.9      1.569      2.116
REMARK  10 active torsions:
REMARK  status: ('A' for Active; 'I' for Inactive)
REMARK    1  A    between atoms: C_6  and  C_7 
REMARK    2  A    between atoms: C_7  and  C_8 
REMARK       I    between atoms: C_8  and  N_9 
REMARK    3  A    between atoms: N_9  and  C_10 
REMARK    4  A    between atoms: C_10  and  C_11 
REMARK    5  A    between atoms: C_11  and  N_12 
REMARK    6  A    between atoms: C_19  and  C_20 
REMARK    7  A    between atoms: C_29  and  C_30 
REMARK    8  A    between atoms: C_30  and  O_31 
REMARK    9  A    between atoms: O_31  and  C_32 
REMARK   10  A    between atoms: C_32  and  C_33 
ROOT
HETATM    1  C   UNL     1      -3.654   5.148 -34.967  1.00  0.00     0.071 C 
HETATM    2  C   UNL     1      -4.625   5.308 -33.824  1.00  0.00     0.048 C 
HETATM    3  N   UNL     1      -5.964   5.109 -34.183  1.00  0.00    -0.229 NA
HETATM    4  C   UNL     1      -6.712   4.558 -33.278  1.00  0.00     0.170 C 
HETATM    5  N   UNL     1      -6.237   4.384 -31.797  1.00  0.00    -0.319 N 
HETATM    6  C   UNL     1      -6.522   3.178 -31.421  1.00  0.00     0.011 C 
HETATM    7  C   UNL     1      -5.347   5.523 -31.507  1.00  0.00     0.166 C 
HETATM    8  S   UNL     1      -8.152   3.660 -33.561  1.00  0.00    -0.086 SA
HETATM    9  C   UNL     1      -7.670   2.531 -32.192  1.00  0.00     0.135 C 
HETATM   10  C   UNL     1      -4.255   5.411 -32.523  1.00  0.00     0.069 C 
ENDROOT
BRANCH   6  11
HETATM   11  C   UNL     1      -5.722   2.476 -30.362  1.00  0.00     0.156 C 
BRANCH  11  12
HETATM   12  C   UNL     1      -5.433   1.034 -30.714  1.00  0.00     0.223 C 
HETATM   13  N   UNL     1      -4.609   0.791 -31.792  1.00  0.00    -0.359 N 
HETATM   14  H   UNL     1      -4.248   1.562 -32.354  1.00  0.00     0.162 HD
HETATM   15  O   UNL     1      -5.971   0.127 -30.085  1.00  0.00    -0.273 OA
BRANCH  13  16
HETATM   16  C   UNL     1      -4.275  -0.597 -32.109  1.00  0.00     0.150 C 
BRANCH  16  17
HETATM   17  C   UNL     1      -5.156  -1.278 -33.170  1.00  0.00     0.254 C 
BRANCH  17  18
HETATM   18  N   UNL     1      -4.355  -2.276 -33.990  1.00  0.00    -0.070 N 
HETATM   19  H   UNL     1      -3.608  -1.771 -34.488  1.00  0.00     0.279 HD
HETATM   20  C   UNL     1      -5.173  -3.020 -35.041  1.00  0.00     0.235 C 
HETATM   21  C   UNL     1      -5.269  -4.434 -34.509  1.00  0.00     0.029 C 
HETATM   22  C   UNL     1      -3.910  -4.645 -33.876  1.00  0.00     0.029 C 
HETATM   23  C   UNL     1      -3.665  -3.342 -33.140  1.00  0.00     0.235 C 
ENDBRANCH  17  18
ENDBRANCH  16  17
ENDBRANCH  13  16
ENDBRANCH  11  12
ENDBRANCH   6  11
BRANCH   7  24
HETATM   24  C   UNL     1      -5.039   5.937 -30.076  1.00  0.00    -0.030 A 
HETATM   25  C   UNL     1      -5.640   5.363 -28.944  1.00  0.00     0.011 A 
HETATM   26  C   UNL     1      -5.413   5.880 -27.659  1.00  0.00     0.024 A 
HETATM   27  C   UNL     1      -4.625   7.012 -27.486  1.00  0.00     0.034 A 
HETATM   28 CL   UNL     1      -4.381   7.659 -25.914  1.00  0.00    -0.084 Cl
HETATM   29  C   UNL     1      -4.069   7.641 -28.590  1.00  0.00     0.024 A 
HETATM   30  C   UNL     1      -4.283   7.115 -29.867  1.00  0.00     0.011 A 
ENDBRANCH   7  24
BRANCH  10  31
HETATM   31  C   UNL     1      -3.022   4.736 -32.089  1.00  0.00     0.294 C 
HETATM   32  O   UNL     1      -3.027   3.521 -31.921  1.00  0.00    -0.259 OA
BRANCH  31  33
HETATM   33  O   UNL     1      -2.066   5.609 -31.735  1.00  0.00    -0.314 OA
BRANCH  33  34
HETATM   34  C   UNL     1      -0.757   5.201 -32.158  1.00  0.00     0.206 C 
BRANCH  34  35
HETATM   35  C   UNL     1       0.236   5.642 -31.136  1.00  0.00    -0.011 C 
HETATM   36  C   UNL     1       0.223   6.846 -30.550  1.00  0.00     0.009 C 
ENDBRANCH  34  35
ENDBRANCH  33  34
ENDBRANCH  31  33
ENDBRANCH  10  31
TORSDOF 10
ENDMDL
MODEL 6
REMARK VINA RESULT:      -6.8      3.104      7.682
REMARK  10 active torsions:
REMARK  status: ('A' for Active; 'I' for Inactive)
REMARK    1  A    between atoms: C_6  and  C_7 
REMARK    2  A    between atoms: C_7  and  C_8 
REMARK       I    between atoms: C_8  and  N_9 
REMARK    3  A    between atoms: N_9  and  C_10 
REMARK    4  A    between atoms: C_10  and  C_11 
REMARK    5  A    between atoms: C_11  and  N_12 
REMARK    6  A    between atoms: C_19  and  C_20 
REMARK    7  A    between atoms: C_29  and  C_30 
REMARK    8  A    between atoms: C_30  and  O_31 
REMARK    9  A    between atoms: O_31  and  C_32 
REMARK   10  A    between atoms: C_32  and  C_33 
ROOT
HETATM    1  C   UNL     1      -7.813   5.169 -32.405  1.00  0.00     0.071 C 
HETATM    2  C   UNL     1      -6.718   4.304 -32.977  1.00  0.00     0.048 C 
HETATM    3  N   UNL     1      -6.113   4.836 -34.123  1.00  0.00    -0.229 NA
HETATM    4  C   UNL     1      -4.846   4.595 -34.254  1.00  0.00     0.170 C 
HETATM    5  N   UNL     1      -4.100   3.553 -33.354  1.00  0.00    -0.319 N 
HETATM    6  C   UNL     1      -2.995   4.090 -32.947  1.00  0.00     0.011 C 
HETATM    7  C   UNL     1      -5.081   2.501 -33.031  1.00  0.00     0.166 C 
HETATM    8  S   UNL     1      -3.719   5.538 -35.149  1.00  0.00    -0.086 SA
HETATM    9  C   UNL     1      -2.465   5.205 -33.845  1.00  0.00     0.135 C 
HETATM   10  C   UNL     1      -6.193   3.226 -32.343  1.00  0.00     0.069 C 
ENDROOT
BRANCH   6  11
HETATM   11  C   UNL     1      -2.351   3.679 -31.654  1.00  0.00     0.156 C 
BRANCH  11  12
HETATM   12  C   UNL     1      -1.646   4.825 -30.966  1.00  0.00     0.223 C 
HETATM   13  N   UNL     1      -2.426   5.793 -30.369  1.00  0.00    -0.359 N 
HETATM   14  H   UNL     1      -3.443   5.751 -30.434  1.00  0.00     0.162 HD
HETATM   15  O   UNL     1      -0.420   4.904 -31.001  1.00  0.00    -0.273 OA
BRANCH  13  16
HETATM   16  C   UNL     1      -1.757   6.876 -29.652  1.00  0.00     0.150 C 
BRANCH  16  17
HETATM   17  C   UNL     1      -2.243   7.136 -28.215  1.00  0.00     0.254 C 
BRANCH  17  18
HETATM   18  N   UNL     1      -1.138   7.735 -27.362  1.00  0.00    -0.070 N 
HETATM   19  H   UNL     1      -1.566   8.207 -26.551  1.00  0.00     0.279 HD
HETATM   20  C   UNL     1      -0.281   8.769 -28.084  1.00  0.00     0.235 C 
HETATM   21  C   UNL     1       1.054   8.081 -28.276  1.00  0.00     0.029 C 
HETATM   22  C   UNL     1       1.204   7.283 -26.999  1.00  0.00     0.029 C 
HETATM   23  C   UNL     1      -0.177   6.690 -26.796  1.00  0.00     0.235 C 
ENDBRANCH  17  18
ENDBRANCH  16  17
ENDBRANCH  13  16
ENDBRANCH  11  12
ENDBRANCH   6  11
BRANCH   7  24
HETATM   24  C   UNL     1      -4.633   1.128 -32.553  1.00  0.00    -0.030 A 
HETATM   25  C   UNL     1      -3.639   0.917 -31.585  1.00  0.00     0.011 A 
HETATM   26  C   UNL     1      -3.178  -0.374 -31.285  1.00  0.00     0.024 A 
HETATM   27  C   UNL     1      -3.663  -1.474 -31.983  1.00  0.00     0.034 A 
HETATM   28 CL   UNL     1      -3.069  -3.046 -31.634  1.00  0.00    -0.084 Cl
HETATM   29  C   UNL     1      -4.600  -1.293 -32.989  1.00  0.00     0.024 A 
HETATM   30  C   UNL     1      -5.069  -0.008 -33.276  1.00  0.00     0.011 A 
ENDBRANCH   7  24
BRANCH  10  31
HETATM   31  C   UNL     1      -6.167   3.222 -30.872  1.00  0.00     0.294 C 
HETATM   32  O   UNL     1      -6.959   2.516 -30.257  1.00  0.00    -0.259 OA
BRANCH  31  33
HETATM   33  O   UNL     1      -5.370   4.183 -30.379  1.00  0.00    -0.314 OA
BRANCH  33  34
HETATM   34  C   UNL     1      -5.787   4.640 -29.084  1.00  0.00     0.206 C 
BRANCH  34  35
HETATM   35  C   UNL     1      -6.468   5.959 -29.238  1.00  0.00    -0.011 C 
HETATM   36  C   UNL     1      -5.823   7.128 -29.337  1.00  0.00     0.009 C 
ENDBRANCH  34  35
ENDBRANCH  33  34
ENDBRANCH  31  33
ENDBRANCH  10  31
TORSDOF 10
ENDMDL
MODEL 7
REMARK VINA RESULT:      -6.8      4.746      6.804
REMARK  10 active torsions:
REMARK  status: ('A' for Active; 'I' for Inactive)
REMARK    1  A    between atoms: C_6  and  C_7 
REMARK    2  A    between atoms: C_7  and  C_8 
REMARK       I    between atoms: C_8  and  N_9 
REMARK    3  A    between atoms: N_9  and  C_10 
REMARK    4  A    between atoms: C_10  and  C_11 
REMARK    5  A    between atoms: C_11  and  N_12 
REMARK    6  A    between atoms: C_19  and  C_20 
REMARK    7  A    between atoms: C_29  and  C_30 
REMARK    8  A    between atoms: C_30  and  O_31 
REMARK    9  A    between atoms: O_31  and  C_32 
REMARK   10  A    between atoms: C_32  and  C_33 
ROOT
HETATM    1  C   UNL     1      -3.546   6.338 -30.890  1.00  0.00     0.071 C 
HETATM    2  C   UNL     1      -4.359   5.069 -30.842  1.00  0.00     0.048 C 
HETATM    3  N   UNL     1      -5.382   5.086 -29.885  1.00  0.00    -0.229 NA
HETATM    4  C   UNL     1      -6.465   4.451 -30.209  1.00  0.00     0.170 C 
HETATM    5  N   UNL     1      -6.533   3.498 -31.449  1.00  0.00    -0.319 N 
HETATM    6  C   UNL     1      -7.617   3.764 -32.104  1.00  0.00     0.011 C 
HETATM    7  C   UNL     1      -5.190   2.907 -31.595  1.00  0.00     0.166 C 
HETATM    8  S   UNL     1      -8.043   4.753 -29.593  1.00  0.00    -0.086 SA
HETATM    9  C   UNL     1      -8.721   4.403 -31.265  1.00  0.00     0.135 C 
HETATM   10  C   UNL     1      -4.281   4.082 -31.769  1.00  0.00     0.069 C 
ENDROOT
BRANCH   6  11
HETATM   11  C   UNL     1      -7.722   3.522 -33.582  1.00  0.00     0.156 C 
BRANCH  11  12
HETATM   12  C   UNL     1      -9.125   3.723 -34.106  1.00  0.00     0.223 C 
HETATM   13  N   UNL     1      -9.990   2.649 -34.051  1.00  0.00    -0.359 N 
HETATM   14  H   UNL     1      -9.670   1.743 -33.708  1.00  0.00     0.162 HD
HETATM   15  O   UNL     1      -9.446   4.794 -34.612  1.00  0.00    -0.273 OA
BRANCH  13  16
HETATM   16  C   UNL     1     -11.366   2.846 -34.501  1.00  0.00     0.150 C 
BRANCH  16  17
HETATM   17  C   UNL     1     -12.337   3.437 -33.464  1.00  0.00     0.254 C 
BRANCH  17  18
HETATM   18  N   UNL     1     -13.124   2.343 -32.761  1.00  0.00    -0.070 N 
HETATM   19  H   UNL     1     -12.609   2.057 -31.916  1.00  0.00     0.279 HD
HETATM   20  C   UNL     1     -13.340   1.089 -33.603  1.00  0.00     0.235 C 
HETATM   21  C   UNL     1     -14.815   1.113 -33.939  1.00  0.00     0.029 C 
HETATM   22  C   UNL     1     -15.437   1.661 -32.673  1.00  0.00     0.029 C 
HETATM   23  C   UNL     1     -14.506   2.797 -32.293  1.00  0.00     0.235 C 
ENDBRANCH  17  18
ENDBRANCH  16  17
ENDBRANCH  13  16
ENDBRANCH  11  12
ENDBRANCH   6  11
BRANCH   7  24
HETATM   24  C   UNL     1      -4.975   1.631 -32.396  1.00  0.00    -0.030 A 
HETATM   25  C   UNL     1      -5.974   0.999 -33.153  1.00  0.00     0.011 A 
HETATM   26  C   UNL     1      -5.748  -0.246 -33.760  1.00  0.00     0.024 A 
HETATM   27  C   UNL     1      -4.539  -0.908 -33.578  1.00  0.00     0.034 A 
HETATM   28 CL   UNL     1      -4.283  -2.446 -34.296  1.00  0.00    -0.084 Cl
HETATM   29  C   UNL     1      -3.554  -0.340 -32.784  1.00  0.00     0.024 A 
HETATM   30  C   UNL     1      -3.775   0.908 -32.193  1.00  0.00     0.011 A 
ENDBRANCH   7  24
BRANCH  10  31
HETATM   31  C   UNL     1      -3.934   4.444 -33.151  1.00  0.00     0.294 C 
HETATM   32  O   UNL     1      -4.795   4.919 -33.885  1.00  0.00    -0.259 OA
BRANCH  31  33
HETATM   33  O   UNL     1      -2.713   4.006 -33.496  1.00  0.00    -0.314 OA
BRANCH  33  34
HETATM   34  C   UNL     1      -2.048   4.883 -34.417  1.00  0.00     0.206 C 
BRANCH  34  35
HETATM   35  C   UNL     1      -1.160   5.802 -33.647  1.00  0.00    -0.011 C 
HETATM   36  C   UNL     1      -1.245   7.138 -33.694  1.00  0.00     0.009 C 
ENDBRANCH  34  35
ENDBRANCH  33  34
ENDBRANCH  31  33
ENDBRANCH  10  31
TORSDOF 10
ENDMDL
MODEL 8
REMARK VINA RESULT:      -6.8      4.026      6.186
REMARK  10 active torsions:
REMARK  status: ('A' for Active; 'I' for Inactive)
REMARK    1  A    between atoms: C_6  and  C_7 
REMARK    2  A    between atoms: C_7  and  C_8 
REMARK       I    between atoms: C_8  and  N_9 
REMARK    3  A    between atoms: N_9  and  C_10 
REMARK    4  A    between atoms: C_10  and  C_11 
REMARK    5  A    between atoms: C_11  and  N_12 
REMARK    6  A    between atoms: C_19  and  C_20 
REMARK    7  A    between atoms: C_29  and  C_30 
REMARK    8  A    between atoms: C_30  and  O_31 
REMARK    9  A    between atoms: O_31  and  C_32 
REMARK   10  A    between atoms: C_32  and  C_33 
ROOT
HETATM    1  C   UNL     1      -5.990   0.084 -29.375  1.00  0.00     0.071 C 
HETATM    2  C   UNL     1      -5.381   0.545 -30.675  1.00  0.00     0.048 C 
HETATM    3  N   UNL     1      -5.318  -0.451 -31.658  1.00  0.00    -0.229 NA
HETATM    4  C   UNL     1      -5.485  -0.047 -32.879  1.00  0.00     0.170 C 
HETATM    5  N   UNL     1      -5.476   1.471 -33.263  1.00  0.00    -0.319 N 
HETATM    6  C   UNL     1      -6.479   1.694 -34.049  1.00  0.00     0.011 C 
HETATM    7  C   UNL     1      -4.551   2.133 -32.325  1.00  0.00     0.166 C 
HETATM    8  S   UNL     1      -6.048  -1.001 -34.196  1.00  0.00    -0.086 SA
HETATM    9  C   UNL     1      -6.969   0.466 -34.813  1.00  0.00     0.135 C 
HETATM   10  C   UNL     1      -5.118   1.842 -30.973  1.00  0.00     0.069 C 
ENDROOT
BRANCH   6  11
HETATM   11  C   UNL     1      -7.133   3.044 -34.124  1.00  0.00     0.156 C 
BRANCH  11  12
HETATM   12  C   UNL     1      -8.629   2.976 -33.921  1.00  0.00     0.223 C 
HETATM   13  N   UNL     1      -9.112   2.058 -33.012  1.00  0.00    -0.359 N 
HETATM   14  H   UNL     1      -8.477   1.421 -32.532  1.00  0.00     0.162 HD
HETATM   15  O   UNL     1      -9.375   3.682 -34.595  1.00  0.00    -0.273 OA
BRANCH  13  16
HETATM   16  C   UNL     1     -10.552   2.022 -32.763  1.00  0.00     0.150 C 
BRANCH  16  17
HETATM   17  C   UNL     1     -11.330   0.898 -33.469  1.00  0.00     0.254 C 
BRANCH  17  18
HETATM   18  N   UNL     1     -12.611   1.426 -34.094  1.00  0.00    -0.070 N 
HETATM   19  H   UNL     1     -12.402   1.752 -35.050  1.00  0.00     0.279 HD
HETATM   20  C   UNL     1     -13.236   2.598 -33.345  1.00  0.00     0.235 C 
HETATM   21  C   UNL     1     -14.484   2.019 -32.715  1.00  0.00     0.029 C 
HETATM   22  C   UNL     1     -14.973   1.053 -33.773  1.00  0.00     0.029 C 
HETATM   23  C   UNL     1     -13.701   0.364 -34.228  1.00  0.00     0.235 C 
ENDBRANCH  17  18
ENDBRANCH  16  17
ENDBRANCH  13  16
ENDBRANCH  11  12
ENDBRANCH   6  11
BRANCH   7  24
HETATM   24  C   UNL     1      -3.951   3.495 -32.642  1.00  0.00    -0.030 A 
HETATM   25  C   UNL     1      -4.518   4.415 -33.538  1.00  0.00     0.011 A 
HETATM   26  C   UNL     1      -3.847   5.597 -33.887  1.00  0.00     0.024 A 
HETATM   27  C   UNL     1      -2.574   5.858 -33.391  1.00  0.00     0.034 A 
HETATM   28 CL   UNL     1      -1.747   7.289 -33.850  1.00  0.00    -0.084 Cl
HETATM   29  C   UNL     1      -1.961   4.939 -32.553  1.00  0.00     0.024 A 
HETATM   30  C   UNL     1      -2.637   3.769 -32.194  1.00  0.00     0.011 A 
ENDBRANCH   7  24
BRANCH  10  31
HETATM   31  C   UNL     1      -5.972   2.884 -30.382  1.00  0.00     0.294 C 
HETATM   32  O   UNL     1      -7.130   3.005 -30.768  1.00  0.00    -0.259 OA
BRANCH  31  33
HETATM   33  O   UNL     1      -5.275   3.723 -29.599  1.00  0.00    -0.314 OA
BRANCH  33  34
HETATM   34  C   UNL     1      -5.950   4.971 -29.386  1.00  0.00     0.206 C 
BRANCH  34  35
HETATM   35  C   UNL     1      -5.358   5.997 -30.293  1.00  0.00    -0.011 C 
HETATM   36  C   UNL     1      -4.183   6.601 -30.075  1.00  0.00     0.009 C 
ENDBRANCH  34  35
ENDBRANCH  33  34
ENDBRANCH  31  33
ENDBRANCH  10  31
TORSDOF 10
ENDMDL
MODEL 9
REMARK VINA RESULT:      -6.5      2.831      4.588
REMARK  10 active torsions:
REMARK  status: ('A' for Active; 'I' for Inactive)
REMARK    1  A    between atoms: C_6  and  C_7 
REMARK    2  A    between atoms: C_7  and  C_8 
REMARK       I    between atoms: C_8  and  N_9 
REMARK    3  A    between atoms: N_9  and  C_10 
REMARK    4  A    between atoms: C_10  and  C_11 
REMARK    5  A    between atoms: C_11  and  N_12 
REMARK    6  A    between atoms: C_19  and  C_20 
REMARK    7  A    between atoms: C_29  and  C_30 
REMARK    8  A    between atoms: C_30  and  O_31 
REMARK    9  A    between atoms: O_31  and  C_32 
REMARK   10  A    between atoms: C_32  and  C_33 
ROOT
HETATM    1  C   UNL     1      -1.382   7.444 -33.033  1.00  0.00     0.071 C 
HETATM    2  C   UNL     1      -1.518   8.221 -31.748  1.00  0.00     0.048 C 
HETATM    3  N   UNL     1      -2.462   9.255 -31.805  1.00  0.00    -0.229 NA
HETATM    4  C   UNL     1      -3.117   9.479 -30.709  1.00  0.00     0.170 C 
HETATM    5  N   UNL     1      -2.698   8.841 -29.342  1.00  0.00    -0.319 N 
HETATM    6  C   UNL     1      -3.761   8.373 -28.772  1.00  0.00     0.011 C 
HETATM    7  C   UNL     1      -1.230   8.706 -29.378  1.00  0.00     0.166 C 
HETATM    8  S   UNL     1      -4.674  10.202 -30.586  1.00  0.00    -0.086 SA
HETATM    9  C   UNL     1      -5.061   9.042 -29.213  1.00  0.00     0.135 C 
HETATM   10  C   UNL     1      -0.963   7.842 -30.569  1.00  0.00     0.069 C 
ENDROOT
BRANCH   6  11
HETATM   11  C   UNL     1      -3.696   7.217 -27.816  1.00  0.00     0.156 C 
BRANCH  11  12
HETATM   12  C   UNL     1      -4.817   6.225 -28.027  1.00  0.00     0.223 C 
HETATM   13  N   UNL     1      -4.793   5.466 -29.178  1.00  0.00    -0.359 N 
HETATM   14  H   UNL     1      -4.065   5.609 -29.878  1.00  0.00     0.162 HD
HETATM   15  O   UNL     1      -5.738   6.156 -27.217  1.00  0.00    -0.273 OA
BRANCH  13  16
HETATM   16  C   UNL     1      -5.839   4.463 -29.367  1.00  0.00     0.150 C 
BRANCH  16  17
HETATM   17  C   UNL     1      -6.427   4.361 -30.785  1.00  0.00     0.254 C 
BRANCH  17  18
HETATM   18  N   UNL     1      -6.647   2.911 -31.185  1.00  0.00    -0.070 N 
HETATM   19  H   UNL     1      -7.659   2.715 -31.174  1.00  0.00     0.279 HD
HETATM   20  C   UNL     1      -5.982   1.899 -30.258  1.00  0.00     0.235 C 
HETATM   21  C   UNL     1      -4.842   1.332 -31.077  1.00  0.00     0.029 C 
HETATM   22  C   UNL     1      -5.432   1.269 -32.469  1.00  0.00     0.029 C 
HETATM   23  C   UNL     1      -6.160   2.593 -32.598  1.00  0.00     0.235 C 
ENDBRANCH  17  18
ENDBRANCH  16  17
ENDBRANCH  13  16
ENDBRANCH  11  12
ENDBRANCH   6  11
BRANCH   7  24
HETATM   24  C   UNL     1      -0.424   8.537 -28.098  1.00  0.00    -0.030 A 
HETATM   25  C   UNL     1      -0.944   8.734 -26.809  1.00  0.00     0.011 A 
HETATM   26  C   UNL     1      -0.115   8.693 -25.677  1.00  0.00     0.024 A 
HETATM   27  C   UNL     1       1.256   8.510 -25.815  1.00  0.00     0.034 A 
HETATM   28 CL   UNL     1       2.266   8.496 -24.427  1.00  0.00    -0.084 Cl
HETATM   29  C   UNL     1       1.810   8.376 -27.079  1.00  0.00     0.024 A 
HETATM   30  C   UNL     1       0.981   8.401 -28.205  1.00  0.00     0.011 A 
ENDBRANCH   7  24
BRANCH  10  31
HETATM   31  C   UNL     1      -0.780   6.406 -30.311  1.00  0.00     0.294 C 
HETATM   32  O   UNL     1       0.355   5.950 -30.217  1.00  0.00    -0.259 OA
BRANCH  31  33
HETATM   33  O   UNL     1      -1.933   5.725 -30.408  1.00  0.00    -0.314 OA
BRANCH  33  34
HETATM   34  C   UNL     1      -1.769   4.442 -31.030  1.00  0.00     0.206 C 
BRANCH  34  35
HETATM   35  C   UNL     1      -2.872   4.243 -32.015  1.00  0.00    -0.011 C 
HETATM   36  C   UNL     1      -2.678   3.957 -33.309  1.00  0.00     0.009 C 
ENDBRANCH  34  35
ENDBRANCH  33  34
ENDBRANCH  31  33
ENDBRANCH  10  31
TORSDOF 10
ENDMDL
MODEL 10
REMARK VINA RESULT:      -6.3     18.759     21.053
REMARK  10 active torsions:
REMARK  status: ('A' for Active; 'I' for Inactive)
REMARK    1  A    between atoms: C_6  and  C_7 
REMARK    2  A    between atoms: C_7  and  C_8 
REMARK       I    between atoms: C_8  and  N_9 
REMARK    3  A    between atoms: N_9  and  C_10 
REMARK    4  A    between atoms: C_10  and  C_11 
REMARK    5  A    between atoms: C_11  and  N_12 
REMARK    6  A    between atoms: C_19  and  C_20 
REMARK    7  A    between atoms: C_29  and  C_30 
REMARK    8  A    between atoms: C_30  and  O_31 
REMARK    9  A    between atoms: O_31  and  C_32 
REMARK   10  A    between atoms: C_32  and  C_33 
ROOT
HETATM    1  C   UNL     1      -5.272 -12.142 -40.372  1.00  0.00     0.071 C 
HETATM    2  C   UNL     1      -6.322 -12.508 -39.353  1.00  0.00     0.048 C 
HETATM    3  N   UNL     1      -7.608 -12.057 -39.675  1.00  0.00    -0.229 NA
HETATM    4  C   UNL     1      -8.582 -12.834 -39.317  1.00  0.00     0.170 C 
HETATM    5  N   UNL     1      -8.369 -14.047 -38.351  1.00  0.00    -0.319 N 
HETATM    6  C   UNL     1      -8.982 -15.073 -38.849  1.00  0.00     0.011 C 
HETATM    7  C   UNL     1      -7.279 -13.664 -37.435  1.00  0.00     0.166 C 
HETATM    8  S   UNL     1     -10.144 -12.903 -40.038  1.00  0.00    -0.086 SA
HETATM    9  C   UNL     1     -10.137 -14.724 -39.785  1.00  0.00     0.135 C 
HETATM   10  C   UNL     1      -6.118 -13.379 -38.333  1.00  0.00     0.069 C 
ENDROOT
BRANCH   6  11
HETATM   11  C   UNL     1      -8.526 -16.475 -38.567  1.00  0.00     0.156 C 
BRANCH  11  12
HETATM   12  C   UNL     1      -8.346 -17.291 -39.826  1.00  0.00     0.223 C 
HETATM   13  N   UNL     1      -7.411 -16.858 -40.743  1.00  0.00    -0.359 N 
HETATM   14  H   UNL     1      -6.896 -15.992 -40.587  1.00  0.00     0.162 HD
HETATM   15  O   UNL     1      -9.060 -18.269 -40.033  1.00  0.00    -0.273 OA
BRANCH  13  16
HETATM   16  C   UNL     1      -7.186 -17.669 -41.938  1.00  0.00     0.150 C 
BRANCH  16  17
HETATM   17  C   UNL     1      -5.852 -17.440 -42.667  1.00  0.00     0.254 C 
BRANCH  17  18
HETATM   18  N   UNL     1      -5.147 -16.199 -42.147  1.00  0.00    -0.070 N 
HETATM   19  H   UNL     1      -5.490 -15.998 -41.196  1.00  0.00     0.279 HD
HETATM   20  C   UNL     1      -5.385 -14.946 -42.985  1.00  0.00     0.235 C 
HETATM   21  C   UNL     1      -4.057 -14.692 -43.664  1.00  0.00     0.029 C 
HETATM   22  C   UNL     1      -3.057 -15.080 -42.597  1.00  0.00     0.029 C 
HETATM   23  C   UNL     1      -3.632 -16.365 -42.033  1.00  0.00     0.235 C 
ENDBRANCH  17  18
ENDBRANCH  16  17
ENDBRANCH  13  16
ENDBRANCH  11  12
ENDBRANCH   6  11
BRANCH   7  24
HETATM   24  C   UNL     1      -7.079 -14.381 -36.107  1.00  0.00    -0.030 A 
HETATM   25  C   UNL     1      -7.096 -15.777 -35.957  1.00  0.00     0.011 A 
HETATM   26  C   UNL     1      -7.039 -16.371 -34.686  1.00  0.00     0.024 A 
HETATM   27  C   UNL     1      -7.018 -15.583 -33.541  1.00  0.00     0.034 A 
HETATM   28 CL   UNL     1      -6.982 -16.319 -31.991  1.00  0.00    -0.084 Cl
HETATM   29  C   UNL     1      -7.064 -14.202 -33.654  1.00  0.00     0.024 A 
HETATM   30  C   UNL     1      -7.105 -13.611 -34.920  1.00  0.00     0.011 A 
ENDBRANCH   7  24
BRANCH  10  31
HETATM   31  C   UNL     1      -5.154 -14.472 -38.526  1.00  0.00     0.294 C 
HETATM   32  O   UNL     1      -5.476 -15.449 -39.196  1.00  0.00    -0.259 OA
BRANCH  31  33
HETATM   33  O   UNL     1      -4.070 -14.333 -37.747  1.00  0.00    -0.314 OA
BRANCH  33  34
HETATM   34  C   UNL     1      -2.841 -14.454 -38.478  1.00  0.00     0.206 C 
BRANCH  34  35
HETATM   35  C   UNL     1      -1.842 -13.511 -37.897  1.00  0.00    -0.011 C 
HETATM   36  C   UNL     1      -1.677 -12.247 -38.309  1.00  0.00     0.009 C 
ENDBRANCH  34  35
ENDBRANCH  33  34
ENDBRANCH  31  33
ENDBRANCH  10  31
TORSDOF 10
ENDMDL
