MODEL 1
REMARK VINA RESULT:      -7.9      0.000      0.000
REMARK  7 active torsions:
REMARK  status: ('A' for Active; 'I' for Inactive)
REMARK    1  A    between atoms: C_10  and  C_11 
REMARK       I    between atoms: C_11  and  N_12 
REMARK    2  A    between atoms: N_12  and  C_13 
REMARK    3  A    between atoms: C_13  and  C_14 
REMARK    4  A    between atoms: C_14  and  O_15 
REMARK    5  A    between atoms: C_14  and  C_16 
REMARK    6  A    between atoms: C_16  and  O_17 
REMARK    7  A    between atoms: O_17  and  C_18 
ROOT
HETATM    1  C   UNL     1      -5.758   3.660 -33.275  1.00  0.00     0.257 C 
HETATM    2  N   UNL     1      -5.797   3.169 -31.994  1.00  0.00    -0.354 N 
HETATM    3  O   UNL     1      -6.646   3.444 -34.096  1.00  0.00    -0.267 OA
HETATM    4  H   UNL     1      -4.963   3.286 -31.420  1.00  0.00     0.162 HD
ENDROOT
BRANCH   2   5
HETATM    5  C   UNL     1      -6.856   2.318 -31.490  1.00  0.00     0.156 C 
BRANCH   5   6
HETATM    6  C   UNL     1      -6.351   1.031 -30.826  1.00  0.00     0.160 C 
BRANCH   6   7
HETATM    7  O   UNL     1      -6.242   1.233 -29.407  1.00  0.00    -0.392 OA
HETATM    8  H   UNL     1      -5.573   0.592 -29.099  1.00  0.00     0.210 HD
ENDBRANCH   6   7
BRANCH   6   9
HETATM    9  C   UNL     1      -5.014   0.539 -31.395  1.00  0.00     0.209 C 
BRANCH   9  10
HETATM   10  O   UNL     1      -5.142   0.526 -32.826  1.00  0.00    -0.349 OA
BRANCH  10  11
HETATM   11  C   UNL     1      -5.337  -0.694 -33.414  1.00  0.00     0.069 A 
HETATM   12  C   UNL     1      -6.638  -0.919 -33.873  1.00  0.00     0.038 A 
HETATM   13  C   UNL     1      -6.974  -2.120 -34.502  1.00  0.00     0.026 A 
HETATM   14  C   UNL     1      -6.000  -3.098 -34.679  1.00  0.00     0.034 A 
HETATM   15 CL   UNL     1      -6.404  -4.579 -35.457  1.00  0.00    -0.084 Cl
HETATM   16  C   UNL     1      -4.698  -2.883 -34.231  1.00  0.00     0.026 A 
HETATM   17  C   UNL     1      -4.366  -1.680 -33.596  1.00  0.00     0.038 A 
ENDBRANCH  10  11
ENDBRANCH   9  10
ENDBRANCH   6   9
ENDBRANCH   5   6
ENDBRANCH   2   5
BRANCH   1  18
HETATM   18  C   UNL     1      -4.578   4.434 -33.602  1.00  0.00     0.098 A 
HETATM   19  C   UNL     1      -3.434   4.628 -32.847  1.00  0.00     0.167 A 
HETATM   20  N   UNL     1      -2.599   5.456 -33.606  1.00  0.00    -0.226 N 
HETATM   21  N   UNL     1      -3.065   4.170 -31.607  1.00  0.00    -0.240 NA
HETATM   22  C   UNL     1      -1.359   5.852 -33.117  1.00  0.00     0.128 A 
HETATM   23  N   UNL     1      -3.157   5.782 -34.796  1.00  0.00    -0.178 NA
HETATM   24  C   UNL     1      -0.938   5.445 -31.909  1.00  0.00    -0.027 A 
HETATM   25  C   UNL     1       0.353   5.791 -31.259  1.00  0.00     0.051 C 
HETATM   26  C   UNL     1      -1.898   4.558 -31.182  1.00  0.00     0.127 A 
HETATM   27  C   UNL     1      -4.342   5.167 -34.783  1.00  0.00     0.160 A 
ENDBRANCH   1  18
TORSDOF 7
ENDMDL
MODEL 2
REMARK VINA RESULT:      -7.8      3.501      7.791
REMARK  7 active torsions:
REMARK  status: ('A' for Active; 'I' for Inactive)
REMARK    1  A    between atoms: C_10  and  C_11 
REMARK       I    between atoms: C_11  and  N_12 
REMARK    2  A    between atoms: N_12  and  C_13 
REMARK    3  A    between atoms: C_13  and  C_14 
REMARK    4  A    between atoms: C_14  and  O_15 
REMARK    5  A    between atoms: C_14  and  C_16 
REMARK    6  A    between atoms: C_16  and  O_17 
REMARK    7  A    between atoms: O_17  and  C_18 
ROOT
HETATM    1  C   UNL     1      -5.787   1.573 -32.123  1.00  0.00     0.257 C 
HETATM    2  N   UNL     1      -5.631   2.708 -32.879  1.00  0.00    -0.354 N 
HETATM    3  O   UNL     1      -6.434   1.553 -31.080  1.00  0.00    -0.267 OA
HETATM    4  H   UNL     1      -4.975   2.668 -33.658  1.00  0.00     0.162 HD
ENDROOT
BRANCH   2   5
HETATM    5  C   UNL     1      -6.172   4.000 -32.510  1.00  0.00     0.156 C 
BRANCH   5   6
HETATM    6  C   UNL     1      -5.943   5.090 -33.565  1.00  0.00     0.160 C 
BRANCH   6   7
HETATM    7  O   UNL     1      -7.167   5.337 -34.276  1.00  0.00    -0.392 OA
HETATM    8  H   UNL     1      -7.151   4.736 -35.046  1.00  0.00     0.210 HD
ENDBRANCH   6   7
BRANCH   6   9
HETATM    9  C   UNL     1      -4.817   4.752 -34.551  1.00  0.00     0.209 C 
BRANCH   9  10
HETATM   10  O   UNL     1      -3.956   5.900 -34.619  1.00  0.00    -0.349 OA
BRANCH  10  11
HETATM   11  C   UNL     1      -2.877   5.910 -33.778  1.00  0.00     0.069 A 
HETATM   12  C   UNL     1      -2.173   7.117 -33.746  1.00  0.00     0.038 A 
HETATM   13  C   UNL     1      -1.054   7.268 -32.924  1.00  0.00     0.026 A 
HETATM   14  C   UNL     1      -0.643   6.207 -32.122  1.00  0.00     0.034 A 
HETATM   15 CL   UNL     1       0.730   6.386 -31.101  1.00  0.00    -0.084 Cl
HETATM   16  C   UNL     1      -1.341   5.001 -32.139  1.00  0.00     0.026 A 
HETATM   17  C   UNL     1      -2.458   4.851 -32.969  1.00  0.00     0.038 A 
ENDBRANCH  10  11
ENDBRANCH   9  10
ENDBRANCH   6   9
ENDBRANCH   5   6
ENDBRANCH   2   5
BRANCH   1  18
HETATM   18  C   UNL     1      -5.109   0.397 -32.631  1.00  0.00     0.098 A 
HETATM   19  C   UNL     1      -5.645  -0.691 -33.298  1.00  0.00     0.167 A 
HETATM   20  N   UNL     1      -4.575  -1.552 -33.566  1.00  0.00    -0.226 N 
HETATM   21  N   UNL     1      -6.930  -0.992 -33.678  1.00  0.00    -0.240 NA
HETATM   22  C   UNL     1      -4.785  -2.758 -34.228  1.00  0.00     0.128 A 
HETATM   23  N   UNL     1      -3.401  -1.057 -33.110  1.00  0.00    -0.178 NA
HETATM   24  C   UNL     1      -6.017  -3.117 -34.622  1.00  0.00    -0.027 A 
HETATM   25  C   UNL     1      -6.390  -4.370 -35.329  1.00  0.00     0.051 C 
HETATM   26  C   UNL     1      -7.088  -2.126 -34.295  1.00  0.00     0.127 A 
HETATM   27  C   UNL     1      -3.731   0.109 -32.551  1.00  0.00     0.160 A 
ENDBRANCH   1  18
TORSDOF 7
ENDMDL
MODEL 3
REMARK VINA RESULT:      -7.7      2.091      3.149
REMARK  7 active torsions:
REMARK  status: ('A' for Active; 'I' for Inactive)
REMARK    1  A    between atoms: C_10  and  C_11 
REMARK       I    between atoms: C_11  and  N_12 
REMARK    2  A    between atoms: N_12  and  C_13 
REMARK    3  A    between atoms: C_13  and  C_14 
REMARK    4  A    between atoms: C_14  and  O_15 
REMARK    5  A    between atoms: C_14  and  C_16 
REMARK    6  A    between atoms: C_16  and  O_17 
REMARK    7  A    between atoms: O_17  and  C_18 
ROOT
HETATM    1  C   UNL     1      -7.085   2.670 -32.456  1.00  0.00     0.257 C 
HETATM    2  N   UNL     1      -7.465   2.210 -33.692  1.00  0.00    -0.354 N 
HETATM    3  O   UNL     1      -7.891   2.933 -31.568  1.00  0.00    -0.267 OA
HETATM    4  H   UNL     1      -6.745   2.139 -34.410  1.00  0.00     0.162 HD
ENDROOT
BRANCH   2   5
HETATM    5  C   UNL     1      -8.846   2.027 -34.092  1.00  0.00     0.156 C 
BRANCH   5   6
HETATM    6  C   UNL     1      -9.415   0.648 -33.733  1.00  0.00     0.160 C 
BRANCH   6   7
HETATM    7  O   UNL     1     -10.372   0.785 -32.670  1.00  0.00    -0.392 OA
HETATM    8  H   UNL     1     -11.098   1.326 -33.035  1.00  0.00     0.210 HD
ENDBRANCH   6   7
BRANCH   6   9
HETATM    9  C   UNL     1      -8.336  -0.371 -33.346  1.00  0.00     0.209 C 
BRANCH   9  10
HETATM   10  O   UNL     1      -7.515  -0.579 -34.507  1.00  0.00    -0.349 OA
BRANCH  10  11
HETATM   11  C   UNL     1      -6.614  -1.606 -34.446  1.00  0.00     0.069 A 
HETATM   12  C   UNL     1      -5.359  -1.252 -33.942  1.00  0.00     0.038 A 
HETATM   13  C   UNL     1      -4.346  -2.206 -33.818  1.00  0.00     0.026 A 
HETATM   14  C   UNL     1      -4.594  -3.523 -34.192  1.00  0.00     0.034 A 
HETATM   15 CL   UNL     1      -3.353  -4.706 -34.037  1.00  0.00    -0.084 Cl
HETATM   16  C   UNL     1      -5.843  -3.890 -34.689  1.00  0.00     0.026 A 
HETATM   17  C   UNL     1      -6.854  -2.931 -34.818  1.00  0.00     0.038 A 
ENDBRANCH  10  11
ENDBRANCH   9  10
ENDBRANCH   6   9
ENDBRANCH   5   6
ENDBRANCH   2   5
BRANCH   1  18
HETATM   18  C   UNL     1      -5.658   2.849 -32.279  1.00  0.00     0.098 A 
HETATM   19  C   UNL     1      -4.786   3.631 -33.017  1.00  0.00     0.167 A 
HETATM   20  N   UNL     1      -3.521   3.453 -32.446  1.00  0.00    -0.226 N 
HETATM   21  N   UNL     1      -4.982   4.450 -34.102  1.00  0.00    -0.240 NA
HETATM   22  C   UNL     1      -2.409   4.104 -32.970  1.00  0.00     0.128 A 
HETATM   23  N   UNL     1      -3.559   2.611 -31.387  1.00  0.00    -0.178 NA
HETATM   24  C   UNL     1      -2.529   4.915 -34.034  1.00  0.00    -0.027 A 
HETATM   25  C   UNL     1      -1.433   5.667 -34.700  1.00  0.00     0.051 C 
HETATM   26  C   UNL     1      -3.921   5.043 -34.565  1.00  0.00     0.127 A 
HETATM   27  C   UNL     1      -4.841   2.254 -31.297  1.00  0.00     0.160 A 
ENDBRANCH   1  18
TORSDOF 7
ENDMDL
MODEL 4
REMARK VINA RESULT:      -7.7      3.656      6.275
REMARK  7 active torsions:
REMARK  status: ('A' for Active; 'I' for Inactive)
REMARK    1  A    between atoms: C_10  and  C_11 
REMARK       I    between atoms: C_11  and  N_12 
REMARK    2  A    between atoms: N_12  and  C_13 
REMARK    3  A    between atoms: C_13  and  C_14 
REMARK    4  A    between atoms: C_14  and  O_15 
REMARK    5  A    between atoms: C_14  and  C_16 
REMARK    6  A    between atoms: C_16  and  O_17 
REMARK    7  A    between atoms: O_17  and  C_18 
ROOT
HETATM    1  C   UNL     1      -5.937   1.499 -33.301  1.00  0.00     0.257 C 
HETATM    2  N   UNL     1      -5.542   1.504 -31.987  1.00  0.00    -0.354 N 
HETATM    3  O   UNL     1      -6.194   2.527 -33.921  1.00  0.00    -0.267 OA
HETATM    4  H   UNL     1      -5.472   0.604 -31.513  1.00  0.00     0.162 HD
ENDROOT
BRANCH   2   5
HETATM    5  C   UNL     1      -5.427   2.706 -31.186  1.00  0.00     0.156 C 
BRANCH   5   6
HETATM    6  C   UNL     1      -6.424   2.769 -30.021  1.00  0.00     0.160 C 
BRANCH   6   7
HETATM    7  O   UNL     1      -6.341   1.559 -29.251  1.00  0.00    -0.392 OA
HETATM    8  H   UNL     1      -6.925   1.695 -28.481  1.00  0.00     0.210 HD
ENDBRANCH   6   7
BRANCH   6   9
HETATM    9  C   UNL     1      -7.870   3.012 -30.473  1.00  0.00     0.209 C 
BRANCH   9  10
HETATM   10  O   UNL     1      -8.374   1.760 -30.967  1.00  0.00    -0.349 OA
BRANCH  10  11
HETATM   11  C   UNL     1      -9.279   1.824 -31.990  1.00  0.00     0.069 A 
HETATM   12  C   UNL     1      -9.737   0.583 -32.442  1.00  0.00     0.038 A 
HETATM   13  C   UNL     1     -10.670   0.501 -33.478  1.00  0.00     0.026 A 
HETATM   14  C   UNL     1     -11.154   1.670 -34.060  1.00  0.00     0.034 A 
HETATM   15 CL   UNL     1     -12.308   1.579 -35.333  1.00  0.00    -0.084 Cl
HETATM   16  C   UNL     1     -10.710   2.913 -33.613  1.00  0.00     0.026 A 
HETATM   17  C   UNL     1      -9.770   2.991 -32.579  1.00  0.00     0.038 A 
ENDBRANCH  10  11
ENDBRANCH   9  10
ENDBRANCH   6   9
ENDBRANCH   5   6
ENDBRANCH   2   5
BRANCH   1  18
HETATM   18  C   UNL     1      -6.055   0.186 -33.903  1.00  0.00     0.098 A 
HETATM   19  C   UNL     1      -5.276  -0.938 -33.687  1.00  0.00     0.167 A 
HETATM   20  N   UNL     1      -5.798  -1.941 -34.513  1.00  0.00    -0.226 N 
HETATM   21  N   UNL     1      -4.195  -1.162 -32.871  1.00  0.00    -0.240 NA
HETATM   22  C   UNL     1      -5.225  -3.207 -34.538  1.00  0.00     0.128 A 
HETATM   23  N   UNL     1      -6.863  -1.504 -35.225  1.00  0.00    -0.178 NA
HETATM   24  C   UNL     1      -4.161  -3.493 -33.769  1.00  0.00    -0.027 A 
HETATM   25  C   UNL     1      -3.446  -4.794 -33.697  1.00  0.00     0.051 C 
HETATM   26  C   UNL     1      -3.686  -2.358 -32.919  1.00  0.00     0.127 A 
HETATM   27  C   UNL     1      -7.008  -0.231 -34.854  1.00  0.00     0.160 A 
ENDBRANCH   1  18
TORSDOF 7
ENDMDL
MODEL 5
REMARK VINA RESULT:      -7.6      3.702      6.459
REMARK  7 active torsions:
REMARK  status: ('A' for Active; 'I' for Inactive)
REMARK    1  A    between atoms: C_10  and  C_11 
REMARK       I    between atoms: C_11  and  N_12 
REMARK    2  A    between atoms: N_12  and  C_13 
REMARK    3  A    between atoms: C_13  and  C_14 
REMARK    4  A    between atoms: C_14  and  O_15 
REMARK    5  A    between atoms: C_14  and  C_16 
REMARK    6  A    between atoms: C_16  and  O_17 
REMARK    7  A    between atoms: O_17  and  C_18 
ROOT
HETATM    1  C   UNL     1      -7.917   2.719 -33.471  1.00  0.00     0.257 C 
HETATM    2  N   UNL     1      -7.829   2.641 -32.104  1.00  0.00    -0.354 N 
HETATM    3  O   UNL     1      -6.946   2.578 -34.209  1.00  0.00    -0.267 OA
HETATM    4  H   UNL     1      -8.654   2.896 -31.564  1.00  0.00     0.162 HD
ENDROOT
BRANCH   2   5
HETATM    5  C   UNL     1      -6.586   2.430 -31.389  1.00  0.00     0.156 C 
BRANCH   5   6
HETATM    6  C   UNL     1      -6.519   1.086 -30.652  1.00  0.00     0.160 C 
BRANCH   6   7
HETATM    7  O   UNL     1      -6.385   1.318 -29.241  1.00  0.00    -0.392 OA
HETATM    8  H   UNL     1      -7.000   2.046 -29.032  1.00  0.00     0.210 HD
ENDBRANCH   6   7
BRANCH   6   9
HETATM    9  C   UNL     1      -5.388   0.177 -31.149  1.00  0.00     0.209 C 
BRANCH   9  10
HETATM   10  O   UNL     1      -5.344   0.301 -32.580  1.00  0.00    -0.349 OA
BRANCH  10  11
HETATM   11  C   UNL     1      -5.651  -0.819 -33.303  1.00  0.00     0.069 A 
HETATM   12  C   UNL     1      -4.555  -1.624 -33.627  1.00  0.00     0.038 A 
HETATM   13  C   UNL     1      -4.727  -2.802 -34.357  1.00  0.00     0.026 A 
HETATM   14  C   UNL     1      -6.005  -3.182 -34.757  1.00  0.00     0.034 A 
HETATM   15 CL   UNL     1      -6.226  -4.635 -35.651  1.00  0.00    -0.084 Cl
HETATM   16  C   UNL     1      -7.106  -2.392 -34.434  1.00  0.00     0.026 A 
HETATM   17  C   UNL     1      -6.930  -1.208 -33.709  1.00  0.00     0.038 A 
ENDBRANCH  10  11
ENDBRANCH   9  10
ENDBRANCH   6   9
ENDBRANCH   5   6
ENDBRANCH   2   5
BRANCH   1  18
HETATM   18  C   UNL     1      -9.241   3.006 -33.987  1.00  0.00     0.098 A 
HETATM   19  C   UNL     1     -10.379   2.219 -33.935  1.00  0.00     0.167 A 
HETATM   20  N   UNL     1     -11.388   2.946 -34.578  1.00  0.00    -0.226 N 
HETATM   21  N   UNL     1     -10.611   0.975 -33.402  1.00  0.00    -0.240 NA
HETATM   22  C   UNL     1     -12.669   2.420 -34.705  1.00  0.00     0.128 A 
HETATM   23  N   UNL     1     -10.942   4.145 -35.020  1.00  0.00    -0.178 NA
HETATM   24  C   UNL     1     -12.962   1.206 -34.212  1.00  0.00    -0.027 A 
HETATM   25  C   UNL     1     -14.279   0.519 -34.279  1.00  0.00     0.051 C 
HETATM   26  C   UNL     1     -11.820   0.515 -33.539  1.00  0.00     0.127 A 
HETATM   27  C   UNL     1      -9.656   4.170 -34.662  1.00  0.00     0.160 A 
ENDBRANCH   1  18
TORSDOF 7
ENDMDL
MODEL 6
REMARK VINA RESULT:      -7.5      3.416      6.083
REMARK  7 active torsions:
REMARK  status: ('A' for Active; 'I' for Inactive)
REMARK    1  A    between atoms: C_10  and  C_11 
REMARK       I    between atoms: C_11  and  N_12 
REMARK    2  A    between atoms: N_12  and  C_13 
REMARK    3  A    between atoms: C_13  and  C_14 
REMARK    4  A    between atoms: C_14  and  O_15 
REMARK    5  A    between atoms: C_14  and  C_16 
REMARK    6  A    between atoms: C_16  and  O_17 
REMARK    7  A    between atoms: O_17  and  C_18 
ROOT
HETATM    1  C   UNL     1      -7.657   2.052 -31.030  1.00  0.00     0.257 C 
HETATM    2  N   UNL     1      -6.410   1.511 -31.226  1.00  0.00    -0.354 N 
HETATM    3  O   UNL     1      -7.883   2.908 -30.179  1.00  0.00    -0.267 OA
HETATM    4  H   UNL     1      -6.335   0.719 -31.861  1.00  0.00     0.162 HD
ENDROOT
BRANCH   2   5
HETATM    5  C   UNL     1      -5.249   1.859 -30.430  1.00  0.00     0.156 C 
BRANCH   5   6
HETATM    6  C   UNL     1      -3.914   1.583 -31.134  1.00  0.00     0.160 C 
BRANCH   6   7
HETATM    7  O   UNL     1      -3.667   2.604 -32.114  1.00  0.00    -0.392 OA
HETATM    8  H   UNL     1      -4.010   2.250 -32.957  1.00  0.00     0.210 HD
ENDBRANCH   6   7
BRANCH   6   9
HETATM    9  C   UNL     1      -3.847   0.196 -31.786  1.00  0.00     0.209 C 
BRANCH   9  10
HETATM   10  O   UNL     1      -4.337   0.335 -33.129  1.00  0.00    -0.349 OA
BRANCH  10  11
HETATM   11  C   UNL     1      -4.984  -0.745 -33.663  1.00  0.00     0.069 A 
HETATM   12  C   UNL     1      -4.207  -1.904 -33.755  1.00  0.00     0.038 A 
HETATM   13  C   UNL     1      -4.745  -3.083 -34.275  1.00  0.00     0.026 A 
HETATM   14  C   UNL     1      -6.072  -3.106 -34.695  1.00  0.00     0.034 A 
HETATM   15 CL   UNL     1      -6.745  -4.556 -35.330  1.00  0.00    -0.084 Cl
HETATM   16  C   UNL     1      -6.859  -1.959 -34.601  1.00  0.00     0.026 A 
HETATM   17  C   UNL     1      -6.314  -0.777 -34.087  1.00  0.00     0.038 A 
ENDBRANCH  10  11
ENDBRANCH   9  10
ENDBRANCH   6   9
ENDBRANCH   5   6
ENDBRANCH   2   5
BRANCH   1  18
HETATM   18  C   UNL     1      -8.699   1.520 -31.884  1.00  0.00     0.098 A 
HETATM   19  C   UNL     1      -9.455   2.178 -32.839  1.00  0.00     0.167 A 
HETATM   20  N   UNL     1     -10.323   1.222 -33.379  1.00  0.00    -0.226 N 
HETATM   21  N   UNL     1      -9.460   3.483 -33.266  1.00  0.00    -0.240 NA
HETATM   22  C   UNL     1     -11.234   1.571 -34.370  1.00  0.00     0.128 A 
HETATM   23  N   UNL     1     -10.144   0.003 -32.817  1.00  0.00    -0.178 NA
HETATM   24  C   UNL     1     -11.296   2.831 -34.829  1.00  0.00    -0.027 A 
HETATM   25  C   UNL     1     -12.217   3.347 -35.876  1.00  0.00     0.051 C 
HETATM   26  C   UNL     1     -10.323   3.773 -34.195  1.00  0.00     0.127 A 
HETATM   27  C   UNL     1      -9.171   0.192 -31.924  1.00  0.00     0.160 A 
ENDBRANCH   1  18
TORSDOF 7
ENDMDL
MODEL 7
REMARK VINA RESULT:      -7.5      3.624      6.532
REMARK  7 active torsions:
REMARK  status: ('A' for Active; 'I' for Inactive)
REMARK    1  A    between atoms: C_10  and  C_11 
REMARK       I    between atoms: C_11  and  N_12 
REMARK    2  A    between atoms: N_12  and  C_13 
REMARK    3  A    between atoms: C_13  and  C_14 
REMARK    4  A    between atoms: C_14  and  O_15 
REMARK    5  A    between atoms: C_14  and  C_16 
REMARK    6  A    between atoms: C_16  and  O_17 
REMARK    7  A    between atoms: O_17  and  C_18 
ROOT
HETATM    1  C   UNL     1      -5.589   1.704 -32.777  1.00  0.00     0.257 C 
HETATM    2  N   UNL     1      -5.321   2.216 -31.532  1.00  0.00    -0.354 N 
HETATM    3  O   UNL     1      -6.308   2.277 -33.590  1.00  0.00    -0.267 OA
HETATM    4  H   UNL     1      -4.821   1.619 -30.875  1.00  0.00     0.162 HD
ENDROOT
BRANCH   2   5
HETATM    5  C   UNL     1      -5.885   3.454 -31.033  1.00  0.00     0.156 C 
BRANCH   5   6
HETATM    6  C   UNL     1      -6.964   3.253 -29.962  1.00  0.00     0.160 C 
BRANCH   6   7
HETATM    7  O   UNL     1      -6.675   2.067 -29.205  1.00  0.00    -0.392 OA
HETATM    8  H   UNL     1      -6.935   2.270 -28.286  1.00  0.00     0.210 HD
ENDBRANCH   6   7
BRANCH   6   9
HETATM    9  C   UNL     1      -8.384   3.182 -30.537  1.00  0.00     0.209 C 
BRANCH   9  10
HETATM   10  O   UNL     1      -8.522   1.898 -31.167  1.00  0.00    -0.349 OA
BRANCH  10  11
HETATM   11  C   UNL     1      -9.547   1.759 -32.062  1.00  0.00     0.069 A 
HETATM   12  C   UNL     1     -10.278   2.926 -32.298  1.00  0.00     0.038 A 
HETATM   13  C   UNL     1     -11.348   2.928 -33.195  1.00  0.00     0.026 A 
HETATM   14  C   UNL     1     -11.682   1.756 -33.868  1.00  0.00     0.034 A 
HETATM   15 CL   UNL     1     -12.994   1.750 -34.981  1.00  0.00    -0.084 Cl
HETATM   16  C   UNL     1     -10.955   0.587 -33.647  1.00  0.00     0.026 A 
HETATM   17  C   UNL     1      -9.888   0.587 -32.741  1.00  0.00     0.038 A 
ENDBRANCH  10  11
ENDBRANCH   9  10
ENDBRANCH   6   9
ENDBRANCH   5   6
ENDBRANCH   2   5
BRANCH   1  18
HETATM   18  C   UNL     1      -4.981   0.418 -33.057  1.00  0.00     0.098 A 
HETATM   19  C   UNL     1      -5.544  -0.692 -33.661  1.00  0.00     0.167 A 
HETATM   20  N   UNL     1      -4.546  -1.672 -33.689  1.00  0.00    -0.226 N 
HETATM   21  N   UNL     1      -6.800  -0.923 -34.168  1.00  0.00    -0.240 NA
HETATM   22  C   UNL     1      -4.800  -2.928 -34.232  1.00  0.00     0.128 A 
HETATM   23  N   UNL     1      -3.389  -1.230 -33.144  1.00  0.00    -0.178 NA
HETATM   24  C   UNL     1      -6.007  -3.222 -34.740  1.00  0.00    -0.027 A 
HETATM   25  C   UNL     1      -6.421  -4.516 -35.343  1.00  0.00     0.051 C 
HETATM   26  C   UNL     1      -7.001  -2.107 -34.668  1.00  0.00     0.127 A 
HETATM   27  C   UNL     1      -3.660   0.021 -32.767  1.00  0.00     0.160 A 
ENDBRANCH   1  18
TORSDOF 7
ENDMDL
MODEL 8
REMARK VINA RESULT:      -7.4      2.592      3.686
REMARK  7 active torsions:
REMARK  status: ('A' for Active; 'I' for Inactive)
REMARK    1  A    between atoms: C_10  and  C_11 
REMARK       I    between atoms: C_11  and  N_12 
REMARK    2  A    between atoms: N_12  and  C_13 
REMARK    3  A    between atoms: C_13  and  C_14 
REMARK    4  A    between atoms: C_14  and  O_15 
REMARK    5  A    between atoms: C_14  and  C_16 
REMARK    6  A    between atoms: C_16  and  O_17 
REMARK    7  A    between atoms: O_17  and  C_18 
ROOT
HETATM    1  C   UNL     1      -7.560   4.108 -33.517  1.00  0.00     0.257 C 
HETATM    2  N   UNL     1      -8.382   3.097 -33.082  1.00  0.00    -0.354 N 
HETATM    3  O   UNL     1      -7.943   4.996 -34.273  1.00  0.00    -0.267 OA
HETATM    4  H   UNL     1      -7.953   2.333 -32.562  1.00  0.00     0.162 HD
ENDROOT
BRANCH   2   5
HETATM    5  C   UNL     1      -9.762   2.949 -33.497  1.00  0.00     0.156 C 
BRANCH   5   6
HETATM    6  C   UNL     1     -10.114   1.534 -33.976  1.00  0.00     0.160 C 
BRANCH   6   7
HETATM    7  O   UNL     1     -10.917   0.876 -32.983  1.00  0.00    -0.392 OA
HETATM    8  H   UNL     1     -10.286   0.496 -32.342  1.00  0.00     0.210 HD
ENDBRANCH   6   7
BRANCH   6   9
HETATM    9  C   UNL     1      -8.882   0.684 -34.310  1.00  0.00     0.209 C 
BRANCH   9  10
HETATM   10  O   UNL     1      -8.548  -0.061 -33.128  1.00  0.00    -0.349 OA
BRANCH  10  11
HETATM   11  C   UNL     1      -7.232  -0.062 -32.754  1.00  0.00     0.069 A 
HETATM   12  C   UNL     1      -7.018   0.026 -31.375  1.00  0.00     0.038 A 
HETATM   13  C   UNL     1      -5.722   0.027 -30.855  1.00  0.00     0.026 A 
HETATM   14  C   UNL     1      -4.634  -0.070 -31.719  1.00  0.00     0.034 A 
HETATM   15 CL   UNL     1      -3.035  -0.075 -31.086  1.00  0.00    -0.084 Cl
HETATM   16  C   UNL     1      -4.836  -0.165 -33.094  1.00  0.00     0.026 A 
HETATM   17  C   UNL     1      -6.136  -0.159 -33.613  1.00  0.00     0.038 A 
ENDBRANCH  10  11
ENDBRANCH   9  10
ENDBRANCH   6   9
ENDBRANCH   5   6
ENDBRANCH   2   5
BRANCH   1  18
HETATM   18  C   UNL     1      -6.194   4.038 -33.039  1.00  0.00     0.098 A 
HETATM   19  C   UNL     1      -5.035   4.463 -33.666  1.00  0.00     0.167 A 
HETATM   20  N   UNL     1      -3.984   4.165 -32.791  1.00  0.00    -0.226 N 
HETATM   21  N   UNL     1      -4.817   5.062 -34.882  1.00  0.00    -0.240 NA
HETATM   22  C   UNL     1      -2.670   4.462 -33.135  1.00  0.00     0.128 A 
HETATM   23  N   UNL     1      -4.426   3.584 -31.651  1.00  0.00    -0.178 NA
HETATM   24  C   UNL     1      -2.385   5.043 -34.312  1.00  0.00    -0.027 A 
HETATM   25  C   UNL     1      -1.035   5.411 -34.813  1.00  0.00     0.051 C 
HETATM   26  C   UNL     1      -3.577   5.327 -35.170  1.00  0.00     0.127 A 
HETATM   27  C   UNL     1      -5.749   3.512 -31.810  1.00  0.00     0.160 A 
ENDBRANCH   1  18
TORSDOF 7
ENDMDL
MODEL 9
REMARK VINA RESULT:      -7.4      1.515      2.172
REMARK  7 active torsions:
REMARK  status: ('A' for Active; 'I' for Inactive)
REMARK    1  A    between atoms: C_10  and  C_11 
REMARK       I    between atoms: C_11  and  N_12 
REMARK    2  A    between atoms: N_12  and  C_13 
REMARK    3  A    between atoms: C_13  and  C_14 
REMARK    4  A    between atoms: C_14  and  O_15 
REMARK    5  A    between atoms: C_14  and  C_16 
REMARK    6  A    between atoms: C_16  and  O_17 
REMARK    7  A    between atoms: O_17  and  C_18 
ROOT
HETATM    1  C   UNL     1      -5.106   3.149 -32.867  1.00  0.00     0.257 C 
HETATM    2  N   UNL     1      -6.380   3.193 -33.376  1.00  0.00    -0.354 N 
HETATM    3  O   UNL     1      -4.726   2.265 -32.104  1.00  0.00    -0.267 OA
HETATM    4  H   UNL     1      -6.650   4.026 -33.897  1.00  0.00     0.162 HD
ENDROOT
BRANCH   2   5
HETATM    5  C   UNL     1      -7.415   2.237 -33.037  1.00  0.00     0.156 C 
BRANCH   5   6
HETATM    6  C   UNL     1      -8.204   1.726 -34.249  1.00  0.00     0.160 C 
BRANCH   6   7
HETATM    7  O   UNL     1      -9.437   1.136 -33.806  1.00  0.00    -0.392 OA
HETATM    8  H   UNL     1      -9.199   0.550 -33.063  1.00  0.00     0.210 HD
ENDBRANCH   6   7
BRANCH   6   9
HETATM    9  C   UNL     1      -7.418   0.728 -35.108  1.00  0.00     0.209 C 
BRANCH   9  10
HETATM   10  O   UNL     1      -6.284   0.305 -34.334  1.00  0.00    -0.349 OA
BRANCH  10  11
HETATM   11  C   UNL     1      -5.977  -1.027 -34.372  1.00  0.00     0.069 A 
HETATM   12  C   UNL     1      -4.711  -1.349 -33.874  1.00  0.00     0.038 A 
HETATM   13  C   UNL     1      -4.272  -2.674 -33.846  1.00  0.00     0.026 A 
HETATM   14  C   UNL     1      -5.108  -3.685 -34.311  1.00  0.00     0.034 A 
HETATM   15 CL   UNL     1      -4.578  -5.321 -34.274  1.00  0.00    -0.084 Cl
HETATM   16  C   UNL     1      -6.376  -3.378 -34.803  1.00  0.00     0.026 A 
HETATM   17  C   UNL     1      -6.810  -2.048 -34.836  1.00  0.00     0.038 A 
ENDBRANCH  10  11
ENDBRANCH   9  10
ENDBRANCH   6   9
ENDBRANCH   5   6
ENDBRANCH   2   5
BRANCH   1  18
HETATM   18  C   UNL     1      -4.242   4.238 -33.276  1.00  0.00     0.098 A 
HETATM   19  C   UNL     1      -3.075   4.687 -32.682  1.00  0.00     0.167 A 
HETATM   20  N   UNL     1      -2.629   5.763 -33.458  1.00  0.00    -0.226 N 
HETATM   21  N   UNL     1      -2.390   4.265 -31.570  1.00  0.00    -0.240 NA
HETATM   22  C   UNL     1      -1.469   6.450 -33.118  1.00  0.00     0.128 A 
HETATM   23  N   UNL     1      -3.450   6.003 -34.508  1.00  0.00    -0.178 NA
HETATM   24  C   UNL     1      -0.754   6.093 -32.038  1.00  0.00    -0.027 A 
HETATM   25  C   UNL     1       0.495   6.735 -31.553  1.00  0.00     0.051 C 
HETATM   26  C   UNL     1      -1.310   4.929 -31.281  1.00  0.00     0.127 A 
HETATM   27  C   UNL     1      -4.413   5.086 -34.389  1.00  0.00     0.160 A 
ENDBRANCH   1  18
TORSDOF 7
ENDMDL
MODEL 10
REMARK VINA RESULT:      -7.3      3.472      6.714
REMARK  7 active torsions:
REMARK  status: ('A' for Active; 'I' for Inactive)
REMARK    1  A    between atoms: C_10  and  C_11 
REMARK       I    between atoms: C_11  and  N_12 
REMARK    2  A    between atoms: N_12  and  C_13 
REMARK    3  A    between atoms: C_13  and  C_14 
REMARK    4  A    between atoms: C_14  and  O_15 
REMARK    5  A    between atoms: C_14  and  C_16 
REMARK    6  A    between atoms: C_16  and  O_17 
REMARK    7  A    between atoms: O_17  and  C_18 
ROOT
HETATM    1  C   UNL     1      -5.121   1.370 -31.799  1.00  0.00     0.257 C 
HETATM    2  N   UNL     1      -5.505   2.184 -32.835  1.00  0.00    -0.354 N 
HETATM    3  O   UNL     1      -5.176   1.720 -30.624  1.00  0.00    -0.267 OA
HETATM    4  H   UNL     1      -5.307   1.865 -33.783  1.00  0.00     0.162 HD
ENDROOT
BRANCH   2   5
HETATM    5  C   UNL     1      -5.971   3.545 -32.658  1.00  0.00     0.156 C 
BRANCH   5   6
HETATM    6  C   UNL     1      -6.675   4.121 -33.893  1.00  0.00     0.160 C 
BRANCH   6   7
HETATM    7  O   UNL     1      -6.446   5.538 -33.960  1.00  0.00    -0.392 OA
HETATM    8  H   UNL     1      -5.486   5.657 -33.832  1.00  0.00     0.210 HD
ENDBRANCH   6   7
BRANCH   6   9
HETATM    9  C   UNL     1      -8.180   3.826 -33.927  1.00  0.00     0.209 C 
BRANCH   9  10
HETATM   10  O   UNL     1      -8.402   2.669 -33.106  1.00  0.00    -0.349 OA
BRANCH  10  11
HETATM   11  C   UNL     1      -9.594   2.017 -33.272  1.00  0.00     0.069 A 
HETATM   12  C   UNL     1      -9.581   0.671 -32.896  1.00  0.00     0.038 A 
HETATM   13  C   UNL     1     -10.733  -0.111 -33.006  1.00  0.00     0.026 A 
HETATM   14  C   UNL     1     -11.907   0.460 -33.488  1.00  0.00     0.034 A 
HETATM   15 CL   UNL     1     -13.332  -0.494 -33.621  1.00  0.00    -0.084 Cl
HETATM   16  C   UNL     1     -11.934   1.803 -33.860  1.00  0.00     0.026 A 
HETATM   17  C   UNL     1     -10.777   2.582 -33.754  1.00  0.00     0.038 A 
ENDBRANCH  10  11
ENDBRANCH   9  10
ENDBRANCH   6   9
ENDBRANCH   5   6
ENDBRANCH   2   5
BRANCH   1  18
HETATM   18  C   UNL     1      -4.618   0.069 -32.193  1.00  0.00     0.098 A 
HETATM   19  C   UNL     1      -5.182  -0.850 -33.062  1.00  0.00     0.167 A 
HETATM   20  N   UNL     1      -4.310  -1.944 -33.096  1.00  0.00    -0.226 N 
HETATM   21  N   UNL     1      -6.342  -0.826 -33.797  1.00  0.00    -0.240 NA
HETATM   22  C   UNL     1      -4.598  -3.056 -33.879  1.00  0.00     0.128 A 
HETATM   23  N   UNL     1      -3.230  -1.753 -32.302  1.00  0.00    -0.178 NA
HETATM   24  C   UNL     1      -5.718  -3.101 -34.618  1.00  0.00    -0.027 A 
HETATM   25  C   UNL     1      -6.156  -4.220 -35.494  1.00  0.00     0.051 C 
HETATM   26  C   UNL     1      -6.578  -1.882 -34.518  1.00  0.00     0.127 A 
HETATM   27  C   UNL     1      -3.425  -0.547 -31.766  1.00  0.00     0.160 A 
ENDBRANCH   1  18
TORSDOF 7
ENDMDL
