MODEL 1
REMARK VINA RESULT:      -9.2      0.000      0.000
REMARK  7 active torsions:
REMARK  status: ('A' for Active; 'I' for Inactive)
REMARK    1  A    between atoms: S_2  and  C_3 
REMARK    2  A    between atoms: C_3  and  C_4 
REMARK    3  A    between atoms: C_4  and  C_5 
REMARK    4  A    between atoms: C_5  and  N_6 
REMARK    5  A    between atoms: C_5  and  C_26 
REMARK       I    between atoms: N_6  and  C_7 
REMARK    6  A    between atoms: C_7  and  C_8 
REMARK    7  A    between atoms: C_8  and  N_9 
ROOT
HETATM    1  N   UNL     1      -7.128   1.554 -32.334  1.00  0.00    -0.348 N 
HETATM    2  C   UNL     1      -6.838   2.857 -32.665  1.00  0.00     0.236 C 
HETATM    3  O   UNL     1      -7.324   3.399 -33.659  1.00  0.00    -0.272 OA
HETATM    4  H   UNL     1      -6.507   1.063 -31.708  1.00  0.00     0.163 HD
ENDROOT
BRANCH   2   5
HETATM    5  C   UNL     1      -5.958   3.638 -31.689  1.00  0.00     0.239 C 
BRANCH   5   6
HETATM    6  N   UNL     1      -4.577   3.803 -32.095  1.00  0.00    -0.259 N 
HETATM    7  C   UNL     1      -3.737   2.784 -32.405  1.00  0.00     0.326 A 
HETATM    8  O   UNL     1      -3.957   1.589 -32.307  1.00  0.00    -0.247 OA
HETATM    9  N   UNL     1      -2.554   3.312 -32.859  1.00  0.00    -0.320 N 
HETATM   10  C   UNL     1      -2.548   4.761 -32.871  1.00  0.00     0.144 A 
HETATM   11  H   UNL     1      -1.769   2.724 -33.102  1.00  0.00     0.165 HD
HETATM   12  C   UNL     1      -1.478   5.327 -31.950  1.00  0.00    -0.014 A 
HETATM   13  C   UNL     1      -2.450   5.268 -34.318  1.00  0.00     0.047 C 
HETATM   14  C   UNL     1      -3.980   5.011 -32.335  1.00  0.00     0.261 A 
HETATM   15  C   UNL     1      -0.743   6.474 -32.320  1.00  0.00    -0.049 A 
HETATM   16  C   UNL     1      -1.206   4.728 -30.703  1.00  0.00     0.011 A 
HETATM   17  C   UNL     1       0.245   6.975 -31.457  1.00  0.00     0.007 A 
HETATM   18  C   UNL     1      -0.925   7.149 -33.659  1.00  0.00     0.039 C 
HETATM   19  C   UNL     1       0.501   6.364 -30.232  1.00  0.00     0.001 A 
HETATM   20  C   UNL     1      -0.225   5.241 -29.854  1.00  0.00     0.001 A 
HETATM   21  C   UNL     1      -2.222   6.774 -34.366  1.00  0.00     0.008 C 
HETATM   22  O   UNL     1      -4.502   6.102 -32.149  1.00  0.00    -0.270 OA
ENDBRANCH   5   6
ENDBRANCH   2   5
BRANCH   1  23
HETATM   23  C   UNL     1      -8.062   0.754 -33.112  1.00  0.00     0.155 C 
BRANCH  23  24
HETATM   24  C   UNL     1      -9.340   0.449 -32.315  1.00  0.00     0.043 C 
BRANCH  24  25
HETATM   25  C   UNL     1     -10.639   0.595 -33.112  1.00  0.00     0.076 C 
BRANCH  25  26
HETATM   26  S   UNL     1     -10.760   2.115 -34.115  1.00  0.00    -0.173 SA
HETATM   27  C   UNL     1     -12.188   1.692 -35.144  1.00  0.00     0.089 C 
ENDBRANCH  25  26
ENDBRANCH  24  25
ENDBRANCH  23  24
BRANCH  23  28
HETATM   28  C   UNL     1      -7.357  -0.507 -33.523  1.00  0.00     0.128 A 
HETATM   29  N   UNL     1      -7.868  -1.586 -34.083  1.00  0.00    -0.231 NA
HETATM   30  C   UNL     1      -6.806  -2.441 -34.268  1.00  0.00     0.085 A 
HETATM   31  C   UNL     1      -5.625  -1.880 -33.796  1.00  0.00     0.062 A 
HETATM   32  C   UNL     1      -6.774  -3.723 -34.835  1.00  0.00     0.034 A 
HETATM   33  N   UNL     1      -6.003  -0.654 -33.317  1.00  0.00    -0.341 N 
HETATM   34  C   UNL     1      -4.390  -2.528 -33.849  1.00  0.00     0.032 A 
HETATM   35  H   UNL     1      -5.415   0.025 -32.849  1.00  0.00     0.167 HD
HETATM   36  C   UNL     1      -4.377  -3.806 -34.419  1.00  0.00     0.002 A 
HETATM   37  C   UNL     1      -5.546  -4.397 -34.905  1.00  0.00     0.002 A 
ENDBRANCH  23  28
ENDBRANCH   1  23
TORSDOF 7
ENDMDL
MODEL 2
REMARK VINA RESULT:      -8.9      3.938      8.249
REMARK  7 active torsions:
REMARK  status: ('A' for Active; 'I' for Inactive)
REMARK    1  A    between atoms: S_2  and  C_3 
REMARK    2  A    between atoms: C_3  and  C_4 
REMARK    3  A    between atoms: C_4  and  C_5 
REMARK    4  A    between atoms: C_5  and  N_6 
REMARK    5  A    between atoms: C_5  and  C_26 
REMARK       I    between atoms: N_6  and  C_7 
REMARK    6  A    between atoms: C_7  and  C_8 
REMARK    7  A    between atoms: C_8  and  N_9 
ROOT
HETATM    1  N   UNL     1     -11.232   1.855 -32.774  1.00  0.00    -0.348 N 
HETATM    2  C   UNL     1     -10.195   1.008 -32.461  1.00  0.00     0.236 C 
HETATM    3  O   UNL     1     -10.225  -0.191 -32.746  1.00  0.00    -0.272 OA
HETATM    4  H   UNL     1     -11.306   2.733 -32.282  1.00  0.00     0.163 HD
ENDROOT
BRANCH   2   5
HETATM    5  C   UNL     1      -8.956   1.639 -31.825  1.00  0.00     0.239 C 
BRANCH   5   6
HETATM    6  N   UNL     1      -7.693   1.276 -32.435  1.00  0.00    -0.259 N 
HETATM    7  C   UNL     1      -7.196   1.833 -33.568  1.00  0.00     0.326 A 
HETATM    8  O   UNL     1      -7.746   2.638 -34.299  1.00  0.00    -0.247 OA
HETATM    9  N   UNL     1      -5.935   1.336 -33.785  1.00  0.00    -0.320 N 
HETATM   10  C   UNL     1      -5.517   0.387 -32.772  1.00  0.00     0.144 A 
HETATM   11  H   UNL     1      -5.399   1.586 -34.605  1.00  0.00     0.165 HD
HETATM   12  C   UNL     1      -5.251  -0.988 -33.364  1.00  0.00    -0.014 A 
HETATM   13  C   UNL     1      -4.331   0.961 -31.982  1.00  0.00     0.047 C 
HETATM   14  C   UNL     1      -6.786   0.412 -31.883  1.00  0.00     0.261 A 
HETATM   15  C   UNL     1      -4.180  -1.778 -32.896  1.00  0.00    -0.049 A 
HETATM   16  C   UNL     1      -6.076  -1.509 -34.382  1.00  0.00     0.011 A 
HETATM   17  C   UNL     1      -3.949  -3.043 -33.462  1.00  0.00     0.007 A 
HETATM   18  C   UNL     1      -3.210  -1.281 -31.850  1.00  0.00     0.039 C 
HETATM   19  C   UNL     1      -4.773  -3.536 -34.471  1.00  0.00     0.001 A 
HETATM   20  C   UNL     1      -5.837  -2.770 -34.930  1.00  0.00     0.001 A 
HETATM   21  C   UNL     1      -3.722  -0.086 -31.055  1.00  0.00     0.008 C 
HETATM   22  O   UNL     1      -6.963  -0.231 -30.857  1.00  0.00    -0.270 OA
ENDBRANCH   5   6
ENDBRANCH   2   5
BRANCH   1  23
HETATM   23  C   UNL     1     -12.405   1.395 -33.503  1.00  0.00     0.155 C 
BRANCH  23  24
HETATM   24  C   UNL     1     -12.224   1.560 -35.019  1.00  0.00     0.043 C 
BRANCH  24  25
HETATM   25  C   UNL     1     -12.509   2.969 -35.546  1.00  0.00     0.076 C 
BRANCH  25  26
HETATM   26  S   UNL     1     -11.108   4.134 -35.429  1.00  0.00    -0.173 SA
HETATM   27  C   UNL     1     -12.004   5.655 -35.035  1.00  0.00     0.089 C 
ENDBRANCH  25  26
ENDBRANCH  24  25
ENDBRANCH  23  24
BRANCH  23  28
HETATM   28  C   UNL     1     -13.589   2.171 -33.003  1.00  0.00     0.128 A 
HETATM   29  N   UNL     1     -13.617   3.393 -32.507  1.00  0.00    -0.231 NA
HETATM   30  C   UNL     1     -14.939   3.640 -32.214  1.00  0.00     0.085 A 
HETATM   31  C   UNL     1     -15.732   2.540 -32.521  1.00  0.00     0.062 A 
HETATM   32  C   UNL     1     -15.541   4.788 -31.677  1.00  0.00     0.034 A 
HETATM   33  N   UNL     1     -14.850   1.616 -33.011  1.00  0.00    -0.341 N 
HETATM   34  C   UNL     1     -17.113   2.507 -32.320  1.00  0.00     0.032 A 
HETATM   35  H   UNL     1     -15.057   0.666 -33.295  1.00  0.00     0.167 HD
HETATM   36  C   UNL     1     -17.696   3.662 -31.784  1.00  0.00     0.002 A 
HETATM   37  C   UNL     1     -16.927   4.784 -31.468  1.00  0.00     0.002 A 
ENDBRANCH  23  28
ENDBRANCH   1  23
TORSDOF 7
ENDMDL
MODEL 3
REMARK VINA RESULT:      -8.8      2.718      4.304
REMARK  7 active torsions:
REMARK  status: ('A' for Active; 'I' for Inactive)
REMARK    1  A    between atoms: S_2  and  C_3 
REMARK    2  A    between atoms: C_3  and  C_4 
REMARK    3  A    between atoms: C_4  and  C_5 
REMARK    4  A    between atoms: C_5  and  N_6 
REMARK    5  A    between atoms: C_5  and  C_26 
REMARK       I    between atoms: N_6  and  C_7 
REMARK    6  A    between atoms: C_7  and  C_8 
REMARK    7  A    between atoms: C_8  and  N_9 
ROOT
HETATM    1  N   UNL     1      -4.519   4.239 -33.338  1.00  0.00    -0.348 N 
HETATM    2  C   UNL     1      -3.675   4.955 -34.154  1.00  0.00     0.236 C 
HETATM    3  O   UNL     1      -4.044   5.396 -35.244  1.00  0.00    -0.272 OA
HETATM    4  H   UNL     1      -4.118   3.658 -32.616  1.00  0.00     0.163 HD
ENDROOT
BRANCH   2   5
HETATM    5  C   UNL     1      -2.281   5.263 -33.606  1.00  0.00     0.239 C 
BRANCH   5   6
HETATM    6  N   UNL     1      -2.229   6.293 -32.590  1.00  0.00    -0.259 N 
HETATM    7  C   UNL     1      -1.981   7.605 -32.833  1.00  0.00     0.326 A 
HETATM    8  O   UNL     1      -1.674   8.114 -33.897  1.00  0.00    -0.247 OA
HETATM    9  N   UNL     1      -2.126   8.305 -31.661  1.00  0.00    -0.320 N 
HETATM   10  C   UNL     1      -2.488   7.462 -30.539  1.00  0.00     0.144 A 
HETATM   11  H   UNL     1      -1.941   9.297 -31.609  1.00  0.00     0.165 HD
HETATM   12  C   UNL     1      -1.429   7.494 -29.448  1.00  0.00    -0.014 A 
HETATM   13  C   UNL     1      -3.895   7.831 -30.046  1.00  0.00     0.047 C 
HETATM   14  C   UNL     1      -2.541   6.098 -31.272  1.00  0.00     0.261 A 
HETATM   15  C   UNL     1      -1.799   7.483 -28.086  1.00  0.00    -0.049 A 
HETATM   16  C   UNL     1      -0.057   7.519 -29.772  1.00  0.00     0.011 A 
HETATM   17  C   UNL     1      -0.804   7.518 -27.095  1.00  0.00     0.007 A 
HETATM   18  C   UNL     1      -3.243   7.513 -27.643  1.00  0.00     0.039 C 
HETATM   19  C   UNL     1       0.545   7.549 -27.437  1.00  0.00     0.001 A 
HETATM   20  C   UNL     1       0.920   7.548 -28.775  1.00  0.00     0.001 A 
HETATM   21  C   UNL     1      -4.230   7.124 -28.738  1.00  0.00     0.008 C 
HETATM   22  O   UNL     1      -2.812   5.016 -30.767  1.00  0.00    -0.270 OA
ENDBRANCH   5   6
ENDBRANCH   2   5
BRANCH   1  23
HETATM   23  C   UNL     1      -5.911   4.002 -33.692  1.00  0.00     0.155 C 
BRANCH  23  24
HETATM   24  C   UNL     1      -6.865   4.557 -32.623  1.00  0.00     0.043 C 
BRANCH  24  25
HETATM   25  C   UNL     1      -6.171   5.117 -31.378  1.00  0.00     0.076 C 
BRANCH  25  26
HETATM   26  S   UNL     1      -6.605   4.284 -29.813  1.00  0.00    -0.173 SA
HETATM   27  C   UNL     1      -7.531   2.872 -30.461  1.00  0.00     0.089 C 
ENDBRANCH  25  26
ENDBRANCH  24  25
ENDBRANCH  23  24
BRANCH  23  28
HETATM   28  C   UNL     1      -6.092   2.522 -33.875  1.00  0.00     0.128 A 
HETATM   29  N   UNL     1      -6.955   1.893 -34.650  1.00  0.00    -0.231 NA
HETATM   30  C   UNL     1      -6.702   0.553 -34.467  1.00  0.00     0.085 A 
HETATM   31  C   UNL     1      -5.677   0.359 -33.549  1.00  0.00     0.062 A 
HETATM   32  C   UNL     1      -7.315  -0.564 -35.053  1.00  0.00     0.034 A 
HETATM   33  N   UNL     1      -5.312   1.626 -33.179  1.00  0.00    -0.341 N 
HETATM   34  C   UNL     1      -5.215  -0.901 -33.166  1.00  0.00     0.032 A 
HETATM   35  H   UNL     1      -4.622   1.883 -32.484  1.00  0.00     0.167 HD
HETATM   36  C   UNL     1      -5.837  -2.004 -33.762  1.00  0.00     0.002 A 
HETATM   37  C   UNL     1      -6.869  -1.843 -34.690  1.00  0.00     0.002 A 
ENDBRANCH  23  28
ENDBRANCH   1  23
TORSDOF 7
ENDMDL
MODEL 4
REMARK VINA RESULT:      -8.8      2.136      7.541
REMARK  7 active torsions:
REMARK  status: ('A' for Active; 'I' for Inactive)
REMARK    1  A    between atoms: S_2  and  C_3 
REMARK    2  A    between atoms: C_3  and  C_4 
REMARK    3  A    between atoms: C_4  and  C_5 
REMARK    4  A    between atoms: C_5  and  N_6 
REMARK    5  A    between atoms: C_5  and  C_26 
REMARK       I    between atoms: N_6  and  C_7 
REMARK    6  A    between atoms: C_7  and  C_8 
REMARK    7  A    between atoms: C_8  and  N_9 
ROOT
HETATM    1  N   UNL     1      -7.552   3.305 -31.996  1.00  0.00    -0.348 N 
HETATM    2  C   UNL     1      -8.480   2.554 -31.314  1.00  0.00     0.236 C 
HETATM    3  O   UNL     1      -9.144   3.024 -30.388  1.00  0.00    -0.272 OA
HETATM    4  H   UNL     1      -6.840   2.828 -32.530  1.00  0.00     0.163 HD
ENDROOT
BRANCH   2   5
HETATM    5  C   UNL     1      -8.724   1.132 -31.820  1.00  0.00     0.239 C 
BRANCH   5   6
HETATM    6  N   UNL     1      -7.710   0.610 -32.713  1.00  0.00    -0.259 N 
HETATM    7  C   UNL     1      -7.587   0.947 -34.022  1.00  0.00     0.326 A 
HETATM    8  O   UNL     1      -8.337   1.648 -34.678  1.00  0.00    -0.247 OA
HETATM    9  N   UNL     1      -6.453   0.358 -34.523  1.00  0.00    -0.320 N 
HETATM   10  C   UNL     1      -5.741  -0.431 -33.537  1.00  0.00     0.144 A 
HETATM   11  H   UNL     1      -6.196   0.443 -35.497  1.00  0.00     0.165 HD
HETATM   12  C   UNL     1      -5.668  -1.897 -33.937  1.00  0.00    -0.014 A 
HETATM   13  C   UNL     1      -4.371   0.203 -33.255  1.00  0.00     0.047 C 
HETATM   14  C   UNL     1      -6.675  -0.197 -32.323  1.00  0.00     0.261 A 
HETATM   15  C   UNL     1      -4.503  -2.653 -33.688  1.00  0.00    -0.049 A 
HETATM   16  C   UNL     1      -6.765  -2.535 -34.550  1.00  0.00     0.011 A 
HETATM   17  C   UNL     1      -4.455  -4.004 -34.071  1.00  0.00     0.007 A 
HETATM   18  C   UNL     1      -3.259  -2.041 -33.087  1.00  0.00     0.039 C 
HETATM   19  C   UNL     1      -5.548  -4.613 -34.682  1.00  0.00     0.001 A 
HETATM   20  C   UNL     1      -6.704  -3.880 -34.921  1.00  0.00     0.001 A 
HETATM   21  C   UNL     1      -3.504  -0.707 -32.393  1.00  0.00     0.008 C 
HETATM   22  O   UNL     1      -6.527  -0.653 -31.197  1.00  0.00    -0.270 OA
ENDBRANCH   5   6
ENDBRANCH   2   5
BRANCH   1  23
HETATM   23  C   UNL     1      -7.332   4.712 -31.695  1.00  0.00     0.155 C 
BRANCH  23  24
HETATM   24  C   UNL     1      -8.306   5.612 -32.470  1.00  0.00     0.043 C 
BRANCH  24  25
HETATM   25  C   UNL     1      -8.501   5.224 -33.938  1.00  0.00     0.076 C 
BRANCH  25  26
HETATM   26  S   UNL     1     -10.213   5.369 -34.553  1.00  0.00    -0.173 SA
HETATM   27  C   UNL     1     -10.913   3.842 -33.881  1.00  0.00     0.089 C 
ENDBRANCH  25  26
ENDBRANCH  24  25
ENDBRANCH  23  24
BRANCH  23  28
HETATM   28  C   UNL     1      -5.903   5.035 -32.026  1.00  0.00     0.128 A 
HETATM   29  N   UNL     1      -5.325   6.219 -32.090  1.00  0.00    -0.231 NA
HETATM   30  C   UNL     1      -4.012   5.968 -32.416  1.00  0.00     0.085 A 
HETATM   31  C   UNL     1      -3.788   4.605 -32.572  1.00  0.00     0.062 A 
HETATM   32  C   UNL     1      -2.946   6.861 -32.600  1.00  0.00     0.034 A 
HETATM   33  N   UNL     1      -5.007   4.034 -32.329  1.00  0.00    -0.341 N 
HETATM   34  C   UNL     1      -2.546   4.063 -32.911  1.00  0.00     0.032 A 
HETATM   35  H   UNL     1      -5.245   3.051 -32.398  1.00  0.00     0.167 HD
HETATM   36  C   UNL     1      -1.495   4.969 -33.089  1.00  0.00     0.002 A 
HETATM   37  C   UNL     1      -1.687   6.344 -32.937  1.00  0.00     0.002 A 
ENDBRANCH  23  28
ENDBRANCH   1  23
TORSDOF 7
ENDMDL
MODEL 5
REMARK VINA RESULT:      -8.7      2.729      7.794
REMARK  7 active torsions:
REMARK  status: ('A' for Active; 'I' for Inactive)
REMARK    1  A    between atoms: S_2  and  C_3 
REMARK    2  A    between atoms: C_3  and  C_4 
REMARK    3  A    between atoms: C_4  and  C_5 
REMARK    4  A    between atoms: C_5  and  N_6 
REMARK    5  A    between atoms: C_5  and  C_26 
REMARK       I    between atoms: N_6  and  C_7 
REMARK    6  A    between atoms: C_7  and  C_8 
REMARK    7  A    between atoms: C_8  and  N_9 
ROOT
HETATM    1  N   UNL     1      -5.642   3.025 -32.151  1.00  0.00    -0.348 N 
HETATM    2  C   UNL     1      -6.239   3.613 -31.061  1.00  0.00     0.236 C 
HETATM    3  O   UNL     1      -5.816   3.443 -29.917  1.00  0.00    -0.272 OA
HETATM    4  H   UNL     1      -6.170   2.944 -33.008  1.00  0.00     0.163 HD
ENDROOT
BRANCH   2   5
HETATM    5  C   UNL     1      -7.400   4.569 -31.342  1.00  0.00     0.239 C 
BRANCH   5   6
HETATM    6  N   UNL     1      -8.366   4.101 -32.314  1.00  0.00    -0.259 N 
HETATM    7  C   UNL     1      -8.467   4.565 -33.586  1.00  0.00     0.326 A 
HETATM    8  O   UNL     1      -7.850   5.489 -34.086  1.00  0.00    -0.247 OA
HETATM    9  N   UNL     1      -9.405   3.817 -34.253  1.00  0.00    -0.320 N 
HETATM   10  C   UNL     1      -9.998   2.784 -33.428  1.00  0.00     0.144 A 
HETATM   11  H   UNL     1      -9.670   4.025 -35.206  1.00  0.00     0.165 HD
HETATM   12  C   UNL     1     -11.497   2.984 -33.265  1.00  0.00    -0.014 A 
HETATM   13  C   UNL     1      -9.615   1.400 -33.974  1.00  0.00     0.047 C 
HETATM   14  C   UNL     1      -9.220   3.051 -32.114  1.00  0.00     0.261 A 
HETATM   15  C   UNL     1     -12.374   1.879 -33.255  1.00  0.00    -0.049 A 
HETATM   16  C   UNL     1     -12.041   4.275 -33.107  1.00  0.00     0.011 A 
HETATM   17  C   UNL     1     -13.755   2.088 -33.110  1.00  0.00     0.007 A 
HETATM   18  C   UNL     1     -11.890   0.465 -33.474  1.00  0.00     0.039 C 
HETATM   19  C   UNL     1     -14.272   3.373 -32.961  1.00  0.00     0.001 A 
HETATM   20  C   UNL     1     -13.415   4.467 -32.959  1.00  0.00     0.001 A 
HETATM   21  C   UNL     1     -10.389   0.291 -33.271  1.00  0.00     0.008 C 
HETATM   22  O   UNL     1      -9.342   2.435 -31.064  1.00  0.00    -0.270 OA
ENDBRANCH   5   6
ENDBRANCH   2   5
BRANCH   1  23
HETATM   23  C   UNL     1      -4.447   2.205 -32.022  1.00  0.00     0.155 C 
BRANCH  23  24
HETATM   24  C   UNL     1      -3.222   2.898 -32.637  1.00  0.00     0.043 C 
BRANCH  24  25
HETATM   25  C   UNL     1      -2.591   3.979 -31.755  1.00  0.00     0.076 C 
BRANCH  25  26
HETATM   26  S   UNL     1      -1.449   5.110 -32.619  1.00  0.00    -0.173 SA
HETATM   27  C   UNL     1      -2.019   4.884 -34.321  1.00  0.00     0.089 C 
ENDBRANCH  25  26
ENDBRANCH  24  25
ENDBRANCH  23  24
BRANCH  23  28
HETATM   28  C   UNL     1      -4.721   0.885 -32.684  1.00  0.00     0.128 A 
HETATM   29  N   UNL     1      -3.916  -0.154 -32.804  1.00  0.00    -0.231 NA
HETATM   30  C   UNL     1      -4.647  -1.108 -33.474  1.00  0.00     0.085 A 
HETATM   31  C   UNL     1      -5.917  -0.637 -33.785  1.00  0.00     0.062 A 
HETATM   32  C   UNL     1      -4.289  -2.408 -33.857  1.00  0.00     0.034 A 
HETATM   33  N   UNL     1      -5.937   0.636 -33.281  1.00  0.00    -0.341 N 
HETATM   34  C   UNL     1      -6.872  -1.391 -34.470  1.00  0.00     0.032 A 
HETATM   35  H   UNL     1      -6.687   1.312 -33.361  1.00  0.00     0.167 HD
HETATM   36  C   UNL     1      -6.496  -2.686 -34.844  1.00  0.00     0.002 A 
HETATM   37  C   UNL     1      -5.228  -3.190 -34.544  1.00  0.00     0.002 A 
ENDBRANCH  23  28
ENDBRANCH   1  23
TORSDOF 7
ENDMDL
MODEL 6
REMARK VINA RESULT:      -8.6      3.318      8.917
REMARK  7 active torsions:
REMARK  status: ('A' for Active; 'I' for Inactive)
REMARK    1  A    between atoms: S_2  and  C_3 
REMARK    2  A    between atoms: C_3  and  C_4 
REMARK    3  A    between atoms: C_4  and  C_5 
REMARK    4  A    between atoms: C_5  and  N_6 
REMARK    5  A    between atoms: C_5  and  C_26 
REMARK       I    between atoms: N_6  and  C_7 
REMARK    6  A    between atoms: C_7  and  C_8 
REMARK    7  A    between atoms: C_8  and  N_9 
ROOT
HETATM    1  N   UNL     1      -4.749   5.403 -31.146  1.00  0.00    -0.348 N 
HETATM    2  C   UNL     1      -5.570   5.357 -32.248  1.00  0.00     0.236 C 
HETATM    3  O   UNL     1      -5.201   5.762 -33.352  1.00  0.00    -0.272 OA
HETATM    4  H   UNL     1      -5.165   5.344 -30.228  1.00  0.00     0.163 HD
ENDROOT
BRANCH   2   5
HETATM    5  C   UNL     1      -6.934   4.690 -32.065  1.00  0.00     0.239 C 
BRANCH   5   6
HETATM    6  N   UNL     1      -6.896   3.271 -31.778  1.00  0.00    -0.259 N 
HETATM    7  C   UNL     1      -7.206   2.718 -30.578  1.00  0.00     0.326 A 
HETATM    8  O   UNL     1      -7.468   3.302 -29.541  1.00  0.00    -0.247 OA
HETATM    9  N   UNL     1      -7.177   1.351 -30.703  1.00  0.00    -0.320 N 
HETATM   10  C   UNL     1      -6.831   0.912 -32.040  1.00  0.00     0.144 A 
HETATM   11  H   UNL     1      -7.334   0.742 -29.912  1.00  0.00     0.165 HD
HETATM   12  C   UNL     1      -5.544   0.101 -32.049  1.00  0.00    -0.014 A 
HETATM   13  C   UNL     1      -8.026   0.183 -32.672  1.00  0.00     0.047 C 
HETATM   14  C   UNL     1      -6.660   2.298 -32.711  1.00  0.00     0.261 A 
HETATM   15  C   UNL     1      -5.406  -1.021 -32.895  1.00  0.00    -0.049 A 
HETATM   16  C   UNL     1      -4.457   0.459 -31.227  1.00  0.00     0.011 A 
HETATM   17  C   UNL     1      -4.211  -1.759 -32.883  1.00  0.00     0.007 A 
HETATM   18  C   UNL     1      -6.536  -1.513 -33.769  1.00  0.00     0.039 C 
HETATM   19  C   UNL     1      -3.152  -1.390 -32.058  1.00  0.00     0.001 A 
HETATM   20  C   UNL     1      -3.274  -0.281 -31.230  1.00  0.00     0.001 A 
HETATM   21  C   UNL     1      -7.638  -0.484 -33.987  1.00  0.00     0.008 C 
HETATM   22  O   UNL     1      -6.361   2.503 -33.880  1.00  0.00    -0.270 OA
ENDBRANCH   5   6
ENDBRANCH   2   5
BRANCH   1  23
HETATM   23  C   UNL     1      -3.379   5.890 -31.229  1.00  0.00     0.155 C 
BRANCH  23  24
HETATM   24  C   UNL     1      -2.391   4.742 -31.483  1.00  0.00     0.043 C 
BRANCH  24  25
HETATM   25  C   UNL     1      -1.145   5.138 -32.280  1.00  0.00     0.076 C 
BRANCH  25  26
HETATM   26  S   UNL     1      -1.448   6.290 -33.662  1.00  0.00    -0.173 SA
HETATM   27  C   UNL     1      -2.006   5.119 -34.924  1.00  0.00     0.089 C 
ENDBRANCH  25  26
ENDBRANCH  24  25
ENDBRANCH  23  24
BRANCH  23  28
HETATM   28  C   UNL     1      -3.070   6.610 -29.948  1.00  0.00     0.128 A 
HETATM   29  N   UNL     1      -2.095   7.466 -29.706  1.00  0.00    -0.231 NA
HETATM   30  C   UNL     1      -2.259   7.845 -28.393  1.00  0.00     0.085 A 
HETATM   31  C   UNL     1      -3.344   7.194 -27.817  1.00  0.00     0.062 A 
HETATM   32  C   UNL     1      -1.513   8.745 -27.618  1.00  0.00     0.034 A 
HETATM   33  N   UNL     1      -3.837   6.407 -28.823  1.00  0.00    -0.341 N 
HETATM   34  C   UNL     1      -3.740   7.382 -26.492  1.00  0.00     0.032 A 
HETATM   35  H   UNL     1      -4.604   5.748 -28.762  1.00  0.00     0.167 HD
HETATM   36  C   UNL     1      -2.984   8.285 -25.735  1.00  0.00     0.002 A 
HETATM   37  C   UNL     1      -1.890   8.957 -26.285  1.00  0.00     0.002 A 
ENDBRANCH  23  28
ENDBRANCH   1  23
TORSDOF 7
ENDMDL
MODEL 7
REMARK VINA RESULT:      -8.6      4.264      7.342
REMARK  7 active torsions:
REMARK  status: ('A' for Active; 'I' for Inactive)
REMARK    1  A    between atoms: S_2  and  C_3 
REMARK    2  A    between atoms: C_3  and  C_4 
REMARK    3  A    between atoms: C_4  and  C_5 
REMARK    4  A    between atoms: C_5  and  N_6 
REMARK    5  A    between atoms: C_5  and  C_26 
REMARK       I    between atoms: N_6  and  C_7 
REMARK    6  A    between atoms: C_7  and  C_8 
REMARK    7  A    between atoms: C_8  and  N_9 
ROOT
HETATM    1  N   UNL     1      -9.649   4.675 -32.573  1.00  0.00    -0.348 N 
HETATM    2  C   UNL     1      -8.482   4.769 -33.294  1.00  0.00     0.236 C 
HETATM    3  O   UNL     1      -8.440   5.321 -34.394  1.00  0.00    -0.272 OA
HETATM    4  H   UNL     1      -9.713   3.983 -31.841  1.00  0.00     0.163 HD
ENDROOT
BRANCH   2   5
HETATM    5  C   UNL     1      -7.212   4.241 -32.624  1.00  0.00     0.239 C 
BRANCH   5   6
HETATM    6  N   UNL     1      -7.182   2.811 -32.395  1.00  0.00    -0.259 N 
HETATM    7  C   UNL     1      -7.690   2.194 -31.298  1.00  0.00     0.326 A 
HETATM    8  O   UNL     1      -8.158   2.721 -30.304  1.00  0.00    -0.247 OA
HETATM    9  N   UNL     1      -7.594   0.836 -31.473  1.00  0.00    -0.320 N 
HETATM   10  C   UNL     1      -6.993   0.469 -32.740  1.00  0.00     0.144 A 
HETATM   11  H   UNL     1      -7.875   0.187 -30.751  1.00  0.00     0.165 HD
HETATM   12  C   UNL     1      -5.701  -0.309 -32.544  1.00  0.00    -0.014 A 
HETATM   13  C   UNL     1      -8.026  -0.257 -33.614  1.00  0.00     0.047 C 
HETATM   14  C   UNL     1      -6.746   1.889 -33.309  1.00  0.00     0.261 A 
HETATM   15  C   UNL     1      -5.373  -1.386 -33.396  1.00  0.00    -0.049 A 
HETATM   16  C   UNL     1      -4.796   0.036 -31.519  1.00  0.00     0.011 A 
HETATM   17  C   UNL     1      -4.177  -2.094 -33.193  1.00  0.00     0.007 A 
HETATM   18  C   UNL     1      -6.305  -1.863 -34.485  1.00  0.00     0.039 C 
HETATM   19  C   UNL     1      -3.301  -1.739 -32.170  1.00  0.00     0.001 A 
HETATM   20  C   UNL     1      -3.609  -0.674 -31.334  1.00  0.00     0.001 A 
HETATM   21  C   UNL     1      -7.381  -0.851 -34.860  1.00  0.00     0.008 C 
HETATM   22  O   UNL     1      -6.243   2.157 -34.391  1.00  0.00    -0.270 OA
ENDBRANCH   5   6
ENDBRANCH   2   5
BRANCH   1  23
HETATM   23  C   UNL     1     -10.893   5.264 -33.046  1.00  0.00     0.155 C 
BRANCH  23  24
HETATM   24  C   UNL     1     -11.447   6.288 -32.043  1.00  0.00     0.043 C 
BRANCH  24  25
HETATM   25  C   UNL     1     -10.963   6.096 -30.604  1.00  0.00     0.076 C 
BRANCH  25  26
HETATM   26  S   UNL     1      -9.750   7.332 -30.027  1.00  0.00    -0.173 SA
HETATM   27  C   UNL     1      -8.490   6.230 -29.341  1.00  0.00     0.089 C 
ENDBRANCH  25  26
ENDBRANCH  24  25
ENDBRANCH  23  24
BRANCH  23  28
HETATM   28  C   UNL     1     -11.868   4.147 -33.287  1.00  0.00     0.128 A 
HETATM   29  N   UNL     1     -11.832   3.217 -34.222  1.00  0.00    -0.231 NA
HETATM   30  C   UNL     1     -12.940   2.432 -33.999  1.00  0.00     0.085 A 
HETATM   31  C   UNL     1     -13.677   2.902 -32.918  1.00  0.00     0.062 A 
HETATM   32  C   UNL     1     -13.387   1.294 -34.687  1.00  0.00     0.034 A 
HETATM   33  N   UNL     1     -12.980   3.999 -32.489  1.00  0.00    -0.341 N 
HETATM   34  C   UNL     1     -14.856   2.303 -32.471  1.00  0.00     0.032 A 
HETATM   35  H   UNL     1     -13.241   4.634 -31.743  1.00  0.00     0.167 HD
HETATM   36  C   UNL     1     -15.285   1.168 -33.169  1.00  0.00     0.002 A 
HETATM   37  C   UNL     1     -14.566   0.669 -34.257  1.00  0.00     0.002 A 
ENDBRANCH  23  28
ENDBRANCH   1  23
TORSDOF 7
ENDMDL
MODEL 8
REMARK VINA RESULT:      -8.6      2.477      8.104
REMARK  7 active torsions:
REMARK  status: ('A' for Active; 'I' for Inactive)
REMARK    1  A    between atoms: S_2  and  C_3 
REMARK    2  A    between atoms: C_3  and  C_4 
REMARK    3  A    between atoms: C_4  and  C_5 
REMARK    4  A    between atoms: C_5  and  N_6 
REMARK    5  A    between atoms: C_5  and  C_26 
REMARK       I    between atoms: N_6  and  C_7 
REMARK    6  A    between atoms: C_7  and  C_8 
REMARK    7  A    between atoms: C_8  and  N_9 
ROOT
HETATM    1  N   UNL     1      -7.036   3.928 -31.660  1.00  0.00    -0.348 N 
HETATM    2  C   UNL     1      -7.318   2.814 -30.906  1.00  0.00     0.236 C 
HETATM    3  O   UNL     1      -7.193   2.809 -29.680  1.00  0.00    -0.272 OA
HETATM    4  H   UNL     1      -6.867   3.815 -32.649  1.00  0.00     0.163 HD
ENDROOT
BRANCH   2   5
HETATM    5  C   UNL     1      -7.888   1.604 -31.648  1.00  0.00     0.239 C 
BRANCH   5   6
HETATM    6  N   UNL     1      -6.954   0.908 -32.508  1.00  0.00    -0.259 N 
HETATM    7  C   UNL     1      -6.624   1.300 -33.765  1.00  0.00     0.326 A 
HETATM    8  O   UNL     1      -7.108   2.218 -34.404  1.00  0.00    -0.247 OA
HETATM    9  N   UNL     1      -5.629   0.480 -34.234  1.00  0.00    -0.320 N 
HETATM   10  C   UNL     1      -5.235  -0.537 -33.279  1.00  0.00     0.144 A 
HETATM   11  H   UNL     1      -5.265   0.569 -35.173  1.00  0.00     0.165 HD
HETATM   12  C   UNL     1      -5.490  -1.939 -33.813  1.00  0.00    -0.014 A 
HETATM   13  C   UNL     1      -3.784  -0.299 -32.835  1.00  0.00     0.047 C 
HETATM   14  C   UNL     1      -6.195  -0.163 -32.122  1.00  0.00     0.261 A 
HETATM   15  C   UNL     1      -4.579  -2.985 -33.552  1.00  0.00    -0.049 A 
HETATM   16  C   UNL     1      -6.646  -2.226 -34.567  1.00  0.00     0.011 A 
HETATM   17  C   UNL     1      -4.832  -4.270 -34.060  1.00  0.00     0.007 A 
HETATM   18  C   UNL     1      -3.287  -2.759 -32.803  1.00  0.00     0.039 C 
HETATM   19  C   UNL     1      -5.978  -4.530 -34.808  1.00  0.00     0.001 A 
HETATM   20  C   UNL     1      -6.885  -3.510 -35.061  1.00  0.00     0.001 A 
HETATM   21  C   UNL     1      -3.259  -1.463 -32.002  1.00  0.00     0.008 C 
HETATM   22  O   UNL     1      -6.275  -0.725 -31.038  1.00  0.00    -0.270 OA
ENDBRANCH   5   6
ENDBRANCH   2   5
BRANCH   1  23
HETATM   23  C   UNL     1      -6.618   5.182 -31.050  1.00  0.00     0.155 C 
BRANCH  23  24
HETATM   24  C   UNL     1      -7.462   6.361 -31.556  1.00  0.00     0.043 C 
BRANCH  24  25
HETATM   25  C   UNL     1      -8.558   6.821 -30.591  1.00  0.00     0.076 C 
BRANCH  25  26
HETATM   26  S   UNL     1      -8.430   6.146 -28.900  1.00  0.00    -0.173 SA
HETATM   27  C   UNL     1      -8.910   7.606 -27.947  1.00  0.00     0.089 C 
ENDBRANCH  25  26
ENDBRANCH  24  25
ENDBRANCH  23  24
BRANCH  23  28
HETATM   28  C   UNL     1      -5.160   5.378 -31.355  1.00  0.00     0.128 A 
HETATM   29  N   UNL     1      -4.158   4.550 -31.131  1.00  0.00    -0.231 NA
HETATM   30  C   UNL     1      -3.038   5.194 -31.604  1.00  0.00     0.085 A 
HETATM   31  C   UNL     1      -3.359   6.447 -32.111  1.00  0.00     0.062 A 
HETATM   32  C   UNL     1      -1.702   4.767 -31.632  1.00  0.00     0.034 A 
HETATM   33  N   UNL     1      -4.713   6.546 -31.932  1.00  0.00    -0.341 N 
HETATM   34  C   UNL     1      -2.417   7.323 -32.652  1.00  0.00     0.032 A 
HETATM   35  H   UNL     1      -5.299   7.346 -32.140  1.00  0.00     0.167 HD
HETATM   36  C   UNL     1      -1.089   6.881 -32.672  1.00  0.00     0.002 A 
HETATM   37  C   UNL     1      -0.734   5.625 -32.172  1.00  0.00     0.002 A 
ENDBRANCH  23  28
ENDBRANCH   1  23
TORSDOF 7
ENDMDL
MODEL 9
REMARK VINA RESULT:      -8.5      2.751      8.002
REMARK  7 active torsions:
REMARK  status: ('A' for Active; 'I' for Inactive)
REMARK    1  A    between atoms: S_2  and  C_3 
REMARK    2  A    between atoms: C_3  and  C_4 
REMARK    3  A    between atoms: C_4  and  C_5 
REMARK    4  A    between atoms: C_5  and  N_6 
REMARK    5  A    between atoms: C_5  and  C_26 
REMARK       I    between atoms: N_6  and  C_7 
REMARK    6  A    between atoms: C_7  and  C_8 
REMARK    7  A    between atoms: C_8  and  N_9 
ROOT
HETATM    1  N   UNL     1      -6.032   5.014 -30.394  1.00  0.00    -0.348 N 
HETATM    2  C   UNL     1      -7.043   4.211 -29.920  1.00  0.00     0.236 C 
HETATM    3  O   UNL     1      -7.495   4.339 -28.781  1.00  0.00    -0.272 OA
HETATM    4  H   UNL     1      -5.499   4.702 -31.193  1.00  0.00     0.163 HD
ENDROOT
BRANCH   2   5
HETATM    5  C   UNL     1      -7.651   3.212 -30.906  1.00  0.00     0.239 C 
BRANCH   5   6
HETATM    6  N   UNL     1      -6.706   2.561 -31.790  1.00  0.00    -0.259 N 
HETATM    7  C   UNL     1      -6.268   3.077 -32.966  1.00  0.00     0.326 A 
HETATM    8  O   UNL     1      -6.650   4.096 -33.513  1.00  0.00    -0.247 OA
HETATM    9  N   UNL     1      -5.296   2.251 -33.474  1.00  0.00    -0.320 N 
HETATM   10  C   UNL     1      -5.033   1.101 -32.632  1.00  0.00     0.144 A 
HETATM   11  H   UNL     1      -4.865   2.427 -34.371  1.00  0.00     0.165 HD
HETATM   12  C   UNL     1      -5.337  -0.204 -33.350  1.00  0.00    -0.014 A 
HETATM   13  C   UNL     1      -3.603   1.182 -32.076  1.00  0.00     0.047 C 
HETATM   14  C   UNL     1      -6.043   1.400 -31.495  1.00  0.00     0.261 A 
HETATM   15  C   UNL     1      -4.514  -1.335 -33.168  1.00  0.00    -0.049 A 
HETATM   16  C   UNL     1      -6.456  -0.317 -34.201  1.00  0.00     0.011 A 
HETATM   17  C   UNL     1      -4.811  -2.529 -33.846  1.00  0.00     0.007 A 
HETATM   18  C   UNL     1      -3.263  -1.293 -32.321  1.00  0.00     0.039 C 
HETATM   19  C   UNL     1      -5.918  -2.617 -34.687  1.00  0.00     0.001 A 
HETATM   20  C   UNL     1      -6.741  -1.512 -34.864  1.00  0.00     0.001 A 
HETATM   21  C   UNL     1      -3.209  -0.107 -31.365  1.00  0.00     0.008 C 
HETATM   22  O   UNL     1      -6.231   0.718 -30.497  1.00  0.00    -0.270 OA
ENDBRANCH   5   6
ENDBRANCH   2   5
BRANCH   1  23
HETATM   23  C   UNL     1      -5.469   6.092 -29.594  1.00  0.00     0.155 C 
BRANCH  23  24
HETATM   24  C   UNL     1      -6.213   7.415 -29.832  1.00  0.00     0.043 C 
BRANCH  24  25
HETATM   25  C   UNL     1      -6.125   7.946 -31.265  1.00  0.00     0.076 C 
BRANCH  25  26
HETATM   26  S   UNL     1      -7.705   8.525 -31.970  1.00  0.00    -0.173 SA
HETATM   27  C   UNL     1      -8.552   6.940 -32.175  1.00  0.00     0.089 C 
ENDBRANCH  25  26
ENDBRANCH  24  25
ENDBRANCH  23  24
BRANCH  23  28
HETATM   28  C   UNL     1      -4.013   6.209 -29.941  1.00  0.00     0.128 A 
HETATM   29  N   UNL     1      -3.132   7.084 -29.494  1.00  0.00    -0.231 NA
HETATM   30  C   UNL     1      -1.945   6.754 -30.106  1.00  0.00     0.085 A 
HETATM   31  C   UNL     1      -2.107   5.667 -30.957  1.00  0.00     0.062 A 
HETATM   32  C   UNL     1      -0.678   7.344 -29.985  1.00  0.00     0.034 A 
HETATM   33  N   UNL     1      -3.432   5.345 -30.843  1.00  0.00    -0.341 N 
HETATM   34  C   UNL     1      -1.068   5.120 -31.714  1.00  0.00     0.032 A 
HETATM   35  H   UNL     1      -3.932   4.628 -31.356  1.00  0.00     0.167 HD
HETATM   36  C   UNL     1       0.188   5.721 -31.579  1.00  0.00     0.002 A 
HETATM   37  C   UNL     1       0.385   6.813 -30.730  1.00  0.00     0.002 A 
ENDBRANCH  23  28
ENDBRANCH   1  23
TORSDOF 7
ENDMDL
MODEL 10
REMARK VINA RESULT:      -8.5      2.363      3.534
REMARK  7 active torsions:
REMARK  status: ('A' for Active; 'I' for Inactive)
REMARK    1  A    between atoms: S_2  and  C_3 
REMARK    2  A    between atoms: C_3  and  C_4 
REMARK    3  A    between atoms: C_4  and  C_5 
REMARK    4  A    between atoms: C_5  and  N_6 
REMARK    5  A    between atoms: C_5  and  C_26 
REMARK       I    between atoms: N_6  and  C_7 
REMARK    6  A    between atoms: C_7  and  C_8 
REMARK    7  A    between atoms: C_8  and  N_9 
ROOT
HETATM    1  N   UNL     1      -5.546   3.598 -32.608  1.00  0.00    -0.348 N 
HETATM    2  C   UNL     1      -4.194   3.577 -32.857  1.00  0.00     0.236 C 
HETATM    3  O   UNL     1      -3.463   2.695 -32.404  1.00  0.00    -0.272 OA
HETATM    4  H   UNL     1      -6.049   4.463 -32.739  1.00  0.00     0.163 HD
ENDROOT
BRANCH   2   5
HETATM    5  C   UNL     1      -3.649   4.647 -33.804  1.00  0.00     0.239 C 
BRANCH   5   6
HETATM    6  N   UNL     1      -2.645   5.524 -33.236  1.00  0.00    -0.259 N 
HETATM    7  C   UNL     1      -1.486   5.870 -33.851  1.00  0.00     0.326 A 
HETATM    8  O   UNL     1      -1.056   5.446 -34.909  1.00  0.00    -0.247 OA
HETATM    9  N   UNL     1      -0.840   6.802 -33.078  1.00  0.00    -0.320 N 
HETATM   10  C   UNL     1      -1.562   7.132 -31.866  1.00  0.00     0.144 A 
HETATM   11  H   UNL     1       0.070   7.163 -33.332  1.00  0.00     0.165 HD
HETATM   12  C   UNL     1      -0.762   6.776 -30.621  1.00  0.00    -0.014 A 
HETATM   13  C   UNL     1      -2.013   8.600 -31.913  1.00  0.00     0.047 C 
HETATM   14  C   UNL     1      -2.792   6.210 -32.061  1.00  0.00     0.261 A 
HETATM   15  C   UNL     1      -0.787   7.614 -29.486  1.00  0.00    -0.049 A 
HETATM   16  C   UNL     1       0.008   5.597 -30.569  1.00  0.00     0.011 A 
HETATM   17  C   UNL     1      -0.036   7.269 -28.350  1.00  0.00     0.007 A 
HETATM   18  C   UNL     1      -1.538   8.925 -29.469  1.00  0.00     0.039 C 
HETATM   19  C   UNL     1       0.723   6.102 -28.323  1.00  0.00     0.001 A 
HETATM   20  C   UNL     1       0.745   5.265 -29.431  1.00  0.00     0.001 A 
HETATM   21  C   UNL     1      -2.582   9.049 -30.572  1.00  0.00     0.008 C 
HETATM   22  O   UNL     1      -3.741   6.100 -31.297  1.00  0.00    -0.270 OA
ENDBRANCH   5   6
ENDBRANCH   2   5
BRANCH   1  23
HETATM   23  C   UNL     1      -6.201   2.553 -31.835  1.00  0.00     0.155 C 
BRANCH  23  24
HETATM   24  C   UNL     1      -5.637   2.475 -30.408  1.00  0.00     0.043 C 
BRANCH  24  25
HETATM   25  C   UNL     1      -5.829   3.745 -29.576  1.00  0.00     0.076 C 
BRANCH  25  26
HETATM   26  S   UNL     1      -7.527   4.413 -29.569  1.00  0.00    -0.173 SA
HETATM   27  C   UNL     1      -7.236   6.007 -30.374  1.00  0.00     0.089 C 
ENDBRANCH  25  26
ENDBRANCH  24  25
ENDBRANCH  23  24
BRANCH  23  28
HETATM   28  C   UNL     1      -6.020   1.256 -32.570  1.00  0.00     0.128 A 
HETATM   29  N   UNL     1      -6.727   0.781 -33.577  1.00  0.00    -0.231 NA
HETATM   30  C   UNL     1      -6.149  -0.427 -33.892  1.00  0.00     0.085 A 
HETATM   31  C   UNL     1      -5.079  -0.704 -33.050  1.00  0.00     0.062 A 
HETATM   32  C   UNL     1      -6.488  -1.351 -34.892  1.00  0.00     0.034 A 
HETATM   33  N   UNL     1      -5.023   0.376 -32.211  1.00  0.00    -0.341 N 
HETATM   34  C   UNL     1      -4.311  -1.867 -33.137  1.00  0.00     0.032 A 
HETATM   35  H   UNL     1      -4.395   0.508 -31.427  1.00  0.00     0.167 HD
HETATM   36  C   UNL     1      -4.664  -2.776 -34.140  1.00  0.00     0.002 A 
HETATM   37  C   UNL     1      -5.732  -2.526 -35.005  1.00  0.00     0.002 A 
ENDBRANCH  23  28
ENDBRANCH   1  23
TORSDOF 7
ENDMDL
