MODEL 1
REMARK VINA RESULT:      -7.9      0.000      0.000
REMARK  9 active torsions:
REMARK  status: ('A' for Active; 'I' for Inactive)
REMARK    1  A    between atoms: C_2  and  O_3 
REMARK    2  A    between atoms: O_3  and  C_4 
REMARK    3  A    between atoms: C_4  and  C_5 
REMARK    4  A    between atoms: C_10  and  N_11 
REMARK       I    between atoms: N_11  and  C_12 
REMARK    5  A    between atoms: C_12  and  C_13 
REMARK    6  A    between atoms: C_13  and  N_14 
REMARK    7  A    between atoms: C_16  and  C_17 
REMARK    8  A    between atoms: C_17  and  C_18 
REMARK    9  A    between atoms: C_18  and  O_19 
ROOT
HETATM    1  C   UNL     1      -5.793   0.536 -32.263  1.00  0.00     0.137 A 
HETATM    2  N   UNL     1      -4.636  -0.135 -32.569  1.00  0.00    -0.349 N 
HETATM    3  H   UNL     1      -3.710   0.174 -32.305  1.00  0.00     0.166 HD
HETATM    4  C   UNL     1      -4.909  -1.269 -33.292  1.00  0.00     0.045 A 
HETATM    5  C   UNL     1      -6.296  -1.337 -33.461  1.00  0.00     0.021 A 
HETATM    6  C   UNL     1      -6.852  -0.200 -32.785  1.00  0.00     0.080 A 
HETATM    7  C   UNL     1      -4.019  -2.222 -33.807  1.00  0.00     0.032 A 
HETATM    8  C   UNL     1      -4.552  -3.283 -34.540  1.00  0.00     0.026 A 
HETATM    9  C   UNL     1      -5.921  -3.372 -34.751  1.00  0.00     0.035 A 
HETATM   10 CL   UNL     1      -6.555  -4.679 -35.676  1.00  0.00    -0.084 Cl
HETATM   11  C   UNL     1      -6.798  -2.413 -34.229  1.00  0.00     0.040 A 
ENDROOT
BRANCH   6  12
HETATM   12  N   UNL     1      -8.159   0.252 -32.603  1.00  0.00    -0.323 N 
HETATM   13  C   UNL     1      -9.060   0.622 -33.568  1.00  0.00     0.248 C 
HETATM   14  O   UNL     1      -8.930   0.573 -34.789  1.00  0.00    -0.271 OA
HETATM   15  H   UNL     1      -8.484   0.165 -31.638  1.00  0.00     0.169 HD
BRANCH  13  16
HETATM   16  C   UNL     1     -10.405   1.096 -33.012  1.00  0.00     0.338 C 
BRANCH  16  17
HETATM   17  N   UNL     1     -11.028   2.156 -33.934  1.00  0.00    -0.059 N 
HETATM   18  H   UNL     1     -10.336   2.196 -34.704  1.00  0.00     0.280 HD
HETATM   19  C   UNL     1     -12.329   1.727 -34.626  1.00  0.00     0.190 C 
HETATM   20  C   UNL     1     -12.641   2.787 -35.692  1.00  0.00     0.033 C 
HETATM   21  C   UNL     1     -12.715   4.199 -35.118  1.00  0.00     0.004 C 
HETATM   22  C   UNL     1     -11.437   4.556 -34.366  1.00  0.00     0.028 C 
HETATM   23  C   UNL     1     -11.073   3.523 -33.309  1.00  0.00     0.236 C 
BRANCH  19  24
HETATM   24  C   UNL     1     -13.455   1.495 -33.609  1.00  0.00     0.059 C 
BRANCH  24  25
HETATM   25  C   UNL     1     -14.273   0.239 -33.892  1.00  0.00     0.166 C 
BRANCH  25  26
HETATM   26  O   UNL     1     -13.581  -0.857 -33.314  1.00  0.00    -0.401 OA
HETATM   27  H   UNL     1     -14.223  -1.383 -32.802  1.00  0.00     0.209 HD
ENDBRANCH  25  26
ENDBRANCH  24  25
ENDBRANCH  19  24
ENDBRANCH  16  17
ENDBRANCH  13  16
ENDBRANCH   6  12
BRANCH   1  28
HETATM   28  C   UNL     1      -5.851   1.766 -31.511  1.00  0.00     0.312 C 
HETATM   29  O   UNL     1      -5.142   2.738 -31.750  1.00  0.00    -0.258 OA
BRANCH  28  30
HETATM   30  O   UNL     1      -6.787   1.675 -30.532  1.00  0.00    -0.317 OA
BRANCH  30  31
HETATM   31  C   UNL     1      -7.253   2.924 -29.996  1.00  0.00     0.175 C 
HETATM   32  C   UNL     1      -8.691   3.175 -30.410  1.00  0.00     0.034 C 
ENDBRANCH  30  31
ENDBRANCH  28  30
ENDBRANCH   1  28
TORSDOF 9
ENDMDL
MODEL 2
REMARK VINA RESULT:      -7.8      1.717      2.856
REMARK  9 active torsions:
REMARK  status: ('A' for Active; 'I' for Inactive)
REMARK    1  A    between atoms: C_2  and  O_3 
REMARK    2  A    between atoms: O_3  and  C_4 
REMARK    3  A    between atoms: C_4  and  C_5 
REMARK    4  A    between atoms: C_10  and  N_11 
REMARK       I    between atoms: N_11  and  C_12 
REMARK    5  A    between atoms: C_12  and  C_13 
REMARK    6  A    between atoms: C_13  and  N_14 
REMARK    7  A    between atoms: C_16  and  C_17 
REMARK    8  A    between atoms: C_17  and  C_18 
REMARK    9  A    between atoms: C_18  and  O_19 
ROOT
HETATM    1  C   UNL     1      -6.322   1.148 -33.249  1.00  0.00     0.137 A 
HETATM    2  N   UNL     1      -5.144   0.455 -33.126  1.00  0.00    -0.349 N 
HETATM    3  H   UNL     1      -4.296   0.837 -32.726  1.00  0.00     0.166 HD
HETATM    4  C   UNL     1      -5.272  -0.815 -33.629  1.00  0.00     0.045 A 
HETATM    5  C   UNL     1      -6.584  -0.952 -34.098  1.00  0.00     0.021 A 
HETATM    6  C   UNL     1      -7.250   0.292 -33.831  1.00  0.00     0.080 A 
HETATM    7  C   UNL     1      -4.313  -1.834 -33.705  1.00  0.00     0.032 A 
HETATM    8  C   UNL     1      -4.690  -3.041 -34.294  1.00  0.00     0.026 A 
HETATM    9  C   UNL     1      -5.975  -3.207 -34.794  1.00  0.00     0.035 A 
HETATM   10 CL   UNL     1      -6.412  -4.699 -35.537  1.00  0.00    -0.084 Cl
HETATM   11  C   UNL     1      -6.922  -2.180 -34.710  1.00  0.00     0.040 A 
ENDROOT
BRANCH   6  12
HETATM   12  N   UNL     1      -8.551   0.739 -34.060  1.00  0.00    -0.323 N 
HETATM   13  C   UNL     1      -9.651   0.562 -33.262  1.00  0.00     0.248 C 
HETATM   14  O   UNL     1      -9.710   0.033 -32.154  1.00  0.00    -0.271 OA
HETATM   15  H   UNL     1      -8.624   1.370 -34.861  1.00  0.00     0.169 HD
BRANCH  13  16
HETATM   16  C   UNL     1     -10.937   1.165 -33.834  1.00  0.00     0.338 C 
BRANCH  16  17
HETATM   17  N   UNL     1     -11.525   2.203 -32.865  1.00  0.00    -0.059 N 
HETATM   18  H   UNL     1     -11.539   1.673 -31.974  1.00  0.00     0.280 HD
HETATM   19  C   UNL     1     -10.612   3.400 -32.569  1.00  0.00     0.190 C 
HETATM   20  C   UNL     1     -11.242   4.166 -31.396  1.00  0.00     0.033 C 
HETATM   21  C   UNL     1     -12.687   4.577 -31.666  1.00  0.00     0.004 C 
HETATM   22  C   UNL     1     -13.542   3.370 -32.039  1.00  0.00     0.028 C 
HETATM   23  C   UNL     1     -12.948   2.566 -33.186  1.00  0.00     0.236 C 
BRANCH  19  24
HETATM   24  C   UNL     1     -10.371   4.247 -33.826  1.00  0.00     0.059 C 
BRANCH  24  25
HETATM   25  C   UNL     1      -9.618   5.543 -33.546  1.00  0.00     0.166 C 
BRANCH  25  26
HETATM   26  O   UNL     1      -8.586   5.652 -34.515  1.00  0.00    -0.401 OA
HETATM   27  H   UNL     1      -8.457   6.598 -34.712  1.00  0.00     0.209 HD
ENDBRANCH  25  26
ENDBRANCH  24  25
ENDBRANCH  19  24
ENDBRANCH  16  17
ENDBRANCH  13  16
ENDBRANCH   6  12
BRANCH   1  28
HETATM   28  C   UNL     1      -6.519   2.510 -32.815  1.00  0.00     0.312 C 
HETATM   29  O   UNL     1      -6.892   3.410 -33.561  1.00  0.00    -0.258 OA
BRANCH  28  30
HETATM   30  O   UNL     1      -6.235   2.628 -31.493  1.00  0.00    -0.317 OA
BRANCH  30  31
HETATM   31  C   UNL     1      -7.338   2.417 -30.597  1.00  0.00     0.175 C 
HETATM   32  C   UNL     1      -7.817   3.738 -30.024  1.00  0.00     0.034 C 
ENDBRANCH  30  31
ENDBRANCH  28  30
ENDBRANCH   1  28
TORSDOF 9
ENDMDL
MODEL 3
REMARK VINA RESULT:      -7.7      1.678      1.789
REMARK  9 active torsions:
REMARK  status: ('A' for Active; 'I' for Inactive)
REMARK    1  A    between atoms: C_2  and  O_3 
REMARK    2  A    between atoms: O_3  and  C_4 
REMARK    3  A    between atoms: C_4  and  C_5 
REMARK    4  A    between atoms: C_10  and  N_11 
REMARK       I    between atoms: N_11  and  C_12 
REMARK    5  A    between atoms: C_12  and  C_13 
REMARK    6  A    between atoms: C_13  and  N_14 
REMARK    7  A    between atoms: C_16  and  C_17 
REMARK    8  A    between atoms: C_17  and  C_18 
REMARK    9  A    between atoms: C_18  and  O_19 
ROOT
HETATM    1  C   UNL     1      -6.610   0.971 -33.285  1.00  0.00     0.137 A 
HETATM    2  N   UNL     1      -5.333   0.469 -33.290  1.00  0.00    -0.349 N 
HETATM    3  H   UNL     1      -4.515   0.984 -32.988  1.00  0.00     0.166 HD
HETATM    4  C   UNL     1      -5.318  -0.816 -33.771  1.00  0.00     0.045 A 
HETATM    5  C   UNL     1      -6.636  -1.161 -34.091  1.00  0.00     0.021 A 
HETATM    6  C   UNL     1      -7.453  -0.029 -33.757  1.00  0.00     0.080 A 
HETATM    7  C   UNL     1      -4.228  -1.679 -33.948  1.00  0.00     0.032 A 
HETATM    8  C   UNL     1      -4.476  -2.941 -34.488  1.00  0.00     0.026 A 
HETATM    9  C   UNL     1      -5.767  -3.312 -34.841  1.00  0.00     0.035 A 
HETATM   10 CL   UNL     1      -6.047  -4.867 -35.525  1.00  0.00    -0.084 Cl
HETATM   11  C   UNL     1      -6.846  -2.440 -34.657  1.00  0.00     0.040 A 
ENDROOT
BRANCH   6  12
HETATM   12  N   UNL     1      -8.824   0.210 -33.842  1.00  0.00    -0.323 N 
HETATM   13  C   UNL     1      -9.729   0.277 -32.814  1.00  0.00     0.248 C 
HETATM   14  O   UNL     1      -9.514   0.208 -31.606  1.00  0.00    -0.271 OA
HETATM   15  H   UNL     1      -9.128   0.481 -34.780  1.00  0.00     0.169 HD
BRANCH  13  16
HETATM   16  C   UNL     1     -11.169   0.531 -33.270  1.00  0.00     0.338 C 
BRANCH  16  17
HETATM   17  N   UNL     1     -11.238   1.766 -34.181  1.00  0.00    -0.059 N 
HETATM   18  H   UNL     1     -10.431   1.606 -34.812  1.00  0.00     0.280 HD
HETATM   19  C   UNL     1     -12.446   1.804 -35.127  1.00  0.00     0.190 C 
HETATM   20  C   UNL     1     -12.198   2.944 -36.125  1.00  0.00     0.033 C 
HETATM   21  C   UNL     1     -11.940   4.284 -35.441  1.00  0.00     0.004 C 
HETATM   22  C   UNL     1     -10.787   4.182 -34.448  1.00  0.00     0.028 C 
HETATM   23  C   UNL     1     -10.977   3.052 -33.447  1.00  0.00     0.236 C 
BRANCH  19  24
HETATM   24  C   UNL     1     -13.764   1.914 -34.349  1.00  0.00     0.059 C 
BRANCH  24  25
HETATM   25  C   UNL     1     -14.538   0.601 -34.283  1.00  0.00     0.166 C 
BRANCH  25  26
HETATM   26  O   UNL     1     -15.839   0.850 -34.792  1.00  0.00    -0.401 OA
HETATM   27  H   UNL     1     -16.191   0.011 -35.142  1.00  0.00     0.209 HD
ENDBRANCH  25  26
ENDBRANCH  24  25
ENDBRANCH  19  24
ENDBRANCH  16  17
ENDBRANCH  13  16
ENDBRANCH   6  12
BRANCH   1  28
HETATM   28  C   UNL     1      -6.966   2.296 -32.837  1.00  0.00     0.312 C 
HETATM   29  O   UNL     1      -7.004   2.623 -31.656  1.00  0.00    -0.258 OA
BRANCH  28  30
HETATM   30  O   UNL     1      -7.241   3.093 -33.901  1.00  0.00    -0.317 OA
BRANCH  30  31
HETATM   31  C   UNL     1      -6.565   4.360 -33.923  1.00  0.00     0.175 C 
HETATM   32  C   UNL     1      -7.497   5.468 -33.472  1.00  0.00     0.034 C 
ENDBRANCH  30  31
ENDBRANCH  28  30
ENDBRANCH   1  28
TORSDOF 9
ENDMDL
MODEL 4
REMARK VINA RESULT:      -7.6      2.572      6.008
REMARK  9 active torsions:
REMARK  status: ('A' for Active; 'I' for Inactive)
REMARK    1  A    between atoms: C_2  and  O_3 
REMARK    2  A    between atoms: O_3  and  C_4 
REMARK    3  A    between atoms: C_4  and  C_5 
REMARK    4  A    between atoms: C_10  and  N_11 
REMARK       I    between atoms: N_11  and  C_12 
REMARK    5  A    between atoms: C_12  and  C_13 
REMARK    6  A    between atoms: C_13  and  N_14 
REMARK    7  A    between atoms: C_16  and  C_17 
REMARK    8  A    between atoms: C_17  and  C_18 
REMARK    9  A    between atoms: C_18  and  O_19 
ROOT
HETATM    1  C   UNL     1      -6.918   0.204 -33.697  1.00  0.00     0.137 A 
HETATM    2  N   UNL     1      -7.495  -0.912 -34.247  1.00  0.00    -0.349 N 
HETATM    3  H   UNL     1      -8.456  -0.963 -34.561  1.00  0.00     0.166 HD
HETATM    4  C   UNL     1      -6.596  -1.948 -34.300  1.00  0.00     0.045 A 
HETATM    5  C   UNL     1      -5.389  -1.486 -33.764  1.00  0.00     0.021 A 
HETATM    6  C   UNL     1      -5.595  -0.111 -33.405  1.00  0.00     0.080 A 
HETATM    7  C   UNL     1      -6.782  -3.253 -34.776  1.00  0.00     0.032 A 
HETATM    8  C   UNL     1      -5.705  -4.137 -34.693  1.00  0.00     0.026 A 
HETATM    9  C   UNL     1      -4.499  -3.723 -34.144  1.00  0.00     0.035 A 
HETATM   10 CL   UNL     1      -3.190  -4.837 -34.032  1.00  0.00    -0.084 Cl
HETATM   11  C   UNL     1      -4.328  -2.415 -33.673  1.00  0.00     0.040 A 
ENDROOT
BRANCH   6  12
HETATM   12  N   UNL     1      -4.764   0.859 -32.845  1.00  0.00    -0.323 N 
HETATM   13  C   UNL     1      -4.401   0.993 -31.530  1.00  0.00     0.248 C 
HETATM   14  O   UNL     1      -4.673   0.255 -30.586  1.00  0.00    -0.271 OA
HETATM   15  H   UNL     1      -4.298   1.441 -33.544  1.00  0.00     0.169 HD
BRANCH  13  16
HETATM   16  C   UNL     1      -3.491   2.195 -31.257  1.00  0.00     0.338 C 
BRANCH  16  17
HETATM   17  N   UNL     1      -3.683   3.274 -32.334  1.00  0.00    -0.059 N 
HETATM   18  H   UNL     1      -3.973   2.705 -33.151  1.00  0.00     0.280 HD
HETATM   19  C   UNL     1      -4.870   4.217 -32.100  1.00  0.00     0.190 C 
HETATM   20  C   UNL     1      -5.061   5.028 -33.390  1.00  0.00     0.033 C 
HETATM   21  C   UNL     1      -3.794   5.766 -33.817  1.00  0.00     0.004 C 
HETATM   22  C   UNL     1      -2.618   4.805 -33.957  1.00  0.00     0.028 C 
HETATM   23  C   UNL     1      -2.400   3.963 -32.709  1.00  0.00     0.236 C 
BRANCH  19  24
HETATM   24  C   UNL     1      -4.670   5.067 -30.837  1.00  0.00     0.059 C 
BRANCH  24  25
HETATM   25  C   UNL     1      -5.792   4.904 -29.816  1.00  0.00     0.166 C 
BRANCH  25  26
HETATM   26  O   UNL     1      -5.273   4.145 -28.734  1.00  0.00    -0.401 OA
HETATM   27  H   UNL     1      -4.814   4.758 -28.130  1.00  0.00     0.209 HD
ENDBRANCH  25  26
ENDBRANCH  24  25
ENDBRANCH  19  24
ENDBRANCH  16  17
ENDBRANCH  13  16
ENDBRANCH   6  12
BRANCH   1  28
HETATM   28  C   UNL     1      -7.596   1.463 -33.502  1.00  0.00     0.312 C 
HETATM   29  O   UNL     1      -7.372   2.212 -32.556  1.00  0.00    -0.258 OA
BRANCH  28  30
HETATM   30  O   UNL     1      -8.489   1.676 -34.502  1.00  0.00    -0.317 OA
BRANCH  30  31
HETATM   31  C   UNL     1      -9.797   2.105 -34.089  1.00  0.00     0.175 C 
HETATM   32  C   UNL     1     -10.574   0.945 -33.497  1.00  0.00     0.034 C 
ENDBRANCH  30  31
ENDBRANCH  28  30
ENDBRANCH   1  28
TORSDOF 9
ENDMDL
MODEL 5
REMARK VINA RESULT:      -7.6      1.833      3.251
REMARK  9 active torsions:
REMARK  status: ('A' for Active; 'I' for Inactive)
REMARK    1  A    between atoms: C_2  and  O_3 
REMARK    2  A    between atoms: O_3  and  C_4 
REMARK    3  A    between atoms: C_4  and  C_5 
REMARK    4  A    between atoms: C_10  and  N_11 
REMARK       I    between atoms: N_11  and  C_12 
REMARK    5  A    between atoms: C_12  and  C_13 
REMARK    6  A    between atoms: C_13  and  N_14 
REMARK    7  A    between atoms: C_16  and  C_17 
REMARK    8  A    between atoms: C_17  and  C_18 
REMARK    9  A    between atoms: C_18  and  O_19 
ROOT
HETATM    1  C   UNL     1      -6.104   1.080 -33.047  1.00  0.00     0.137 A 
HETATM    2  N   UNL     1      -4.951   0.345 -32.933  1.00  0.00    -0.349 N 
HETATM    3  H   UNL     1      -4.097   0.685 -32.508  1.00  0.00     0.166 HD
HETATM    4  C   UNL     1      -5.112  -0.901 -33.484  1.00  0.00     0.045 A 
HETATM    5  C   UNL     1      -6.420  -0.978 -33.975  1.00  0.00     0.021 A 
HETATM    6  C   UNL     1      -7.051   0.276 -33.673  1.00  0.00     0.080 A 
HETATM    7  C   UNL     1      -4.185  -1.947 -33.584  1.00  0.00     0.032 A 
HETATM    8  C   UNL     1      -4.591  -3.120 -34.222  1.00  0.00     0.026 A 
HETATM    9  C   UNL     1      -5.874  -3.226 -34.745  1.00  0.00     0.035 A 
HETATM   10 CL   UNL     1      -6.347  -4.674 -35.548  1.00  0.00    -0.084 Cl
HETATM   11  C   UNL     1      -6.789  -2.172 -34.637  1.00  0.00     0.040 A 
ENDROOT
BRANCH   6  12
HETATM   12  N   UNL     1      -8.333   0.773 -33.903  1.00  0.00    -0.323 N 
HETATM   13  C   UNL     1      -9.460   0.565 -33.151  1.00  0.00     0.248 C 
HETATM   14  O   UNL     1      -9.564  -0.043 -32.088  1.00  0.00    -0.271 OA
HETATM   15  H   UNL     1      -8.367   1.464 -34.655  1.00  0.00     0.169 HD
BRANCH  13  16
HETATM   16  C   UNL     1     -10.714   1.244 -33.710  1.00  0.00     0.338 C 
BRANCH  16  17
HETATM   17  N   UNL     1     -11.228   2.317 -32.738  1.00  0.00    -0.059 N 
HETATM   18  H   UNL     1     -11.326   1.774 -31.861  1.00  0.00     0.280 HD
HETATM   19  C   UNL     1     -10.211   3.410 -32.385  1.00  0.00     0.190 C 
HETATM   20  C   UNL     1     -10.801   4.213 -31.217  1.00  0.00     0.033 C 
HETATM   21  C   UNL     1     -12.187   4.772 -31.525  1.00  0.00     0.004 C 
HETATM   22  C   UNL     1     -13.145   3.665 -31.953  1.00  0.00     0.028 C 
HETATM   23  C   UNL     1     -12.595   2.827 -33.098  1.00  0.00     0.236 C 
BRANCH  19  24
HETATM   24  C   UNL     1      -9.842   4.251 -33.615  1.00  0.00     0.059 C 
BRANCH  24  25
HETATM   25  C   UNL     1      -8.824   5.346 -33.314  1.00  0.00     0.166 C 
BRANCH  25  26
HETATM   26  O   UNL     1      -7.745   5.182 -34.221  1.00  0.00    -0.401 OA
HETATM   27  H   UNL     1      -7.390   6.065 -34.431  1.00  0.00     0.209 HD
ENDBRANCH  25  26
ENDBRANCH  24  25
ENDBRANCH  19  24
ENDBRANCH  16  17
ENDBRANCH  13  16
ENDBRANCH   6  12
BRANCH   1  28
HETATM   28  C   UNL     1      -6.264   2.431 -32.566  1.00  0.00     0.312 C 
HETATM   29  O   UNL     1      -6.962   2.728 -31.602  1.00  0.00    -0.258 OA
BRANCH  28  30
HETATM   30  O   UNL     1      -5.541   3.290 -33.329  1.00  0.00    -0.317 OA
BRANCH  30  31
HETATM   31  C   UNL     1      -4.617   4.130 -32.618  1.00  0.00     0.175 C 
HETATM   32  C   UNL     1      -3.208   3.577 -32.721  1.00  0.00     0.034 C 
ENDBRANCH  30  31
ENDBRANCH  28  30
ENDBRANCH   1  28
TORSDOF 9
ENDMDL
MODEL 6
REMARK VINA RESULT:      -7.2      2.159      3.063
REMARK  9 active torsions:
REMARK  status: ('A' for Active; 'I' for Inactive)
REMARK    1  A    between atoms: C_2  and  O_3 
REMARK    2  A    between atoms: O_3  and  C_4 
REMARK    3  A    between atoms: C_4  and  C_5 
REMARK    4  A    between atoms: C_10  and  N_11 
REMARK       I    between atoms: N_11  and  C_12 
REMARK    5  A    between atoms: C_12  and  C_13 
REMARK    6  A    between atoms: C_13  and  N_14 
REMARK    7  A    between atoms: C_16  and  C_17 
REMARK    8  A    between atoms: C_17  and  C_18 
REMARK    9  A    between atoms: C_18  and  O_19 
ROOT
HETATM    1  C   UNL     1      -5.955   1.447 -33.376  1.00  0.00     0.137 A 
HETATM    2  N   UNL     1      -4.910   0.598 -33.113  1.00  0.00    -0.349 N 
HETATM    3  H   UNL     1      -4.054   0.873 -32.648  1.00  0.00     0.166 HD
HETATM    4  C   UNL     1      -5.180  -0.664 -33.578  1.00  0.00     0.045 A 
HETATM    5  C   UNL     1      -6.450  -0.633 -34.166  1.00  0.00     0.021 A 
HETATM    6  C   UNL     1      -6.945   0.706 -34.012  1.00  0.00     0.080 A 
HETATM    7  C   UNL     1      -4.381  -1.814 -33.523  1.00  0.00     0.032 A 
HETATM    8  C   UNL     1      -4.879  -2.983 -34.100  1.00  0.00     0.026 A 
HETATM    9  C   UNL     1      -6.124  -2.986 -34.714  1.00  0.00     0.035 A 
HETATM   10 CL   UNL     1      -6.710  -4.434 -35.439  1.00  0.00    -0.084 Cl
HETATM   11  C   UNL     1      -6.911  -1.829 -34.761  1.00  0.00     0.040 A 
ENDROOT
BRANCH   6  12
HETATM   12  N   UNL     1      -8.138   1.325 -34.382  1.00  0.00    -0.323 N 
HETATM   13  C   UNL     1      -9.375   1.170 -33.810  1.00  0.00     0.248 C 
HETATM   14  O   UNL     1      -9.678   0.511 -32.818  1.00  0.00    -0.271 OA
HETATM   15  H   UNL     1      -8.010   2.059 -35.081  1.00  0.00     0.169 HD
BRANCH  13  16
HETATM   16  C   UNL     1     -10.479   1.986 -34.489  1.00  0.00     0.338 C 
BRANCH  16  17
HETATM   17  N   UNL     1     -11.826   1.765 -33.784  1.00  0.00    -0.059 N 
HETATM   18  H   UNL     1     -11.525   1.342 -32.887  1.00  0.00     0.280 HD
HETATM   19  C   UNL     1     -12.553   3.048 -33.362  1.00  0.00     0.190 C 
HETATM   20  C   UNL     1     -13.715   2.628 -32.450  1.00  0.00     0.033 C 
HETATM   21  C   UNL     1     -14.643   1.610 -33.107  1.00  0.00     0.004 C 
HETATM   22  C   UNL     1     -13.868   0.386 -33.587  1.00  0.00     0.028 C 
HETATM   23  C   UNL     1     -12.693   0.754 -34.480  1.00  0.00     0.236 C 
BRANCH  19  24
HETATM   24  C   UNL     1     -12.971   3.882 -34.581  1.00  0.00     0.059 C 
BRANCH  24  25
HETATM   25  C   UNL     1     -13.144   5.365 -34.268  1.00  0.00     0.166 C 
BRANCH  25  26
HETATM   26  O   UNL     1     -14.008   5.909 -35.254  1.00  0.00    -0.401 OA
HETATM   27  H   UNL     1     -14.883   6.042 -34.847  1.00  0.00     0.209 HD
ENDBRANCH  25  26
ENDBRANCH  24  25
ENDBRANCH  19  24
ENDBRANCH  16  17
ENDBRANCH  13  16
ENDBRANCH   6  12
BRANCH   1  28
HETATM   28  C   UNL     1      -5.985   2.844 -33.014  1.00  0.00     0.312 C 
HETATM   29  O   UNL     1      -7.017   3.453 -32.755  1.00  0.00    -0.258 OA
BRANCH  28  30
HETATM   30  O   UNL     1      -4.727   3.355 -33.008  1.00  0.00    -0.317 OA
BRANCH  30  31
HETATM   31  C   UNL     1      -4.575   4.646 -33.619  1.00  0.00     0.175 C 
HETATM   32  C   UNL     1      -3.123   4.896 -33.981  1.00  0.00     0.034 C 
ENDBRANCH  30  31
ENDBRANCH  28  30
ENDBRANCH   1  28
TORSDOF 9
ENDMDL
MODEL 7
REMARK VINA RESULT:      -7.2      4.414      8.452
REMARK  9 active torsions:
REMARK  status: ('A' for Active; 'I' for Inactive)
REMARK    1  A    between atoms: C_2  and  O_3 
REMARK    2  A    between atoms: O_3  and  C_4 
REMARK    3  A    between atoms: C_4  and  C_5 
REMARK    4  A    between atoms: C_10  and  N_11 
REMARK       I    between atoms: N_11  and  C_12 
REMARK    5  A    between atoms: C_12  and  C_13 
REMARK    6  A    between atoms: C_13  and  N_14 
REMARK    7  A    between atoms: C_16  and  C_17 
REMARK    8  A    between atoms: C_17  and  C_18 
REMARK    9  A    between atoms: C_18  and  O_19 
ROOT
HETATM    1  C   UNL     1      -5.453  -0.248 -33.042  1.00  0.00     0.137 A 
HETATM    2  N   UNL     1      -6.717  -0.635 -33.409  1.00  0.00    -0.349 N 
HETATM    3  H   UNL     1      -7.008  -1.597 -33.529  1.00  0.00     0.166 HD
HETATM    4  C   UNL     1      -7.522   0.459 -33.604  1.00  0.00     0.045 A 
HETATM    5  C   UNL     1      -6.751   1.599 -33.353  1.00  0.00     0.021 A 
HETATM    6  C   UNL     1      -5.444   1.140 -32.974  1.00  0.00     0.080 A 
HETATM    7  C   UNL     1      -8.868   0.505 -33.992  1.00  0.00     0.032 A 
HETATM    8  C   UNL     1      -9.458   1.760 -34.149  1.00  0.00     0.026 A 
HETATM    9  C   UNL     1      -8.719   2.915 -33.934  1.00  0.00     0.035 A 
HETATM   10 CL   UNL     1      -9.462   4.453 -34.155  1.00  0.00    -0.084 Cl
HETATM   11  C   UNL     1      -7.375   2.853 -33.546  1.00  0.00     0.040 A 
ENDROOT
BRANCH   6  12
HETATM   12  N   UNL     1      -4.275   1.804 -32.604  1.00  0.00    -0.323 N 
HETATM   13  C   UNL     1      -4.143   2.827 -31.700  1.00  0.00     0.248 C 
HETATM   14  O   UNL     1      -5.007   3.325 -30.983  1.00  0.00    -0.271 OA
HETATM   15  H   UNL     1      -3.430   1.369 -32.978  1.00  0.00     0.169 HD
BRANCH  13  16
HETATM   16  C   UNL     1      -2.709   3.344 -31.554  1.00  0.00     0.338 C 
BRANCH  16  17
HETATM   17  N   UNL     1      -2.551   4.706 -32.250  1.00  0.00    -0.059 N 
HETATM   18  H   UNL     1      -3.515   5.082 -32.192  1.00  0.00     0.280 HD
HETATM   19  C   UNL     1      -1.706   5.730 -31.483  1.00  0.00     0.190 C 
HETATM   20  C   UNL     1      -1.891   7.082 -32.186  1.00  0.00     0.033 C 
HETATM   21  C   UNL     1      -1.549   7.027 -33.672  1.00  0.00     0.004 C 
HETATM   22  C   UNL     1      -2.349   5.940 -34.382  1.00  0.00     0.028 C 
HETATM   23  C   UNL     1      -2.213   4.582 -33.710  1.00  0.00     0.236 C 
BRANCH  19  24
HETATM   24  C   UNL     1      -0.246   5.271 -31.358  1.00  0.00     0.059 C 
BRANCH  24  25
HETATM   25  C   UNL     1       0.252   5.230 -29.917  1.00  0.00     0.166 C 
BRANCH  25  26
HETATM   26  O   UNL     1       0.806   3.941 -29.698  1.00  0.00    -0.401 OA
HETATM   27  H   UNL     1       0.969   3.532 -30.567  1.00  0.00     0.209 HD
ENDBRANCH  25  26
ENDBRANCH  24  25
ENDBRANCH  19  24
ENDBRANCH  16  17
ENDBRANCH  13  16
ENDBRANCH   6  12
BRANCH   1  28
HETATM   28  C   UNL     1      -4.368  -1.159 -32.762  1.00  0.00     0.312 C 
HETATM   29  O   UNL     1      -3.884  -1.311 -31.646  1.00  0.00    -0.258 OA
BRANCH  28  30
HETATM   30  O   UNL     1      -3.987  -1.798 -33.898  1.00  0.00    -0.317 OA
BRANCH  30  31
HETATM   31  C   UNL     1      -4.559  -3.099 -34.104  1.00  0.00     0.175 C 
HETATM   32  C   UNL     1      -3.615  -4.179 -33.612  1.00  0.00     0.034 C 
ENDBRANCH  30  31
ENDBRANCH  28  30
ENDBRANCH   1  28
TORSDOF 9
ENDMDL
MODEL 8
REMARK VINA RESULT:      -7.2      2.635      6.190
REMARK  9 active torsions:
REMARK  status: ('A' for Active; 'I' for Inactive)
REMARK    1  A    between atoms: C_2  and  O_3 
REMARK    2  A    between atoms: O_3  and  C_4 
REMARK    3  A    between atoms: C_4  and  C_5 
REMARK    4  A    between atoms: C_10  and  N_11 
REMARK       I    between atoms: N_11  and  C_12 
REMARK    5  A    between atoms: C_12  and  C_13 
REMARK    6  A    between atoms: C_13  and  N_14 
REMARK    7  A    between atoms: C_16  and  C_17 
REMARK    8  A    between atoms: C_17  and  C_18 
REMARK    9  A    between atoms: C_18  and  O_19 
ROOT
HETATM    1  C   UNL     1      -6.714   0.306 -33.805  1.00  0.00     0.137 A 
HETATM    2  N   UNL     1      -7.320  -0.790 -34.364  1.00  0.00    -0.349 N 
HETATM    3  H   UNL     1      -8.269  -0.801 -34.716  1.00  0.00     0.166 HD
HETATM    4  C   UNL     1      -6.470  -1.868 -34.365  1.00  0.00     0.045 A 
HETATM    5  C   UNL     1      -5.266  -1.454 -33.785  1.00  0.00     0.021 A 
HETATM    6  C   UNL     1      -5.421  -0.066 -33.453  1.00  0.00     0.080 A 
HETATM    7  C   UNL     1      -6.698  -3.169 -34.831  1.00  0.00     0.032 A 
HETATM    8  C   UNL     1      -5.669  -4.101 -34.692  1.00  0.00     0.026 A 
HETATM    9  C   UNL     1      -4.468  -3.736 -34.098  1.00  0.00     0.035 A 
HETATM   10 CL   UNL     1      -3.219  -4.908 -33.917  1.00  0.00    -0.084 Cl
HETATM   11  C   UNL     1      -4.255  -2.432 -33.638  1.00  0.00     0.040 A 
ENDROOT
BRANCH   6  12
HETATM   12  N   UNL     1      -4.569   0.872 -32.872  1.00  0.00    -0.323 N 
HETATM   13  C   UNL     1      -4.103   0.896 -31.582  1.00  0.00     0.248 C 
HETATM   14  O   UNL     1      -4.283   0.067 -30.693  1.00  0.00    -0.271 OA
HETATM   15  H   UNL     1      -4.173   1.529 -33.547  1.00  0.00     0.169 HD
BRANCH  13  16
HETATM   16  C   UNL     1      -3.201   2.093 -31.270  1.00  0.00     0.338 C 
BRANCH  16  17
HETATM   17  N   UNL     1      -4.030   3.271 -30.736  1.00  0.00    -0.059 N 
HETATM   18  H   UNL     1      -3.621   3.404 -29.794  1.00  0.00     0.280 HD
HETATM   19  C   UNL     1      -3.780   4.610 -31.442  1.00  0.00     0.190 C 
HETATM   20  C   UNL     1      -4.476   5.695 -30.608  1.00  0.00     0.033 C 
HETATM   21  C   UNL     1      -5.959   5.410 -30.387  1.00  0.00     0.004 C 
HETATM   22  C   UNL     1      -6.170   4.035 -29.762  1.00  0.00     0.028 C 
HETATM   23  C   UNL     1      -5.481   2.927 -30.544  1.00  0.00     0.236 C 
BRANCH  19  24
HETATM   24  C   UNL     1      -4.217   4.559 -32.913  1.00  0.00     0.059 C 
BRANCH  24  25
HETATM   25  C   UNL     1      -3.206   5.191 -33.865  1.00  0.00     0.166 C 
BRANCH  25  26
HETATM   26  O   UNL     1      -2.020   4.414 -33.799  1.00  0.00    -0.401 OA
HETATM   27  H   UNL     1      -1.802   4.122 -34.703  1.00  0.00     0.209 HD
ENDBRANCH  25  26
ENDBRANCH  24  25
ENDBRANCH  19  24
ENDBRANCH  16  17
ENDBRANCH  13  16
ENDBRANCH   6  12
BRANCH   1  28
HETATM   28  C   UNL     1      -7.339   1.598 -33.654  1.00  0.00     0.312 C 
HETATM   29  O   UNL     1      -6.872   2.633 -34.118  1.00  0.00    -0.258 OA
BRANCH  28  30
HETATM   30  O   UNL     1      -8.488   1.484 -32.941  1.00  0.00    -0.317 OA
BRANCH  30  31
HETATM   31  C   UNL     1      -9.705   1.610 -33.693  1.00  0.00     0.175 C 
HETATM   32  C   UNL     1     -10.683   0.517 -33.309  1.00  0.00     0.034 C 
ENDBRANCH  30  31
ENDBRANCH  28  30
ENDBRANCH   1  28
TORSDOF 9
ENDMDL
MODEL 9
REMARK VINA RESULT:      -7.1     14.848     16.670
REMARK  9 active torsions:
REMARK  status: ('A' for Active; 'I' for Inactive)
REMARK    1  A    between atoms: C_2  and  O_3 
REMARK    2  A    between atoms: O_3  and  C_4 
REMARK    3  A    between atoms: C_4  and  C_5 
REMARK    4  A    between atoms: C_10  and  N_11 
REMARK       I    between atoms: N_11  and  C_12 
REMARK    5  A    between atoms: C_12  and  C_13 
REMARK    6  A    between atoms: C_13  and  N_14 
REMARK    7  A    between atoms: C_16  and  C_17 
REMARK    8  A    between atoms: C_17  and  C_18 
REMARK    9  A    between atoms: C_18  and  O_19 
ROOT
HETATM    1  C   UNL     1      -3.879 -12.371 -38.620  1.00  0.00     0.137 A 
HETATM    2  N   UNL     1      -4.405 -12.107 -39.859  1.00  0.00    -0.349 N 
HETATM    3  H   UNL     1      -3.862 -11.807 -40.659  1.00  0.00     0.166 HD
HETATM    4  C   UNL     1      -5.765 -12.294 -39.859  1.00  0.00     0.045 A 
HETATM    5  C   UNL     1      -6.135 -12.693 -38.570  1.00  0.00     0.021 A 
HETATM    6  C   UNL     1      -4.928 -12.762 -37.796  1.00  0.00     0.080 A 
HETATM    7  C   UNL     1      -6.678 -12.125 -40.908  1.00  0.00     0.032 A 
HETATM    8  C   UNL     1      -8.028 -12.354 -40.641  1.00  0.00     0.026 A 
HETATM    9  C   UNL     1      -8.438 -12.727 -39.368  1.00  0.00     0.035 A 
HETATM   10 CL   UNL     1     -10.112 -12.985 -39.056  1.00  0.00    -0.084 Cl
HETATM   11  C   UNL     1      -7.514 -12.893 -38.330  1.00  0.00     0.040 A 
ENDROOT
BRANCH   6  12
HETATM   12  N   UNL     1      -4.669 -13.108 -36.470  1.00  0.00    -0.323 N 
HETATM   13  C   UNL     1      -4.830 -14.333 -35.876  1.00  0.00     0.248 C 
HETATM   14  O   UNL     1      -5.169 -15.393 -36.398  1.00  0.00    -0.271 OA
HETATM   15  H   UNL     1      -4.193 -12.369 -35.947  1.00  0.00     0.169 HD
BRANCH  13  16
HETATM   16  C   UNL     1      -4.474 -14.353 -34.387  1.00  0.00     0.338 C 
BRANCH  16  17
HETATM   17  N   UNL     1      -5.332 -15.386 -33.640  1.00  0.00    -0.059 N 
HETATM   18  H   UNL     1      -5.539 -16.069 -34.392  1.00  0.00     0.280 HD
HETATM   19  C   UNL     1      -4.580 -16.211 -32.587  1.00  0.00     0.190 C 
HETATM   20  C   UNL     1      -5.515 -17.350 -32.156  1.00  0.00     0.033 C 
HETATM   21  C   UNL     1      -6.868 -16.848 -31.659  1.00  0.00     0.004 C 
HETATM   22  C   UNL     1      -7.545 -15.964 -32.701  1.00  0.00     0.028 C 
HETATM   23  C   UNL     1      -6.649 -14.830 -33.175  1.00  0.00     0.236 C 
BRANCH  19  24
HETATM   24  C   UNL     1      -4.080 -15.328 -31.436  1.00  0.00     0.059 C 
BRANCH  24  25
HETATM   25  C   UNL     1      -2.779 -15.826 -30.814  1.00  0.00     0.166 C 
BRANCH  25  26
HETATM   26  O   UNL     1      -2.089 -14.692 -30.310  1.00  0.00    -0.401 OA
HETATM   27  H   UNL     1      -1.308 -15.009 -29.821  1.00  0.00     0.209 HD
ENDBRANCH  25  26
ENDBRANCH  24  25
ENDBRANCH  19  24
ENDBRANCH  16  17
ENDBRANCH  13  16
ENDBRANCH   6  12
BRANCH   1  28
HETATM   28  C   UNL     1      -2.478 -12.269 -38.288  1.00  0.00     0.312 C 
HETATM   29  O   UNL     1      -1.861 -11.209 -38.275  1.00  0.00    -0.258 OA
BRANCH  28  30
HETATM   30  O   UNL     1      -1.973 -13.497 -38.002  1.00  0.00    -0.317 OA
BRANCH  30  31
HETATM   31  C   UNL     1      -0.672 -13.778 -38.544  1.00  0.00     0.175 C 
HETATM   32  C   UNL     1      -0.750 -13.965 -40.047  1.00  0.00     0.034 C 
ENDBRANCH  30  31
ENDBRANCH  28  30
ENDBRANCH   1  28
TORSDOF 9
ENDMDL
MODEL 10
REMARK VINA RESULT:      -7.0      4.988      7.972
REMARK  9 active torsions:
REMARK  status: ('A' for Active; 'I' for Inactive)
REMARK    1  A    between atoms: C_2  and  O_3 
REMARK    2  A    between atoms: O_3  and  C_4 
REMARK    3  A    between atoms: C_4  and  C_5 
REMARK    4  A    between atoms: C_10  and  N_11 
REMARK       I    between atoms: N_11  and  C_12 
REMARK    5  A    between atoms: C_12  and  C_13 
REMARK    6  A    between atoms: C_13  and  N_14 
REMARK    7  A    between atoms: C_16  and  C_17 
REMARK    8  A    between atoms: C_17  and  C_18 
REMARK    9  A    between atoms: C_18  and  O_19 
ROOT
HETATM    1  C   UNL     1      -4.422   6.217 -31.708  1.00  0.00     0.137 A 
HETATM    2  N   UNL     1      -3.528   7.227 -31.958  1.00  0.00    -0.349 N 
HETATM    3  H   UNL     1      -3.784   8.144 -32.300  1.00  0.00     0.166 HD
HETATM    4  C   UNL     1      -2.246   6.818 -31.692  1.00  0.00     0.045 A 
HETATM    5  C   UNL     1      -2.310   5.491 -31.253  1.00  0.00     0.021 A 
HETATM    6  C   UNL     1      -3.697   5.124 -31.244  1.00  0.00     0.080 A 
HETATM    7  C   UNL     1      -1.047   7.533 -31.822  1.00  0.00     0.032 A 
HETATM    8  C   UNL     1       0.142   6.874 -31.510  1.00  0.00     0.026 A 
HETATM    9  C   UNL     1       0.123   5.549 -31.095  1.00  0.00     0.035 A 
HETATM   10 CL   UNL     1       1.605   4.749 -30.735  1.00  0.00    -0.084 Cl
HETATM   11  C   UNL     1      -1.083   4.848 -30.969  1.00  0.00     0.040 A 
ENDROOT
BRANCH   6  12
HETATM   12  N   UNL     1      -4.367   3.952 -30.896  1.00  0.00    -0.323 N 
HETATM   13  C   UNL     1      -4.013   2.662 -31.199  1.00  0.00     0.248 C 
HETATM   14  O   UNL     1      -3.004   2.267 -31.779  1.00  0.00    -0.271 OA
HETATM   15  H   UNL     1      -5.135   4.107 -30.239  1.00  0.00     0.169 HD
BRANCH  13  16
HETATM   16  C   UNL     1      -4.997   1.610 -30.680  1.00  0.00     0.338 C 
BRANCH  16  17
HETATM   17  N   UNL     1      -5.829   1.030 -31.835  1.00  0.00    -0.059 N 
HETATM   18  H   UNL     1      -6.026   1.879 -32.396  1.00  0.00     0.280 HD
HETATM   19  C   UNL     1      -5.053   0.121 -32.797  1.00  0.00     0.190 C 
HETATM   20  C   UNL     1      -5.962  -0.130 -34.009  1.00  0.00     0.033 C 
HETATM   21  C   UNL     1      -7.322  -0.704 -33.619  1.00  0.00     0.004 C 
HETATM   22  C   UNL     1      -8.023   0.186 -32.598  1.00  0.00     0.028 C 
HETATM   23  C   UNL     1      -7.153   0.480 -31.385  1.00  0.00     0.236 C 
BRANCH  19  24
HETATM   24  C   UNL     1      -4.563  -1.152 -32.094  1.00  0.00     0.059 C 
BRANCH  24  25
HETATM   25  C   UNL     1      -3.045  -1.232 -31.979  1.00  0.00     0.166 C 
BRANCH  25  26
HETATM   26  O   UNL     1      -2.720  -2.549 -31.561  1.00  0.00    -0.401 OA
HETATM   27  H   UNL     1      -2.206  -2.973 -32.272  1.00  0.00     0.209 HD
ENDBRANCH  25  26
ENDBRANCH  24  25
ENDBRANCH  19  24
ENDBRANCH  16  17
ENDBRANCH  13  16
ENDBRANCH   6  12
BRANCH   1  28
HETATM   28  C   UNL     1      -5.850   6.325 -31.887  1.00  0.00     0.312 C 
HETATM   29  O   UNL     1      -6.479   7.361 -31.696  1.00  0.00    -0.258 OA
BRANCH  28  30
HETATM   30  O   UNL     1      -6.365   5.135 -32.289  1.00  0.00    -0.317 OA
BRANCH  30  31
HETATM   31  C   UNL     1      -6.577   4.992 -33.702  1.00  0.00     0.175 C 
HETATM   32  C   UNL     1      -5.845   3.773 -34.230  1.00  0.00     0.034 C 
ENDBRANCH  30  31
ENDBRANCH  28  30
ENDBRANCH   1  28
TORSDOF 9
ENDMDL
