MODEL 1
REMARK VINA RESULT:      -8.0      0.000      0.000
REMARK  7 active torsions:
REMARK  status: ('A' for Active; 'I' for Inactive)
REMARK    1  A    between atoms: C_2  and  C_3 
REMARK    2  A    between atoms: C_3  and  O_4 
REMARK    3  A    between atoms: O_4  and  C_5 
REMARK    4  A    between atoms: C_9  and  C_10 
REMARK    5  A    between atoms: C_10  and  N_11 
REMARK    6  A    between atoms: N_11  and  C_12 
REMARK    7  A    between atoms: C_19  and  C_20 
REMARK       I    between atoms: C_20  and  N_21 
ROOT
HETATM    1  C   UNL     1      -4.606   3.780 -32.446  1.00  0.00     0.009 A 
HETATM    2  C   UNL     1      -3.328   4.243 -32.079  1.00  0.00     0.039 A 
HETATM    3  C   UNL     1      -2.628   5.147 -32.905  1.00  0.00     0.030 A 
HETATM    4  C   UNL     1      -3.208   5.540 -34.102  1.00  0.00     0.063 A 
HETATM    5  N   UNL     1      -2.309   6.392 -34.679  1.00  0.00    -0.277 N 
HETATM    6  H   UNL     1      -2.399   6.870 -35.569  1.00  0.00     0.189 HD
HETATM    7  N   UNL     1      -1.191   6.593 -33.959  1.00  0.00    -0.168 NA
HETATM    8  C   UNL     1      -1.375   5.826 -32.860  1.00  0.00     0.156 A 
HETATM    9  C   UNL     1      -4.454   5.078 -34.529  1.00  0.00     0.034 A 
HETATM   10  C   UNL     1      -5.127   4.184 -33.682  1.00  0.00     0.026 A 
ENDROOT
BRANCH   1  11
HETATM   11  N   UNL     1      -5.227   2.830 -31.623  1.00  0.00    -0.289 NA
HETATM   12  H   UNL     1      -6.108   2.506 -32.019  1.00  0.00     0.128 HD
BRANCH  11  13
HETATM   13  C   UNL     1      -4.437   1.740 -31.071  1.00  0.00     0.131 C 
BRANCH  13  14
HETATM   14  C   UNL     1      -4.487   0.554 -32.008  1.00  0.00    -0.043 A 
HETATM   15  C   UNL     1      -5.510   0.427 -32.956  1.00  0.00     0.035 A 
HETATM   16  C   UNL     1      -5.525  -0.657 -33.840  1.00  0.00     0.068 A 
HETATM   17  C   UNL     1      -4.515  -1.629 -33.798  1.00  0.00     0.090 A 
HETATM   18 CL   UNL     1      -6.806  -0.739 -34.999  1.00  0.00    -0.081 Cl
HETATM   19  C   UNL     1      -3.516  -1.525 -32.825  1.00  0.00     0.039 A 
HETATM   20  C   UNL     1      -3.501  -0.440 -31.942  1.00  0.00     0.011 A 
BRANCH  17  21
HETATM   21  O   UNL     1      -4.589  -2.660 -34.699  1.00  0.00    -0.346 OA
BRANCH  21  22
HETATM   22  C   UNL     1      -4.302  -3.960 -34.184  1.00  0.00     0.202 C 
BRANCH  22  23
HETATM   23  C   UNL     1      -5.424  -4.863 -34.599  1.00  0.00    -0.011 C 
HETATM   24  C   UNL     1      -6.519  -4.470 -35.264  1.00  0.00     0.009 C 
ENDBRANCH  22  23
ENDBRANCH  21  22
ENDBRANCH  17  21
ENDBRANCH  13  14
ENDBRANCH  11  13
ENDBRANCH   1  11
BRANCH   8  25
HETATM   25  C   UNL     1      -0.362   5.759 -31.797  1.00  0.00     0.270 C 
HETATM   26  N   UNL     1       0.259   6.951 -31.543  1.00  0.00    -0.365 N 
HETATM   27  H   UNL     1      -0.014   7.764 -32.082  1.00  0.00     0.159 HD
HETATM   28  H   UNL     1       0.965   7.006 -30.826  1.00  0.00     0.159 HD
HETATM   29  O   UNL     1      -0.076   4.745 -31.170  1.00  0.00    -0.266 OA
ENDBRANCH   8  25
TORSDOF 7
ENDMDL
MODEL 2
REMARK VINA RESULT:      -7.9      3.507      7.618
REMARK  7 active torsions:
REMARK  status: ('A' for Active; 'I' for Inactive)
REMARK    1  A    between atoms: C_2  and  C_3 
REMARK    2  A    between atoms: C_3  and  O_4 
REMARK    3  A    between atoms: O_4  and  C_5 
REMARK    4  A    between atoms: C_9  and  C_10 
REMARK    5  A    between atoms: C_10  and  N_11 
REMARK    6  A    between atoms: N_11  and  C_12 
REMARK    7  A    between atoms: C_19  and  C_20 
REMARK       I    between atoms: C_20  and  N_21 
ROOT
HETATM    1  C   UNL     1      -6.455   0.591 -32.886  1.00  0.00     0.009 A 
HETATM    2  C   UNL     1      -5.442  -0.278 -32.440  1.00  0.00     0.039 A 
HETATM    3  C   UNL     1      -5.068  -1.400 -33.210  1.00  0.00     0.030 A 
HETATM    4  C   UNL     1      -5.744  -1.647 -34.396  1.00  0.00     0.063 A 
HETATM    5  N   UNL     1      -5.180  -2.782 -34.906  1.00  0.00    -0.277 N 
HETATM    6  H   UNL     1      -5.430  -3.259 -35.765  1.00  0.00     0.189 HD
HETATM    7  N   UNL     1      -4.190  -3.297 -34.157  1.00  0.00    -0.168 NA
HETATM    8  C   UNL     1      -4.112  -2.452 -33.103  1.00  0.00     0.156 A 
HETATM    9  C   UNL     1      -6.782  -0.837 -34.860  1.00  0.00     0.034 A 
HETATM   10  C   UNL     1      -7.127   0.272 -34.073  1.00  0.00     0.026 A 
ENDROOT
BRANCH   1  11
HETATM   11  N   UNL     1      -6.833   1.649 -32.048  1.00  0.00    -0.289 NA
HETATM   12  H   UNL     1      -6.475   1.527 -31.102  1.00  0.00     0.128 HD
BRANCH  11  13
HETATM   13  C   UNL     1      -6.690   3.018 -32.518  1.00  0.00     0.131 C 
BRANCH  13  14
HETATM   14  C   UNL     1      -5.229   3.408 -32.507  1.00  0.00    -0.043 A 
HETATM   15  C   UNL     1      -4.663   4.111 -33.578  1.00  0.00     0.035 A 
HETATM   16  C   UNL     1      -3.319   4.495 -33.541  1.00  0.00     0.068 A 
HETATM   17  C   UNL     1      -2.518   4.193 -32.430  1.00  0.00     0.090 A 
HETATM   18 CL   UNL     1      -2.691   5.379 -34.889  1.00  0.00    -0.081 Cl
HETATM   19  C   UNL     1      -3.072   3.457 -31.377  1.00  0.00     0.039 A 
HETATM   20  C   UNL     1      -4.417   3.073 -31.416  1.00  0.00     0.011 A 
BRANCH  17  21
HETATM   21  O   UNL     1      -1.212   4.608 -32.457  1.00  0.00    -0.346 OA
BRANCH  21  22
HETATM   22  C   UNL     1      -0.816   5.490 -31.407  1.00  0.00     0.202 C 
BRANCH  22  23
HETATM   23  C   UNL     1      -0.503   6.817 -32.030  1.00  0.00    -0.011 C 
HETATM   24  C   UNL     1      -1.416   7.725 -32.399  1.00  0.00     0.009 C 
ENDBRANCH  22  23
ENDBRANCH  21  22
ENDBRANCH  17  21
ENDBRANCH  13  14
ENDBRANCH  11  13
ENDBRANCH   1  11
BRANCH   8  25
HETATM   25  C   UNL     1      -3.134  -2.662 -32.027  1.00  0.00     0.270 C 
HETATM   26  N   UNL     1      -2.443  -1.535 -31.674  1.00  0.00    -0.365 N 
HETATM   27  H   UNL     1      -2.646  -0.670 -32.159  1.00  0.00     0.159 HD
HETATM   28  H   UNL     1      -1.753  -1.579 -30.940  1.00  0.00     0.159 HD
HETATM   29  O   UNL     1      -2.932  -3.735 -31.467  1.00  0.00    -0.266 OA
ENDBRANCH   8  25
TORSDOF 7
ENDMDL
MODEL 3
REMARK VINA RESULT:      -7.8      6.452      8.519
REMARK  7 active torsions:
REMARK  status: ('A' for Active; 'I' for Inactive)
REMARK    1  A    between atoms: C_2  and  C_3 
REMARK    2  A    between atoms: C_3  and  O_4 
REMARK    3  A    between atoms: O_4  and  C_5 
REMARK    4  A    between atoms: C_9  and  C_10 
REMARK    5  A    between atoms: C_10  and  N_11 
REMARK    6  A    between atoms: N_11  and  C_12 
REMARK    7  A    between atoms: C_19  and  C_20 
REMARK       I    between atoms: C_20  and  N_21 
ROOT
HETATM    1  C   UNL     1     -11.410   2.235 -34.470  1.00  0.00     0.009 A 
HETATM    2  C   UNL     1     -11.831   2.935 -33.324  1.00  0.00     0.039 A 
HETATM    3  C   UNL     1     -13.159   2.821 -32.860  1.00  0.00     0.030 A 
HETATM    4  C   UNL     1     -14.048   2.034 -33.577  1.00  0.00     0.063 A 
HETATM    5  N   UNL     1     -15.235   2.122 -32.906  1.00  0.00    -0.277 N 
HETATM    6  H   UNL     1     -16.113   1.677 -33.149  1.00  0.00     0.189 HD
HETATM    7  N   UNL     1     -15.197   2.897 -31.808  1.00  0.00    -0.168 NA
HETATM    8  C   UNL     1     -13.918   3.338 -31.770  1.00  0.00     0.156 A 
HETATM    9  C   UNL     1     -13.689   1.353 -34.741  1.00  0.00     0.034 A 
HETATM   10  C   UNL     1     -12.361   1.484 -35.174  1.00  0.00     0.026 A 
ENDROOT
BRANCH   1  11
HETATM   11  N   UNL     1     -10.101   2.440 -34.926  1.00  0.00    -0.289 NA
HETATM   12  H   UNL     1     -10.070   3.108 -35.695  1.00  0.00     0.128 HD
BRANCH  11  13
HETATM   13  C   UNL     1      -9.036   2.664 -33.960  1.00  0.00     0.131 C 
BRANCH  13  14
HETATM   14  C   UNL     1      -8.174   1.426 -33.859  1.00  0.00    -0.043 A 
HETATM   15  C   UNL     1      -7.519   1.101 -32.665  1.00  0.00     0.035 A 
HETATM   16  C   UNL     1      -6.752  -0.066 -32.574  1.00  0.00     0.068 A 
HETATM   17  C   UNL     1      -6.633  -0.932 -33.670  1.00  0.00     0.090 A 
HETATM   18 CL   UNL     1      -5.987  -0.417 -31.063  1.00  0.00    -0.081 Cl
HETATM   19  C   UNL     1      -7.255  -0.588 -34.875  1.00  0.00     0.039 A 
HETATM   20  C   UNL     1      -8.022   0.579 -34.965  1.00  0.00     0.011 A 
BRANCH  17  21
HETATM   21  O   UNL     1      -5.873  -2.061 -33.508  1.00  0.00    -0.346 OA
BRANCH  21  22
HETATM   22  C   UNL     1      -5.193  -2.528 -34.672  1.00  0.00     0.202 C 
BRANCH  22  23
HETATM   23  C   UNL     1      -5.542  -3.977 -34.843  1.00  0.00    -0.011 C 
HETATM   24  C   UNL     1      -6.732  -4.436 -35.250  1.00  0.00     0.009 C 
ENDBRANCH  22  23
ENDBRANCH  21  22
ENDBRANCH  17  21
ENDBRANCH  13  14
ENDBRANCH  11  13
ENDBRANCH   1  11
BRANCH   8  25
HETATM   25  C   UNL     1     -13.450   4.232 -30.702  1.00  0.00     0.270 C 
HETATM   26  N   UNL     1     -12.501   3.677 -29.886  1.00  0.00    -0.365 N 
HETATM   27  H   UNL     1     -12.199   2.728 -30.070  1.00  0.00     0.159 HD
HETATM   28  H   UNL     1     -12.115   4.217 -29.127  1.00  0.00     0.159 HD
HETATM   29  O   UNL     1     -13.847   5.379 -30.529  1.00  0.00    -0.266 OA
ENDBRANCH   8  25
TORSDOF 7
ENDMDL
MODEL 4
REMARK VINA RESULT:      -7.8      2.070      2.477
REMARK  7 active torsions:
REMARK  status: ('A' for Active; 'I' for Inactive)
REMARK    1  A    between atoms: C_2  and  C_3 
REMARK    2  A    between atoms: C_3  and  O_4 
REMARK    3  A    between atoms: O_4  and  C_5 
REMARK    4  A    between atoms: C_9  and  C_10 
REMARK    5  A    between atoms: C_10  and  N_11 
REMARK    6  A    between atoms: N_11  and  C_12 
REMARK    7  A    between atoms: C_19  and  C_20 
REMARK       I    between atoms: C_20  and  N_21 
ROOT
HETATM    1  C   UNL     1      -2.626   3.984 -31.912  1.00  0.00     0.009 A 
HETATM    2  C   UNL     1      -2.484   5.208 -31.231  1.00  0.00     0.039 A 
HETATM    3  C   UNL     1      -2.206   6.396 -31.941  1.00  0.00     0.030 A 
HETATM    4  C   UNL     1      -2.040   6.326 -33.316  1.00  0.00     0.063 A 
HETATM    5  N   UNL     1      -1.777   7.605 -33.717  1.00  0.00    -0.277 N 
HETATM    6  H   UNL     1      -1.597   7.928 -34.661  1.00  0.00     0.189 HD
HETATM    7  N   UNL     1      -1.760   8.508 -32.721  1.00  0.00    -0.168 NA
HETATM    8  C   UNL     1      -2.022   7.772 -31.616  1.00  0.00     0.156 A 
HETATM    9  C   UNL     1      -2.132   5.130 -34.030  1.00  0.00     0.034 A 
HETATM   10  C   UNL     1      -2.413   3.967 -33.297  1.00  0.00     0.026 A 
ENDROOT
BRANCH   1  11
HETATM   11  N   UNL     1      -2.833   2.826 -31.151  1.00  0.00    -0.289 NA
HETATM   12  H   UNL     1      -2.272   2.829 -30.300  1.00  0.00     0.128 HD
BRANCH  11  13
HETATM   13  C   UNL     1      -4.190   2.360 -30.913  1.00  0.00     0.131 C 
BRANCH  13  14
HETATM   14  C   UNL     1      -4.484   1.176 -31.806  1.00  0.00    -0.043 A 
HETATM   15  C   UNL     1      -3.851  -0.057 -31.600  1.00  0.00     0.035 A 
HETATM   16  C   UNL     1      -4.157  -1.154 -32.412  1.00  0.00     0.068 A 
HETATM   17  C   UNL     1      -5.106  -1.043 -33.438  1.00  0.00     0.090 A 
HETATM   18 CL   UNL     1      -3.354  -2.651 -32.086  1.00  0.00    -0.081 Cl
HETATM   19  C   UNL     1      -5.708   0.197 -33.671  1.00  0.00     0.039 A 
HETATM   20  C   UNL     1      -5.402   1.294 -32.858  1.00  0.00     0.011 A 
BRANCH  17  21
HETATM   21  O   UNL     1      -5.362  -2.161 -34.189  1.00  0.00    -0.346 OA
BRANCH  21  22
HETATM   22  C   UNL     1      -6.736  -2.413 -34.482  1.00  0.00     0.202 C 
BRANCH  22  23
HETATM   23  C   UNL     1      -6.885  -3.891 -34.687  1.00  0.00    -0.011 C 
HETATM   24  C   UNL     1      -6.112  -4.636 -35.487  1.00  0.00     0.009 C 
ENDBRANCH  22  23
ENDBRANCH  21  22
ENDBRANCH  17  21
ENDBRANCH  13  14
ENDBRANCH  11  13
ENDBRANCH   1  11
BRANCH   8  25
HETATM   25  C   UNL     1      -2.094   8.391 -30.285  1.00  0.00     0.270 C 
HETATM   26  N   UNL     1      -2.353   9.735 -30.308  1.00  0.00    -0.365 N 
HETATM   27  H   UNL     1      -2.474  10.189 -31.205  1.00  0.00     0.159 HD
HETATM   28  H   UNL     1      -2.426  10.246 -29.443  1.00  0.00     0.159 HD
HETATM   29  O   UNL     1      -1.945   7.789 -29.227  1.00  0.00    -0.266 OA
ENDBRANCH   8  25
TORSDOF 7
ENDMDL
MODEL 5
REMARK VINA RESULT:      -7.8      3.417      7.836
REMARK  7 active torsions:
REMARK  status: ('A' for Active; 'I' for Inactive)
REMARK    1  A    between atoms: C_2  and  C_3 
REMARK    2  A    between atoms: C_3  and  O_4 
REMARK    3  A    between atoms: O_4  and  C_5 
REMARK    4  A    between atoms: C_9  and  C_10 
REMARK    5  A    between atoms: C_10  and  N_11 
REMARK    6  A    between atoms: N_11  and  C_12 
REMARK    7  A    between atoms: C_19  and  C_20 
REMARK       I    between atoms: C_20  and  N_21 
ROOT
HETATM    1  C   UNL     1      -6.327   1.147 -33.520  1.00  0.00     0.009 A 
HETATM    2  C   UNL     1      -5.318   0.355 -32.939  1.00  0.00     0.039 A 
HETATM    3  C   UNL     1      -5.054  -0.943 -33.426  1.00  0.00     0.030 A 
HETATM    4  C   UNL     1      -5.833  -1.435 -34.464  1.00  0.00     0.063 A 
HETATM    5  N   UNL     1      -5.359  -2.692 -34.709  1.00  0.00    -0.277 N 
HETATM    6  H   UNL     1      -5.696  -3.351 -35.401  1.00  0.00     0.189 HD
HETATM    7  N   UNL     1      -4.334  -3.064 -33.923  1.00  0.00    -0.168 NA
HETATM    8  C   UNL     1      -4.137  -1.991 -33.123  1.00  0.00     0.156 A 
HETATM    9  C   UNL     1      -6.870  -0.704 -35.045  1.00  0.00     0.034 A 
HETATM   10  C   UNL     1      -7.105   0.584 -34.541  1.00  0.00     0.026 A 
ENDROOT
BRANCH   1  11
HETATM   11  N   UNL     1      -6.593   2.400 -32.951  1.00  0.00    -0.289 NA
HETATM   12  H   UNL     1      -6.106   2.522 -32.064  1.00  0.00     0.128 HD
BRANCH  11  13
HETATM   13  C   UNL     1      -6.525   3.590 -33.784  1.00  0.00     0.131 C 
BRANCH  13  14
HETATM   14  C   UNL     1      -5.117   4.140 -33.768  1.00  0.00    -0.043 A 
HETATM   15  C   UNL     1      -4.283   3.954 -32.658  1.00  0.00     0.035 A 
HETATM   16  C   UNL     1      -2.971   4.438 -32.670  1.00  0.00     0.068 A 
HETATM   17  C   UNL     1      -2.465   5.109 -33.792  1.00  0.00     0.090 A 
HETATM   18 CL   UNL     1      -1.991   4.154 -31.273  1.00  0.00    -0.081 Cl
HETATM   19  C   UNL     1      -3.309   5.331 -34.885  1.00  0.00     0.039 A 
HETATM   20  C   UNL     1      -4.621   4.846 -34.873  1.00  0.00     0.011 A 
BRANCH  17  21
HETATM   21  O   UNL     1      -1.168   5.549 -33.737  1.00  0.00    -0.346 OA
BRANCH  21  22
HETATM   22  C   UNL     1      -0.987   6.964 -33.774  1.00  0.00     0.202 C 
BRANCH  22  23
HETATM   23  C   UNL     1      -1.076   7.464 -32.363  1.00  0.00    -0.011 C 
HETATM   24  C   UNL     1      -1.990   8.334 -31.914  1.00  0.00     0.009 C 
ENDBRANCH  22  23
ENDBRANCH  21  22
ENDBRANCH  17  21
ENDBRANCH  13  14
ENDBRANCH  11  13
ENDBRANCH   1  11
BRANCH   8  25
HETATM   25  C   UNL     1      -3.085  -1.986 -32.097  1.00  0.00     0.270 C 
HETATM   26  N   UNL     1      -2.836  -3.214 -31.547  1.00  0.00    -0.365 N 
HETATM   27  H   UNL     1      -3.371  -4.009 -31.874  1.00  0.00     0.159 HD
HETATM   28  H   UNL     1      -2.127  -3.311 -30.837  1.00  0.00     0.159 HD
HETATM   29  O   UNL     1      -2.461  -0.991 -31.742  1.00  0.00    -0.266 OA
ENDBRANCH   8  25
TORSDOF 7
ENDMDL
MODEL 6
REMARK VINA RESULT:      -7.8      1.590      1.751
REMARK  7 active torsions:
REMARK  status: ('A' for Active; 'I' for Inactive)
REMARK    1  A    between atoms: C_2  and  C_3 
REMARK    2  A    between atoms: C_3  and  O_4 
REMARK    3  A    between atoms: O_4  and  C_5 
REMARK    4  A    between atoms: C_9  and  C_10 
REMARK    5  A    between atoms: C_10  and  N_11 
REMARK    6  A    between atoms: N_11  and  C_12 
REMARK    7  A    between atoms: C_19  and  C_20 
REMARK       I    between atoms: C_20  and  N_21 
ROOT
HETATM    1  C   UNL     1      -2.733   3.852 -31.943  1.00  0.00     0.009 A 
HETATM    2  C   UNL     1      -2.424   5.054 -31.280  1.00  0.00     0.039 A 
HETATM    3  C   UNL     1      -2.151   6.229 -32.013  1.00  0.00     0.030 A 
HETATM    4  C   UNL     1      -2.159   6.165 -33.399  1.00  0.00     0.063 A 
HETATM    5  N   UNL     1      -1.857   7.427 -33.823  1.00  0.00    -0.277 N 
HETATM    6  H   UNL     1      -1.770   7.749 -34.781  1.00  0.00     0.189 HD
HETATM    7  N   UNL     1      -1.656   8.314 -32.833  1.00  0.00    -0.168 NA
HETATM    8  C   UNL     1      -1.833   7.585 -31.707  1.00  0.00     0.156 A 
HETATM    9  C   UNL     1      -2.420   4.987 -34.101  1.00  0.00     0.034 A 
HETATM   10  C   UNL     1      -2.691   3.838 -33.343  1.00  0.00     0.026 A 
ENDROOT
BRANCH   1  11
HETATM   11  N   UNL     1      -2.926   2.701 -31.167  1.00  0.00    -0.289 NA
HETATM   12  H   UNL     1      -2.496   2.790 -30.247  1.00  0.00     0.128 HD
BRANCH  11  13
HETATM   13  C   UNL     1      -4.249   2.099 -31.100  1.00  0.00     0.131 C 
BRANCH  13  14
HETATM   14  C   UNL     1      -4.293   0.872 -31.983  1.00  0.00    -0.043 A 
HETATM   15  C   UNL     1      -5.320   0.694 -32.918  1.00  0.00     0.035 A 
HETATM   16  C   UNL     1      -5.331  -0.428 -33.752  1.00  0.00     0.068 A 
HETATM   17  C   UNL     1      -4.313  -1.389 -33.674  1.00  0.00     0.090 A 
HETATM   18 CL   UNL     1      -6.619  -0.573 -34.899  1.00  0.00    -0.081 Cl
HETATM   19  C   UNL     1      -3.309  -1.233 -32.713  1.00  0.00     0.039 A 
HETATM   20  C   UNL     1      -3.298  -0.109 -31.880  1.00  0.00     0.011 A 
BRANCH  17  21
HETATM   21  O   UNL     1      -4.383  -2.459 -34.528  1.00  0.00    -0.346 OA
BRANCH  21  22
HETATM   22  C   UNL     1      -4.417  -3.746 -33.912  1.00  0.00     0.202 C 
BRANCH  22  23
HETATM   23  C   UNL     1      -5.387  -4.587 -34.688  1.00  0.00    -0.011 C 
HETATM   24  C   UNL     1      -6.667  -4.266 -34.917  1.00  0.00     0.009 C 
ENDBRANCH  22  23
ENDBRANCH  21  22
ENDBRANCH  17  21
ENDBRANCH  13  14
ENDBRANCH  11  13
ENDBRANCH   1  11
BRANCH   8  25
HETATM   25  C   UNL     1      -1.700   8.190 -30.375  1.00  0.00     0.270 C 
HETATM   26  N   UNL     1      -2.621   9.167 -30.111  1.00  0.00    -0.365 N 
HETATM   27  H   UNL     1      -3.305   9.393 -30.823  1.00  0.00     0.159 HD
HETATM   28  H   UNL     1      -2.612   9.637 -29.220  1.00  0.00     0.159 HD
HETATM   29  O   UNL     1      -0.854   7.872 -29.546  1.00  0.00    -0.266 OA
ENDBRANCH   8  25
TORSDOF 7
ENDMDL
MODEL 7
REMARK VINA RESULT:      -7.7      3.866      7.380
REMARK  7 active torsions:
REMARK  status: ('A' for Active; 'I' for Inactive)
REMARK    1  A    between atoms: C_2  and  C_3 
REMARK    2  A    between atoms: C_3  and  O_4 
REMARK    3  A    between atoms: O_4  and  C_5 
REMARK    4  A    between atoms: C_9  and  C_10 
REMARK    5  A    between atoms: C_10  and  N_11 
REMARK    6  A    between atoms: N_11  and  C_12 
REMARK    7  A    between atoms: C_19  and  C_20 
REMARK       I    between atoms: C_20  and  N_21 
ROOT
HETATM    1  C   UNL     1      -7.039   0.408 -31.951  1.00  0.00     0.009 A 
HETATM    2  C   UNL     1      -5.844  -0.316 -31.777  1.00  0.00     0.039 A 
HETATM    3  C   UNL     1      -5.400  -1.218 -32.768  1.00  0.00     0.030 A 
HETATM    4  C   UNL     1      -6.183  -1.402 -33.898  1.00  0.00     0.063 A 
HETATM    5  N   UNL     1      -5.515  -2.321 -34.657  1.00  0.00    -0.277 N 
HETATM    6  H   UNL     1      -5.799  -2.699 -35.554  1.00  0.00     0.189 HD
HETATM    7  N   UNL     1      -4.360  -2.751 -34.121  1.00  0.00    -0.168 NA
HETATM    8  C   UNL     1      -4.278  -2.078 -32.951  1.00  0.00     0.156 A 
HETATM    9  C   UNL     1      -7.394  -0.737 -34.098  1.00  0.00     0.034 A 
HETATM   10  C   UNL     1      -7.806   0.155 -33.096  1.00  0.00     0.026 A 
ENDROOT
BRANCH   1  11
HETATM   11  N   UNL     1      -7.467   1.237 -30.905  1.00  0.00    -0.289 NA
HETATM   12  H   UNL     1      -6.757   1.326 -30.180  1.00  0.00     0.128 HD
BRANCH  11  13
HETATM   13  C   UNL     1      -8.100   2.509 -31.216  1.00  0.00     0.131 C 
BRANCH  13  14
HETATM   14  C   UNL     1      -7.113   3.405 -31.930  1.00  0.00    -0.043 A 
HETATM   15  C   UNL     1      -5.928   3.813 -31.305  1.00  0.00     0.035 A 
HETATM   16  C   UNL     1      -5.007   4.614 -31.989  1.00  0.00     0.068 A 
HETATM   17  C   UNL     1      -5.248   5.014 -33.311  1.00  0.00     0.090 A 
HETATM   18 CL   UNL     1      -3.555   5.064 -31.163  1.00  0.00    -0.081 Cl
HETATM   19  C   UNL     1      -6.449   4.639 -33.922  1.00  0.00     0.039 A 
HETATM   20  C   UNL     1      -7.369   3.838 -33.238  1.00  0.00     0.011 A 
BRANCH  17  21
HETATM   21  O   UNL     1      -4.298   5.790 -33.923  1.00  0.00    -0.346 OA
BRANCH  21  22
HETATM   22  C   UNL     1      -3.725   5.252 -35.113  1.00  0.00     0.202 C 
BRANCH  22  23
HETATM   23  C   UNL     1      -2.238   5.223 -34.921  1.00  0.00    -0.011 C 
HETATM   24  C   UNL     1      -1.577   5.881 -33.960  1.00  0.00     0.009 C 
ENDBRANCH  22  23
ENDBRANCH  21  22
ENDBRANCH  17  21
ENDBRANCH  13  14
ENDBRANCH  11  13
ENDBRANCH   1  11
BRANCH   8  25
HETATM   25  C   UNL     1      -3.140  -2.264 -32.040  1.00  0.00     0.270 C 
HETATM   26  N   UNL     1      -2.497  -1.104 -31.705  1.00  0.00    -0.365 N 
HETATM   27  H   UNL     1      -2.839  -0.232 -32.091  1.00  0.00     0.159 HD
HETATM   28  H   UNL     1      -1.707  -1.131 -31.080  1.00  0.00     0.159 HD
HETATM   29  O   UNL     1      -2.773  -3.347 -31.595  1.00  0.00    -0.266 OA
ENDBRANCH   8  25
TORSDOF 7
ENDMDL
MODEL 8
REMARK VINA RESULT:      -7.5      1.277      1.610
REMARK  7 active torsions:
REMARK  status: ('A' for Active; 'I' for Inactive)
REMARK    1  A    between atoms: C_2  and  C_3 
REMARK    2  A    between atoms: C_3  and  O_4 
REMARK    3  A    between atoms: O_4  and  C_5 
REMARK    4  A    between atoms: C_9  and  C_10 
REMARK    5  A    between atoms: C_10  and  N_11 
REMARK    6  A    between atoms: N_11  and  C_12 
REMARK    7  A    between atoms: C_19  and  C_20 
REMARK       I    between atoms: C_20  and  N_21 
ROOT
HETATM    1  C   UNL     1      -4.623   4.023 -32.309  1.00  0.00     0.009 A 
HETATM    2  C   UNL     1      -3.313   4.418 -31.977  1.00  0.00     0.039 A 
HETATM    3  C   UNL     1      -2.576   5.257 -32.840  1.00  0.00     0.030 A 
HETATM    4  C   UNL     1      -3.155   5.654 -34.037  1.00  0.00     0.063 A 
HETATM    5  N   UNL     1      -2.220   6.436 -34.652  1.00  0.00    -0.277 N 
HETATM    6  H   UNL     1      -2.299   6.894 -35.553  1.00  0.00     0.189 HD
HETATM    7  N   UNL     1      -1.078   6.588 -33.959  1.00  0.00    -0.168 NA
HETATM    8  C   UNL     1      -1.285   5.862 -32.836  1.00  0.00     0.156 A 
HETATM    9  C   UNL     1      -4.435   5.256 -34.428  1.00  0.00     0.034 A 
HETATM   10  C   UNL     1      -5.143   4.425 -33.546  1.00  0.00     0.026 A 
ENDROOT
BRANCH   1  11
HETATM   11  N   UNL     1      -5.282   3.134 -31.449  1.00  0.00    -0.289 NA
HETATM   12  H   UNL     1      -5.514   3.573 -30.559  1.00  0.00     0.128 HD
BRANCH  11  13
HETATM   13  C   UNL     1      -6.374   2.321 -31.963  1.00  0.00     0.131 C 
BRANCH  13  14
HETATM   14  C   UNL     1      -5.841   0.976 -32.403  1.00  0.00    -0.043 A 
HETATM   15  C   UNL     1      -4.573   0.537 -32.001  1.00  0.00     0.035 A 
HETATM   16  C   UNL     1      -4.106  -0.724 -32.386  1.00  0.00     0.068 A 
HETATM   17  C   UNL     1      -4.899  -1.573 -33.171  1.00  0.00     0.090 A 
HETATM   18 CL   UNL     1      -2.539  -1.210 -31.836  1.00  0.00    -0.081 Cl
HETATM   19  C   UNL     1      -6.149  -1.119 -33.606  1.00  0.00     0.039 A 
HETATM   20  C   UNL     1      -6.615   0.142 -33.220  1.00  0.00     0.011 A 
BRANCH  17  21
HETATM   21  O   UNL     1      -4.381  -2.797 -33.504  1.00  0.00    -0.346 OA
BRANCH  21  22
HETATM   22  C   UNL     1      -4.535  -3.190 -34.868  1.00  0.00     0.202 C 
BRANCH  22  23
HETATM   23  C   UNL     1      -5.366  -4.438 -34.883  1.00  0.00    -0.011 C 
HETATM   24  C   UNL     1      -6.698  -4.471 -35.024  1.00  0.00     0.009 C 
ENDBRANCH  22  23
ENDBRANCH  21  22
ENDBRANCH  17  21
ENDBRANCH  13  14
ENDBRANCH  11  13
ENDBRANCH   1  11
BRANCH   8  25
HETATM   25  C   UNL     1      -0.258   5.762 -31.790  1.00  0.00     0.270 C 
HETATM   26  N   UNL     1       0.245   6.969 -31.385  1.00  0.00    -0.365 N 
HETATM   27  H   UNL     1      -0.114   7.812 -31.816  1.00  0.00     0.159 HD
HETATM   28  H   UNL     1       0.951   7.002 -30.667  1.00  0.00     0.159 HD
HETATM   29  O   UNL     1       0.136   4.710 -31.298  1.00  0.00    -0.266 OA
ENDBRANCH   8  25
TORSDOF 7
ENDMDL
MODEL 9
REMARK VINA RESULT:      -7.5      5.580      7.348
REMARK  7 active torsions:
REMARK  status: ('A' for Active; 'I' for Inactive)
REMARK    1  A    between atoms: C_2  and  C_3 
REMARK    2  A    between atoms: C_3  and  O_4 
REMARK    3  A    between atoms: O_4  and  C_5 
REMARK    4  A    between atoms: C_9  and  C_10 
REMARK    5  A    between atoms: C_10  and  N_11 
REMARK    6  A    between atoms: N_11  and  C_12 
REMARK    7  A    between atoms: C_19  and  C_20 
REMARK       I    between atoms: C_20  and  N_21 
ROOT
HETATM    1  C   UNL     1      -9.702   1.998 -31.748  1.00  0.00     0.009 A 
HETATM    2  C   UNL     1     -10.533   1.975 -32.884  1.00  0.00     0.039 A 
HETATM    3  C   UNL     1     -11.304   3.105 -33.232  1.00  0.00     0.030 A 
HETATM    4  C   UNL     1     -11.253   4.223 -32.413  1.00  0.00     0.063 A 
HETATM    5  N   UNL     1     -12.093   5.134 -32.988  1.00  0.00    -0.277 N 
HETATM    6  H   UNL     1     -12.307   6.067 -32.655  1.00  0.00     0.189 HD
HETATM    7  N   UNL     1     -12.687   4.709 -34.116  1.00  0.00    -0.168 NA
HETATM    8  C   UNL     1     -12.208   3.453 -34.277  1.00  0.00     0.156 A 
HETATM    9  C   UNL     1     -10.476   4.279 -31.254  1.00  0.00     0.034 A 
HETATM   10  C   UNL     1      -9.718   3.141 -30.938  1.00  0.00     0.026 A 
ENDROOT
BRANCH   1  11
HETATM   11  N   UNL     1      -9.013   0.825 -31.410  1.00  0.00    -0.289 NA
HETATM   12  H   UNL     1      -9.249   0.056 -32.036  1.00  0.00     0.128 HD
BRANCH  11  13
HETATM   13  C   UNL     1      -7.587   0.891 -31.131  1.00  0.00     0.131 C 
BRANCH  13  14
HETATM   14  C   UNL     1      -6.842  -0.018 -32.083  1.00  0.00    -0.043 A 
HETATM   15  C   UNL     1      -5.539  -0.446 -31.799  1.00  0.00     0.035 A 
HETATM   16  C   UNL     1      -4.873  -1.313 -32.671  1.00  0.00     0.068 A 
HETATM   17  C   UNL     1      -5.500  -1.776 -33.838  1.00  0.00     0.090 A 
HETATM   18 CL   UNL     1      -3.274  -1.818 -32.247  1.00  0.00    -0.081 Cl
HETATM   19  C   UNL     1      -6.785  -1.318 -34.142  1.00  0.00     0.039 A 
HETATM   20  C   UNL     1      -7.450  -0.451 -33.269  1.00  0.00     0.011 A 
BRANCH  17  21
HETATM   21  O   UNL     1      -4.791  -2.631 -34.642  1.00  0.00    -0.346 OA
BRANCH  21  22
HETATM   22  C   UNL     1      -5.444  -3.855 -34.977  1.00  0.00     0.202 C 
BRANCH  22  23
HETATM   23  C   UNL     1      -4.775  -4.947 -34.197  1.00  0.00    -0.011 C 
HETATM   24  C   UNL     1      -3.496  -4.932 -33.798  1.00  0.00     0.009 C 
ENDBRANCH  22  23
ENDBRANCH  21  22
ENDBRANCH  17  21
ENDBRANCH  13  14
ENDBRANCH  11  13
ENDBRANCH   1  11
BRANCH   8  25
HETATM   25  C   UNL     1     -12.618   2.620 -35.416  1.00  0.00     0.270 C 
HETATM   26  N   UNL     1     -12.024   2.963 -36.601  1.00  0.00    -0.365 N 
HETATM   27  H   UNL     1     -11.368   3.735 -36.608  1.00  0.00     0.159 HD
HETATM   28  H   UNL     1     -12.238   2.445 -37.438  1.00  0.00     0.159 HD
HETATM   29  O   UNL     1     -13.414   1.690 -35.349  1.00  0.00    -0.266 OA
ENDBRANCH   8  25
TORSDOF 7
ENDMDL
MODEL 10
REMARK VINA RESULT:      -7.3      5.619      8.219
REMARK  7 active torsions:
REMARK  status: ('A' for Active; 'I' for Inactive)
REMARK    1  A    between atoms: C_2  and  C_3 
REMARK    2  A    between atoms: C_3  and  O_4 
REMARK    3  A    between atoms: O_4  and  C_5 
REMARK    4  A    between atoms: C_9  and  C_10 
REMARK    5  A    between atoms: C_10  and  N_11 
REMARK    6  A    between atoms: N_11  and  C_12 
REMARK    7  A    between atoms: C_19  and  C_20 
REMARK       I    between atoms: C_20  and  N_21 
ROOT
HETATM    1  C   UNL     1      -6.593   0.119 -33.266  1.00  0.00     0.009 A 
HETATM    2  C   UNL     1      -5.540  -0.628 -32.705  1.00  0.00     0.039 A 
HETATM    3  C   UNL     1      -5.051  -1.780 -33.356  1.00  0.00     0.030 A 
HETATM    4  C   UNL     1      -5.653  -2.182 -34.539  1.00  0.00     0.063 A 
HETATM    5  N   UNL     1      -4.986  -3.310 -34.922  1.00  0.00    -0.277 N 
HETATM    6  H   UNL     1      -5.161  -3.879 -35.744  1.00  0.00     0.189 HD
HETATM    7  N   UNL     1      -3.995  -3.680 -34.092  1.00  0.00    -0.168 NA
HETATM    8  C   UNL     1      -4.026  -2.743 -33.117  1.00  0.00     0.156 A 
HETATM    9  C   UNL     1      -6.726  -1.498 -35.114  1.00  0.00     0.034 A 
HETATM   10  C   UNL     1      -7.186  -0.353 -34.445  1.00  0.00     0.026 A 
ENDROOT
BRANCH   1  11
HETATM   11  N   UNL     1      -7.085   1.214 -32.543  1.00  0.00    -0.289 NA
HETATM   12  H   UNL     1      -7.256   2.018 -33.146  1.00  0.00     0.128 HD
BRANCH  11  13
HETATM   13  C   UNL     1      -8.157   1.010 -31.580  1.00  0.00     0.131 C 
BRANCH  13  14
HETATM   14  C   UNL     1      -9.398   1.740 -32.042  1.00  0.00    -0.043 A 
HETATM   15  C   UNL     1     -10.176   1.242 -33.095  1.00  0.00     0.035 A 
HETATM   16  C   UNL     1     -11.341   1.908 -33.489  1.00  0.00     0.068 A 
HETATM   17  C   UNL     1     -11.755   3.077 -32.835  1.00  0.00     0.090 A 
HETATM   18 CL   UNL     1     -12.266   1.226 -34.783  1.00  0.00    -0.081 Cl
HETATM   19  C   UNL     1     -10.957   3.597 -31.810  1.00  0.00     0.039 A 
HETATM   20  C   UNL     1      -9.792   2.930 -31.416  1.00  0.00     0.011 A 
BRANCH  17  21
HETATM   21  O   UNL     1     -12.911   3.673 -33.269  1.00  0.00    -0.346 OA
BRANCH  21  22
HETATM   22  C   UNL     1     -13.962   3.767 -32.308  1.00  0.00     0.202 C 
BRANCH  22  23
HETATM   23  C   UNL     1     -14.686   2.454 -32.307  1.00  0.00    -0.011 C 
HETATM   24  C   UNL     1     -16.005   2.306 -32.127  1.00  0.00     0.009 C 
ENDBRANCH  22  23
ENDBRANCH  21  22
ENDBRANCH  17  21
ENDBRANCH  13  14
ENDBRANCH  11  13
ENDBRANCH   1  11
BRANCH   8  25
HETATM   25  C   UNL     1      -3.085  -2.782 -31.989  1.00  0.00     0.270 C 
HETATM   26  N   UNL     1      -2.518  -1.572 -31.694  1.00  0.00    -0.365 N 
HETATM   27  H   UNL     1      -2.778  -0.766 -32.250  1.00  0.00     0.159 HD
HETATM   28  H   UNL     1      -1.862  -1.498 -30.932  1.00  0.00     0.159 HD
HETATM   29  O   UNL     1      -2.811  -3.788 -31.344  1.00  0.00    -0.266 OA
ENDBRANCH   8  25
TORSDOF 7
ENDMDL
