MODEL 1
REMARK VINA RESULT:      -7.5      0.000      0.000
REMARK  5 active torsions:
REMARK  status: ('A' for Active; 'I' for Inactive)
REMARK    1  A    between atoms: C_4  and  C_5 
REMARK    2  A    between atoms: C_5  and  N_6 
REMARK    3  A    between atoms: N_6  and  C_9 
REMARK    4  A    between atoms: C_12  and  O_13 
REMARK    5  A    between atoms: O_13  and  C_14 
ROOT
HETATM    1  C   UNL     1      -6.422  -0.281 -34.155  1.00  0.00     0.164 A 
HETATM    2  N   UNL     1      -5.295  -0.246 -33.415  1.00  0.00    -0.236 NA
HETATM    3  C   UNL     1      -4.555  -1.382 -33.380  1.00  0.00     0.142 A 
HETATM    4  C   UNL     1      -4.898  -2.551 -34.045  1.00  0.00     0.062 A 
HETATM    5  C   UNL     1      -4.063  -3.707 -33.961  1.00  0.00     0.101 C 
HETATM    6  N   UNL     1      -3.380  -4.641 -33.887  1.00  0.00    -0.191 NA
HETATM    7  C   UNL     1      -6.077  -2.557 -34.791  1.00  0.00     0.028 A 
HETATM    8  C   UNL     1      -6.857  -1.403 -34.843  1.00  0.00     0.059 A 
ENDROOT
BRANCH   1   9
HETATM    9  O   UNL     1      -7.230   0.837 -34.221  1.00  0.00    -0.329 OA
BRANCH   9  10
HETATM   10  C   UNL     1      -7.727   1.284 -32.953  1.00  0.00     0.130 C 
HETATM   11  C   UNL     1      -8.163   2.745 -33.140  1.00  0.00     0.034 C 
HETATM   12  C   UNL     1      -9.353   2.879 -34.094  1.00  0.00     0.035 C 
HETATM   13  C   UNL     1     -10.547   2.006 -33.695  1.00  0.00     0.186 C 
HETATM   14  C   UNL     1     -10.114   0.552 -33.475  1.00  0.00     0.035 C 
HETATM   15  C   UNL     1      -8.922   0.421 -32.520  1.00  0.00     0.034 C 
BRANCH  13  16
HETATM   16  N   UNL     1     -11.176   2.508 -32.424  1.00  0.00    -0.067 N 
HETATM   17  H   UNL     1     -10.464   2.827 -31.756  1.00  0.00     0.278 HD
HETATM   18  H   UNL     1     -11.649   1.725 -31.949  1.00  0.00     0.278 HD
BRANCH  16  19
HETATM   19  C   UNL     1     -12.193   3.601 -32.562  1.00  0.00     0.280 C 
BRANCH  19  20
HETATM   20  C   UNL     1     -13.571   3.049 -32.552  1.00  0.00     0.027 A 
HETATM   21  S   UNL     1     -14.867   3.915 -31.830  1.00  0.00    -0.077 SA
HETATM   22  C   UNL     1     -15.944   2.640 -32.245  1.00  0.00     0.071 A 
HETATM   23  C   UNL     1     -17.391   2.717 -31.897  1.00  0.00     0.078 C 
HETATM   24  N   UNL     1     -15.387   1.632 -32.879  1.00  0.00    -0.258 NA
HETATM   25  C   UNL     1     -14.045   1.865 -33.075  1.00  0.00     0.133 A 
ENDBRANCH  19  20
ENDBRANCH  16  19
ENDBRANCH  13  16
ENDBRANCH   9  10
ENDBRANCH   1   9
TORSDOF 5
ENDMDL
MODEL 2
REMARK VINA RESULT:      -7.4      3.028      8.999
REMARK  5 active torsions:
REMARK  status: ('A' for Active; 'I' for Inactive)
REMARK    1  A    between atoms: C_4  and  C_5 
REMARK    2  A    between atoms: C_5  and  N_6 
REMARK    3  A    between atoms: N_6  and  C_9 
REMARK    4  A    between atoms: C_12  and  O_13 
REMARK    5  A    between atoms: O_13  and  C_14 
ROOT
HETATM    1  C   UNL     1     -11.648   2.073 -33.523  1.00  0.00     0.164 A 
HETATM    2  N   UNL     1     -12.121   3.068 -32.746  1.00  0.00    -0.236 NA
HETATM    3  C   UNL     1     -13.449   3.044 -32.468  1.00  0.00     0.142 A 
HETATM    4  C   UNL     1     -14.321   2.074 -32.940  1.00  0.00     0.062 A 
HETATM    5  C   UNL     1     -15.708   2.116 -32.600  1.00  0.00     0.101 C 
HETATM    6  N   UNL     1     -16.832   2.157 -32.319  1.00  0.00    -0.191 NA
HETATM    7  C   UNL     1     -13.801   1.066 -33.753  1.00  0.00     0.028 A 
HETATM    8  C   UNL     1     -12.440   1.068 -34.055  1.00  0.00     0.059 A 
ENDROOT
BRANCH   1   9
HETATM    9  O   UNL     1     -10.308   2.046 -33.857  1.00  0.00    -0.329 OA
BRANCH   9  10
HETATM   10  C   UNL     1      -9.676   0.774 -33.667  1.00  0.00     0.130 C 
HETATM   11  C   UNL     1      -8.362   0.811 -34.463  1.00  0.00     0.034 C 
HETATM   12  C   UNL     1      -7.368   1.829 -33.898  1.00  0.00     0.035 C 
HETATM   13  C   UNL     1      -7.089   1.632 -32.404  1.00  0.00     0.186 C 
HETATM   14  C   UNL     1      -8.396   1.562 -31.607  1.00  0.00     0.035 C 
HETATM   15  C   UNL     1      -9.390   0.543 -32.176  1.00  0.00     0.034 C 
BRANCH  13  16
HETATM   16  N   UNL     1      -6.322   0.361 -32.165  1.00  0.00    -0.067 N 
HETATM   17  H   UNL     1      -6.898  -0.466 -32.366  1.00  0.00     0.278 HD
HETATM   18  H   UNL     1      -6.096   0.286 -31.163  1.00  0.00     0.278 HD
BRANCH  16  19
HETATM   19  C   UNL     1      -5.030   0.204 -32.909  1.00  0.00     0.280 C 
BRANCH  19  20
HETATM   20  C   UNL     1      -4.864  -1.188 -33.397  1.00  0.00     0.027 A 
HETATM   21  S   UNL     1      -3.676  -2.229 -32.718  1.00  0.00    -0.077 SA
HETATM   22  C   UNL     1      -4.162  -3.478 -33.795  1.00  0.00     0.071 A 
HETATM   23  C   UNL     1      -3.500  -4.812 -33.768  1.00  0.00     0.078 C 
HETATM   24  N   UNL     1      -5.142  -3.154 -34.609  1.00  0.00    -0.258 NA
HETATM   25  C   UNL     1      -5.559  -1.864 -34.376  1.00  0.00     0.133 A 
ENDBRANCH  19  20
ENDBRANCH  16  19
ENDBRANCH  13  16
ENDBRANCH   9  10
ENDBRANCH   1   9
TORSDOF 5
ENDMDL
MODEL 3
REMARK VINA RESULT:      -7.3      6.374      9.111
REMARK  5 active torsions:
REMARK  status: ('A' for Active; 'I' for Inactive)
REMARK    1  A    between atoms: C_4  and  C_5 
REMARK    2  A    between atoms: C_5  and  N_6 
REMARK    3  A    between atoms: N_6  and  C_9 
REMARK    4  A    between atoms: C_12  and  O_13 
REMARK    5  A    between atoms: O_13  and  C_14 
ROOT
HETATM    1  C   UNL     1      -5.578   0.092 -33.460  1.00  0.00     0.164 A 
HETATM    2  N   UNL     1      -4.567  -0.791 -33.323  1.00  0.00    -0.236 NA
HETATM    3  C   UNL     1      -4.774  -2.034 -33.827  1.00  0.00     0.142 A 
HETATM    4  C   UNL     1      -5.947  -2.431 -34.452  1.00  0.00     0.062 A 
HETATM    5  C   UNL     1      -6.085  -3.759 -34.960  1.00  0.00     0.101 C 
HETATM    6  N   UNL     1      -6.191  -4.839 -35.369  1.00  0.00    -0.191 NA
HETATM    7  C   UNL     1      -6.977  -1.497 -34.564  1.00  0.00     0.028 A 
HETATM    8  C   UNL     1      -6.792  -0.213 -34.054  1.00  0.00     0.059 A 
ENDROOT
BRANCH   1   9
HETATM    9  O   UNL     1      -5.440   1.370 -32.955  1.00  0.00    -0.329 OA
BRANCH   9  10
HETATM   10  C   UNL     1      -4.343   1.532 -32.046  1.00  0.00     0.130 C 
HETATM   11  C   UNL     1      -3.339   2.472 -32.730  1.00  0.00     0.034 C 
HETATM   12  C   UNL     1      -3.900   3.885 -32.920  1.00  0.00     0.035 C 
HETATM   13  C   UNL     1      -4.422   4.505 -31.619  1.00  0.00     0.186 C 
HETATM   14  C   UNL     1      -5.400   3.558 -30.915  1.00  0.00     0.035 C 
HETATM   15  C   UNL     1      -4.836   2.146 -30.726  1.00  0.00     0.034 C 
BRANCH  13  16
HETATM   16  N   UNL     1      -3.289   4.801 -30.675  1.00  0.00    -0.067 N 
HETATM   17  H   UNL     1      -2.910   3.938 -30.264  1.00  0.00     0.278 HD
HETATM   18  H   UNL     1      -3.650   5.337 -29.873  1.00  0.00     0.278 HD
BRANCH  16  19
HETATM   19  C   UNL     1      -2.138   5.583 -31.230  1.00  0.00     0.280 C 
BRANCH  19  20
HETATM   20  C   UNL     1      -1.513   6.425 -30.178  1.00  0.00     0.027 A 
HETATM   21  S   UNL     1       0.190   6.651 -30.120  1.00  0.00    -0.077 SA
HETATM   22  C   UNL     1       0.006   7.644 -28.729  1.00  0.00     0.071 A 
HETATM   23  C   UNL     1       1.190   8.259 -28.066  1.00  0.00     0.078 C 
HETATM   24  N   UNL     1      -1.235   7.804 -28.325  1.00  0.00    -0.258 NA
HETATM   25  C   UNL     1      -2.104   7.133 -29.155  1.00  0.00     0.133 A 
ENDBRANCH  19  20
ENDBRANCH  16  19
ENDBRANCH  13  16
ENDBRANCH   9  10
ENDBRANCH   1   9
TORSDOF 5
ENDMDL
MODEL 4
REMARK VINA RESULT:      -7.2      4.966      8.410
REMARK  5 active torsions:
REMARK  status: ('A' for Active; 'I' for Inactive)
REMARK    1  A    between atoms: C_4  and  C_5 
REMARK    2  A    between atoms: C_5  and  N_6 
REMARK    3  A    between atoms: N_6  and  C_9 
REMARK    4  A    between atoms: C_12  and  O_13 
REMARK    5  A    between atoms: O_13  and  C_14 
ROOT
HETATM    1  C   UNL     1      -5.135   3.912 -32.360  1.00  0.00     0.164 A 
HETATM    2  N   UNL     1      -5.419   4.644 -33.457  1.00  0.00    -0.236 NA
HETATM    3  C   UNL     1      -4.480   5.541 -33.848  1.00  0.00     0.142 A 
HETATM    4  C   UNL     1      -3.277   5.742 -33.186  1.00  0.00     0.062 A 
HETATM    5  C   UNL     1      -2.338   6.706 -33.665  1.00  0.00     0.101 C 
HETATM    6  N   UNL     1      -1.580   7.490 -34.058  1.00  0.00    -0.191 NA
HETATM    7  C   UNL     1      -3.022   4.978 -32.048  1.00  0.00     0.028 A 
HETATM    8  C   UNL     1      -3.970   4.049 -31.622  1.00  0.00     0.059 A 
ENDROOT
BRANCH   1   9
HETATM    9  O   UNL     1      -6.055   2.991 -31.897  1.00  0.00    -0.329 OA
BRANCH   9  10
HETATM   10  C   UNL     1      -5.627   1.626 -31.997  1.00  0.00     0.130 C 
HETATM   11  C   UNL     1      -6.650   0.785 -31.217  1.00  0.00     0.034 C 
HETATM   12  C   UNL     1      -8.037   0.807 -31.865  1.00  0.00     0.035 C 
HETATM   13  C   UNL     1      -8.018   0.400 -33.342  1.00  0.00     0.186 C 
HETATM   14  C   UNL     1      -6.977   1.213 -34.121  1.00  0.00     0.035 C 
HETATM   15  C   UNL     1      -5.590   1.189 -33.470  1.00  0.00     0.034 C 
BRANCH  13  16
HETATM   16  N   UNL     1      -7.685  -1.059 -33.492  1.00  0.00    -0.067 N 
HETATM   17  H   UNL     1      -8.502  -1.650 -33.292  1.00  0.00     0.278 HD
HETATM   18  H   UNL     1      -6.990  -1.321 -32.778  1.00  0.00     0.278 HD
BRANCH  16  19
HETATM   19  C   UNL     1      -7.125  -1.490 -34.813  1.00  0.00     0.280 C 
BRANCH  19  20
HETATM   20  C   UNL     1      -6.305  -2.719 -34.667  1.00  0.00     0.027 A 
HETATM   21  S   UNL     1      -4.677  -2.638 -34.120  1.00  0.00    -0.077 SA
HETATM   22  C   UNL     1      -4.550  -4.347 -34.263  1.00  0.00     0.071 A 
HETATM   23  C   UNL     1      -3.284  -5.051 -33.915  1.00  0.00     0.078 C 
HETATM   24  N   UNL     1      -5.639  -4.948 -34.688  1.00  0.00    -0.258 NA
HETATM   25  C   UNL     1      -6.645  -4.034 -34.900  1.00  0.00     0.133 A 
ENDBRANCH  19  20
ENDBRANCH  16  19
ENDBRANCH  13  16
ENDBRANCH   9  10
ENDBRANCH   1   9
TORSDOF 5
ENDMDL
MODEL 5
REMARK VINA RESULT:      -7.2      5.956      8.243
REMARK  5 active torsions:
REMARK  status: ('A' for Active; 'I' for Inactive)
REMARK    1  A    between atoms: C_4  and  C_5 
REMARK    2  A    between atoms: C_5  and  N_6 
REMARK    3  A    between atoms: N_6  and  C_9 
REMARK    4  A    between atoms: C_12  and  O_13 
REMARK    5  A    between atoms: O_13  and  C_14 
ROOT
HETATM    1  C   UNL     1      -5.618  -0.102 -33.457  1.00  0.00     0.164 A 
HETATM    2  N   UNL     1      -4.557  -0.925 -33.330  1.00  0.00    -0.236 NA
HETATM    3  C   UNL     1      -4.696  -2.178 -33.831  1.00  0.00     0.142 A 
HETATM    4  C   UNL     1      -5.851  -2.644 -34.444  1.00  0.00     0.062 A 
HETATM    5  C   UNL     1      -5.917  -3.978 -34.950  1.00  0.00     0.101 C 
HETATM    6  N   UNL     1      -5.964  -5.062 -35.357  1.00  0.00    -0.191 NA
HETATM    7  C   UNL     1      -6.934  -1.771 -34.546  1.00  0.00     0.028 A 
HETATM    8  C   UNL     1      -6.819  -0.478 -34.038  1.00  0.00     0.059 A 
ENDROOT
BRANCH   1   9
HETATM    9  O   UNL     1      -5.550   1.182 -32.954  1.00  0.00    -0.329 OA
BRANCH   9  10
HETATM   10  C   UNL     1      -4.568   1.363 -31.925  1.00  0.00     0.130 C 
HETATM   11  C   UNL     1      -3.405   2.142 -32.557  1.00  0.00     0.034 C 
HETATM   12  C   UNL     1      -3.809   3.562 -32.964  1.00  0.00     0.035 C 
HETATM   13  C   UNL     1      -4.435   4.363 -31.817  1.00  0.00     0.186 C 
HETATM   14  C   UNL     1      -5.576   3.578 -31.161  1.00  0.00     0.035 C 
HETATM   15  C   UNL     1      -5.170   2.157 -30.755  1.00  0.00     0.034 C 
BRANCH  13  16
HETATM   16  N   UNL     1      -3.411   4.677 -30.761  1.00  0.00    -0.067 N 
HETATM   17  H   UNL     1      -3.167   3.840 -30.217  1.00  0.00     0.278 HD
HETATM   18  H   UNL     1      -3.823   5.325 -30.075  1.00  0.00     0.278 HD
BRANCH  16  19
HETATM   19  C   UNL     1      -2.133   5.304 -31.229  1.00  0.00     0.280 C 
BRANCH  19  20
HETATM   20  C   UNL     1      -2.257   6.782 -31.287  1.00  0.00     0.027 A 
HETATM   21  S   UNL     1      -3.115   7.648 -30.076  1.00  0.00    -0.077 SA
HETATM   22  C   UNL     1      -2.772   9.121 -30.892  1.00  0.00     0.071 A 
HETATM   23  C   UNL     1      -3.254  10.424 -30.353  1.00  0.00     0.078 C 
HETATM   24  N   UNL     1      -2.067   8.991 -31.994  1.00  0.00    -0.258 NA
HETATM   25  C   UNL     1      -1.753   7.669 -32.214  1.00  0.00     0.133 A 
ENDBRANCH  19  20
ENDBRANCH  16  19
ENDBRANCH  13  16
ENDBRANCH   9  10
ENDBRANCH   1   9
TORSDOF 5
ENDMDL
MODEL 6
REMARK VINA RESULT:      -6.9      5.445      8.178
REMARK  5 active torsions:
REMARK  status: ('A' for Active; 'I' for Inactive)
REMARK    1  A    between atoms: C_4  and  C_5 
REMARK    2  A    between atoms: C_5  and  N_6 
REMARK    3  A    between atoms: N_6  and  C_9 
REMARK    4  A    between atoms: C_12  and  O_13 
REMARK    5  A    between atoms: O_13  and  C_14 
ROOT
HETATM    1  C   UNL     1      -6.256  -0.459 -33.024  1.00  0.00     0.164 A 
HETATM    2  N   UNL     1      -7.402  -0.978 -33.512  1.00  0.00    -0.236 NA
HETATM    3  C   UNL     1      -7.299  -2.152 -34.183  1.00  0.00     0.142 A 
HETATM    4  C   UNL     1      -6.102  -2.822 -34.394  1.00  0.00     0.062 A 
HETATM    5  C   UNL     1      -6.078  -4.059 -35.109  1.00  0.00     0.101 C 
HETATM    6  N   UNL     1      -6.066  -5.061 -35.692  1.00  0.00    -0.191 NA
HETATM    7  C   UNL     1      -4.935  -2.251 -33.887  1.00  0.00     0.028 A 
HETATM    8  C   UNL     1      -5.011  -1.044 -33.194  1.00  0.00     0.059 A 
ENDROOT
BRANCH   1   9
HETATM    9  O   UNL     1      -6.287   0.743 -32.343  1.00  0.00    -0.329 OA
BRANCH   9  10
HETATM   10  C   UNL     1      -5.267   1.671 -32.735  1.00  0.00     0.130 C 
HETATM   11  C   UNL     1      -5.969   2.796 -33.510  1.00  0.00     0.034 C 
HETATM   12  C   UNL     1      -6.917   3.610 -32.625  1.00  0.00     0.035 C 
HETATM   13  C   UNL     1      -6.240   4.162 -31.366  1.00  0.00     0.186 C 
HETATM   14  C   UNL     1      -5.511   3.050 -30.604  1.00  0.00     0.035 C 
HETATM   15  C   UNL     1      -4.562   2.237 -31.493  1.00  0.00     0.034 C 
BRANCH  13  16
HETATM   16  N   UNL     1      -5.238   5.227 -31.720  1.00  0.00    -0.067 N 
HETATM   17  H   UNL     1      -5.692   6.029 -32.175  1.00  0.00     0.278 HD
HETATM   18  H   UNL     1      -4.588   4.856 -32.427  1.00  0.00     0.278 HD
BRANCH  16  19
HETATM   19  C   UNL     1      -4.396   5.757 -30.599  1.00  0.00     0.280 C 
BRANCH  19  20
HETATM   20  C   UNL     1      -2.961   5.780 -30.979  1.00  0.00     0.027 A 
HETATM   21  S   UNL     1      -1.885   6.941 -30.310  1.00  0.00    -0.077 SA
HETATM   22  C   UNL     1      -0.598   6.276 -31.236  1.00  0.00     0.071 A 
HETATM   23  C   UNL     1       0.778   6.840 -31.149  1.00  0.00     0.078 C 
HETATM   24  N   UNL     1      -0.934   5.257 -31.996  1.00  0.00    -0.258 NA
HETATM   25  C   UNL     1      -2.268   4.957 -31.840  1.00  0.00     0.133 A 
ENDBRANCH  19  20
ENDBRANCH  16  19
ENDBRANCH  13  16
ENDBRANCH   9  10
ENDBRANCH   1   9
TORSDOF 5
ENDMDL
MODEL 7
REMARK VINA RESULT:      -6.8     13.779     16.539
REMARK  5 active torsions:
REMARK  status: ('A' for Active; 'I' for Inactive)
REMARK    1  A    between atoms: C_4  and  C_5 
REMARK    2  A    between atoms: C_5  and  N_6 
REMARK    3  A    between atoms: N_6  and  C_9 
REMARK    4  A    between atoms: C_12  and  O_13 
REMARK    5  A    between atoms: O_13  and  C_14 
ROOT
HETATM    1  C   UNL     1      -0.541   7.904 -29.177  1.00  0.00     0.164 A 
HETATM    2  N   UNL     1      -1.629   8.426 -29.779  1.00  0.00    -0.236 NA
HETATM    3  C   UNL     1      -1.798   8.131 -31.093  1.00  0.00     0.142 A 
HETATM    4  C   UNL     1      -0.922   7.345 -31.828  1.00  0.00     0.062 A 
HETATM    5  C   UNL     1      -1.173   7.076 -33.209  1.00  0.00     0.101 C 
HETATM    6  N   UNL     1      -1.382   6.864 -34.329  1.00  0.00    -0.191 NA
HETATM    7  C   UNL     1       0.200   6.832 -31.178  1.00  0.00     0.028 A 
HETATM    8  C   UNL     1       0.398   7.120 -29.829  1.00  0.00     0.059 A 
ENDROOT
BRANCH   1   9
HETATM    9  O   UNL     1      -0.301   8.178 -27.845  1.00  0.00    -0.329 OA
BRANCH   9  10
HETATM   10  C   UNL     1       0.471   9.364 -27.615  1.00  0.00     0.130 C 
HETATM   11  C   UNL     1      -0.211  10.118 -26.464  1.00  0.00     0.034 C 
HETATM   12  C   UNL     1      -0.145   9.347 -25.142  1.00  0.00     0.035 C 
HETATM   13  C   UNL     1       1.281   8.942 -24.752  1.00  0.00     0.186 C 
HETATM   14  C   UNL     1       1.979   8.217 -25.908  1.00  0.00     0.035 C 
HETATM   15  C   UNL     1       1.911   8.991 -27.229  1.00  0.00     0.034 C 
BRANCH  13  16
HETATM   16  N   UNL     1       2.100  10.150 -24.389  1.00  0.00    -0.067 N 
HETATM   17  H   UNL     1       1.618  11.020 -24.648  1.00  0.00     0.278 HD
HETATM   18  H   UNL     1       2.964  10.152 -24.949  1.00  0.00     0.278 HD
BRANCH  16  19
HETATM   19  C   UNL     1       2.519  10.272 -22.955  1.00  0.00     0.280 C 
BRANCH  19  20
HETATM   20  C   UNL     1       3.484   9.205 -22.591  1.00  0.00     0.027 A 
HETATM   21  S   UNL     1       5.027   9.111 -23.343  1.00  0.00    -0.077 SA
HETATM   22  C   UNL     1       5.395   7.719 -22.404  1.00  0.00     0.071 A 
HETATM   23  C   UNL     1       6.709   7.029 -22.540  1.00  0.00     0.078 C 
HETATM   24  N   UNL     1       4.441   7.339 -21.583  1.00  0.00    -0.258 NA
HETATM   25  C   UNL     1       3.362   8.189 -21.668  1.00  0.00     0.133 A 
ENDBRANCH  19  20
ENDBRANCH  16  19
ENDBRANCH  13  16
ENDBRANCH   9  10
ENDBRANCH   1   9
TORSDOF 5
ENDMDL
MODEL 8
REMARK VINA RESULT:      -6.7      5.548      7.693
REMARK  5 active torsions:
REMARK  status: ('A' for Active; 'I' for Inactive)
REMARK    1  A    between atoms: C_4  and  C_5 
REMARK    2  A    between atoms: C_5  and  N_6 
REMARK    3  A    between atoms: N_6  and  C_9 
REMARK    4  A    between atoms: C_12  and  O_13 
REMARK    5  A    between atoms: O_13  and  C_14 
ROOT
HETATM    1  C   UNL     1      -5.288  -0.117 -33.445  1.00  0.00     0.164 A 
HETATM    2  N   UNL     1      -6.456  -0.319 -34.089  1.00  0.00    -0.236 NA
HETATM    3  C   UNL     1      -6.666  -1.562 -34.591  1.00  0.00     0.142 A 
HETATM    4  C   UNL     1      -5.756  -2.604 -34.485  1.00  0.00     0.062 A 
HETATM    5  C   UNL     1      -6.054  -3.887 -35.039  1.00  0.00     0.101 C 
HETATM    6  N   UNL     1      -6.302  -4.925 -35.492  1.00  0.00    -0.191 NA
HETATM    7  C   UNL     1      -4.553  -2.357 -33.825  1.00  0.00     0.028 A 
HETATM    8  C   UNL     1      -4.310  -1.089 -33.299  1.00  0.00     0.059 A 
ENDROOT
BRANCH   1   9
HETATM    9  O   UNL     1      -5.003   1.129 -32.922  1.00  0.00    -0.329 OA
BRANCH   9  10
HETATM   10  C   UNL     1      -4.727   1.132 -31.515  1.00  0.00     0.130 C 
HETATM   11  C   UNL     1      -3.728   2.272 -31.265  1.00  0.00     0.034 C 
HETATM   12  C   UNL     1      -4.335   3.650 -31.546  1.00  0.00     0.035 C 
HETATM   13  C   UNL     1      -5.641   3.899 -30.785  1.00  0.00     0.186 C 
HETATM   14  C   UNL     1      -6.631   2.750 -31.005  1.00  0.00     0.035 C 
HETATM   15  C   UNL     1      -6.021   1.372 -30.723  1.00  0.00     0.034 C 
BRANCH  13  16
HETATM   16  N   UNL     1      -5.385   4.026 -29.308  1.00  0.00    -0.067 N 
HETATM   17  H   UNL     1      -4.378   4.072 -29.107  1.00  0.00     0.278 HD
HETATM   18  H   UNL     1      -5.707   3.169 -28.836  1.00  0.00     0.278 HD
BRANCH  16  19
HETATM   19  C   UNL     1      -6.042   5.176 -28.607  1.00  0.00     0.280 C 
BRANCH  19  20
HETATM   20  C   UNL     1      -5.033   6.164 -28.148  1.00  0.00     0.027 A 
HETATM   21  S   UNL     1      -4.159   7.126 -29.273  1.00  0.00    -0.077 SA
HETATM   22  C   UNL     1      -3.317   7.872 -27.974  1.00  0.00     0.071 A 
HETATM   23  C   UNL     1      -2.294   8.925 -28.229  1.00  0.00     0.078 C 
HETATM   24  N   UNL     1      -3.656   7.443 -26.778  1.00  0.00    -0.258 NA
HETATM   25  C   UNL     1      -4.643   6.489 -26.867  1.00  0.00     0.133 A 
ENDBRANCH  19  20
ENDBRANCH  16  19
ENDBRANCH  13  16
ENDBRANCH   9  10
ENDBRANCH   1   9
TORSDOF 5
ENDMDL
MODEL 9
REMARK VINA RESULT:      -6.7      7.120      9.473
REMARK  5 active torsions:
REMARK  status: ('A' for Active; 'I' for Inactive)
REMARK    1  A    between atoms: C_4  and  C_5 
REMARK    2  A    between atoms: C_5  and  N_6 
REMARK    3  A    between atoms: N_6  and  C_9 
REMARK    4  A    between atoms: C_12  and  O_13 
REMARK    5  A    between atoms: O_13  and  C_14 
ROOT
HETATM    1  C   UNL     1      -1.287   6.909 -31.638  1.00  0.00     0.164 A 
HETATM    2  N   UNL     1      -1.841   7.722 -30.715  1.00  0.00    -0.236 NA
HETATM    3  C   UNL     1      -1.075   8.030 -29.639  1.00  0.00     0.142 A 
HETATM    4  C   UNL     1       0.214   7.555 -29.444  1.00  0.00     0.062 A 
HETATM    5  C   UNL     1       0.959   7.929 -28.284  1.00  0.00     0.101 C 
HETATM    6  N   UNL     1       1.556   8.237 -27.340  1.00  0.00    -0.191 NA
HETATM    7  C   UNL     1       0.751   6.705 -30.411  1.00  0.00     0.028 A 
HETATM    8  C   UNL     1      -0.015   6.371 -31.527  1.00  0.00     0.059 A 
ENDROOT
BRANCH   1   9
HETATM    9  O   UNL     1      -2.019   6.542 -32.751  1.00  0.00    -0.329 OA
BRANCH   9  10
HETATM   10  C   UNL     1      -2.247   5.132 -32.871  1.00  0.00     0.130 C 
HETATM   11  C   UNL     1      -3.549   4.829 -32.115  1.00  0.00     0.034 C 
HETATM   12  C   UNL     1      -4.769   5.479 -32.775  1.00  0.00     0.035 C 
HETATM   13  C   UNL     1      -4.911   5.124 -34.259  1.00  0.00     0.186 C 
HETATM   14  C   UNL     1      -3.605   5.393 -35.014  1.00  0.00     0.035 C 
HETATM   15  C   UNL     1      -2.385   4.743 -34.351  1.00  0.00     0.034 C 
BRANCH  13  16
HETATM   16  N   UNL     1      -5.265   3.673 -34.432  1.00  0.00    -0.067 N 
HETATM   17  H   UNL     1      -4.495   3.062 -34.132  1.00  0.00     0.278 HD
HETATM   18  H   UNL     1      -5.384   3.471 -35.435  1.00  0.00     0.278 HD
BRANCH  16  19
HETATM   19  C   UNL     1      -6.512   3.198 -33.749  1.00  0.00     0.280 C 
BRANCH  19  20
HETATM   20  C   UNL     1      -6.496   1.724 -33.579  1.00  0.00     0.027 A 
HETATM   21  S   UNL     1      -6.985   0.679 -34.853  1.00  0.00    -0.077 SA
HETATM   22  C   UNL     1      -6.677  -0.682 -33.849  1.00  0.00     0.071 A 
HETATM   23  C   UNL     1      -6.899  -2.068 -34.349  1.00  0.00     0.078 C 
HETATM   24  N   UNL     1      -6.238  -0.391 -32.644  1.00  0.00    -0.258 NA
HETATM   25  C   UNL     1      -6.114   0.971 -32.490  1.00  0.00     0.133 A 
ENDBRANCH  19  20
ENDBRANCH  16  19
ENDBRANCH  13  16
ENDBRANCH   9  10
ENDBRANCH   1   9
TORSDOF 5
ENDMDL
MODEL 10
REMARK VINA RESULT:      -6.7      2.712      9.088
REMARK  5 active torsions:
REMARK  status: ('A' for Active; 'I' for Inactive)
REMARK    1  A    between atoms: C_4  and  C_5 
REMARK    2  A    between atoms: C_5  and  N_6 
REMARK    3  A    between atoms: N_6  and  C_9 
REMARK    4  A    between atoms: C_12  and  O_13 
REMARK    5  A    between atoms: O_13  and  C_14 
ROOT
HETATM    1  C   UNL     1     -12.191   2.868 -33.084  1.00  0.00     0.164 A 
HETATM    2  N   UNL     1     -12.938   1.981 -33.773  1.00  0.00    -0.236 NA
HETATM    3  C   UNL     1     -14.249   1.898 -33.434  1.00  0.00     0.142 A 
HETATM    4  C   UNL     1     -14.840   2.657 -32.434  1.00  0.00     0.062 A 
HETATM    5  C   UNL     1     -16.230   2.513 -32.139  1.00  0.00     0.101 C 
HETATM    6  N   UNL     1     -17.359   2.391 -31.905  1.00  0.00    -0.191 NA
HETATM    7  C   UNL     1     -14.035   3.554 -31.732  1.00  0.00     0.028 A 
HETATM    8  C   UNL     1     -12.684   3.659 -32.058  1.00  0.00     0.059 A 
ENDROOT
BRANCH   1   9
HETATM    9  O   UNL     1     -10.844   2.992 -33.367  1.00  0.00    -0.329 OA
BRANCH   9  10
HETATM   10  C   UNL     1      -9.975   2.486 -32.345  1.00  0.00     0.130 C 
HETATM   11  C   UNL     1      -9.795   0.986 -32.621  1.00  0.00     0.034 C 
HETATM   12  C   UNL     1      -9.048   0.722 -33.932  1.00  0.00     0.035 C 
HETATM   13  C   UNL     1      -7.704   1.454 -34.018  1.00  0.00     0.186 C 
HETATM   14  C   UNL     1      -7.872   2.946 -33.712  1.00  0.00     0.035 C 
HETATM   15  C   UNL     1      -8.620   3.207 -32.399  1.00  0.00     0.034 C 
BRANCH  13  16
HETATM   16  N   UNL     1      -6.718   0.879 -33.039  1.00  0.00    -0.067 N 
HETATM   17  H   UNL     1      -7.075   0.013 -32.614  1.00  0.00     0.278 HD
HETATM   18  H   UNL     1      -6.607   1.531 -32.250  1.00  0.00     0.278 HD
BRANCH  16  19
HETATM   19  C   UNL     1      -5.341   0.595 -33.557  1.00  0.00     0.280 C 
BRANCH  19  20
HETATM   20  C   UNL     1      -5.167  -0.852 -33.839  1.00  0.00     0.027 A 
HETATM   21  S   UNL     1      -6.446  -1.784 -34.509  1.00  0.00    -0.077 SA
HETATM   22  C   UNL     1      -5.442  -3.179 -34.474  1.00  0.00     0.071 A 
HETATM   23  C   UNL     1      -5.942  -4.495 -34.962  1.00  0.00     0.078 C 
HETATM   24  N   UNL     1      -4.233  -2.976 -33.999  1.00  0.00    -0.258 NA
HETATM   25  C   UNL     1      -4.063  -1.655 -33.655  1.00  0.00     0.133 A 
ENDBRANCH  19  20
ENDBRANCH  16  19
ENDBRANCH  13  16
ENDBRANCH   9  10
ENDBRANCH   1   9
TORSDOF 5
ENDMDL
