MODEL 1
REMARK VINA RESULT:      -9.0      0.000      0.000
REMARK  6 active torsions:
REMARK  status: ('A' for Active; 'I' for Inactive)
REMARK    1  A    between atoms: C_4  and  C_5 
REMARK    2  A    between atoms: C_5  and  O_6 
REMARK    3  A    between atoms: O_6  and  C_7 
REMARK    4  A    between atoms: C_10  and  C_11 
REMARK    5  A    between atoms: C_17  and  C_18 
REMARK    6  A    between atoms: C_27  and  N_28 
ROOT
HETATM    1  C   UNL     1     -10.385   1.458 -33.663  1.00  0.00     0.072 A 
HETATM    2  N   UNL     1     -11.540   0.728 -33.459  1.00  0.00    -0.274 N 
HETATM    3  H   UNL     1     -11.613  -0.234 -33.143  1.00  0.00     0.189 HD
HETATM    4  N   UNL     1     -12.676   1.391 -33.752  1.00  0.00    -0.148 NA
HETATM    5  C   UNL     1     -12.220   2.566 -34.157  1.00  0.00     0.199 A 
HETATM    6  C   UNL     1     -10.829   2.696 -34.104  1.00  0.00     0.040 A 
HETATM    7  C   UNL     1     -10.179   3.972 -34.505  1.00  0.00     0.107 A 
HETATM    8  C   UNL     1     -11.198   4.951 -35.077  1.00  0.00     0.081 A 
HETATM    9  C   UNL     1     -10.677   6.147 -35.655  1.00  0.00     0.100 C 
HETATM   10  N   UNL     1     -10.240   7.116 -36.120  1.00  0.00    -0.191 NA
HETATM   11  C   UNL     1     -12.533   4.701 -35.091  1.00  0.00     0.140 A 
HETATM   12  O   UNL     1     -13.075   3.516 -34.578  1.00  0.00    -0.277 OA
ENDROOT
BRANCH   7  13
HETATM   13  C   UNL     1      -9.479   4.508 -33.270  1.00  0.00    -0.027 A 
HETATM   14  C   UNL     1     -10.172   4.991 -32.157  1.00  0.00     0.124 A 
HETATM   15  N   UNL     1      -9.585   5.525 -31.063  1.00  0.00    -0.273 NA
HETATM   16  C   UNL     1      -8.237   5.588 -31.066  1.00  0.00     0.116 A 
HETATM   17  C   UNL     1      -7.450   5.140 -32.112  1.00  0.00     0.020 A 
HETATM   18  C   UNL     1      -8.081   4.597 -33.227  1.00  0.00     0.011 A 
ENDBRANCH   7  13
BRANCH  11  19
HETATM   19  N   UNL     1     -13.495   5.549 -35.596  1.00  0.00    -0.282 NA
HETATM   20  H   UNL     1     -14.439   5.407 -35.247  1.00  0.00     0.126 HD
HETATM   21  H   UNL     1     -13.450   5.619 -36.611  1.00  0.00     0.126 HD
ENDBRANCH  11  19
BRANCH   1  22
HETATM   22  C   UNL     1      -9.053   0.907 -33.433  1.00  0.00    -0.007 A 
HETATM   23  C   UNL     1      -8.650   0.528 -32.149  1.00  0.00     0.016 A 
HETATM   24  C   UNL     1      -7.374  -0.002 -31.934  1.00  0.00     0.037 A 
HETATM   25  C   UNL     1      -6.477  -0.155 -32.992  1.00  0.00     0.069 A 
HETATM   26  C   UNL     1      -6.865   0.236 -34.271  1.00  0.00     0.037 A 
HETATM   27  C   UNL     1      -8.147   0.757 -34.490  1.00  0.00     0.016 A 
BRANCH  25  28
HETATM   28  O   UNL     1      -5.273  -0.698 -32.642  1.00  0.00    -0.347 OA
BRANCH  28  29
HETATM   29  C   UNL     1      -4.398  -1.091 -33.703  1.00  0.00     0.214 C 
BRANCH  29  30
HETATM   30  C   UNL     1      -4.542  -2.572 -33.959  1.00  0.00    -0.034 A 
HETATM   31  C   UNL     1      -3.684  -3.484 -33.323  1.00  0.00     0.009 A 
HETATM   32  C   UNL     1      -3.822  -4.857 -33.536  1.00  0.00     0.001 A 
HETATM   33  C   UNL     1      -4.822  -5.336 -34.378  1.00  0.00     0.000 A 
HETATM   34  C   UNL     1      -5.691  -4.444 -35.003  1.00  0.00     0.001 A 
HETATM   35  C   UNL     1      -5.556  -3.071 -34.790  1.00  0.00     0.009 A 
ENDBRANCH  29  30
ENDBRANCH  28  29
ENDBRANCH  25  28
ENDBRANCH   1  22
TORSDOF 6
ENDMDL
MODEL 2
REMARK VINA RESULT:      -8.9      4.118      7.035
REMARK  6 active torsions:
REMARK  status: ('A' for Active; 'I' for Inactive)
REMARK    1  A    between atoms: C_4  and  C_5 
REMARK    2  A    between atoms: C_5  and  O_6 
REMARK    3  A    between atoms: O_6  and  C_7 
REMARK    4  A    between atoms: C_10  and  C_11 
REMARK    5  A    between atoms: C_17  and  C_18 
REMARK    6  A    between atoms: C_27  and  N_28 
ROOT
HETATM    1  C   UNL     1      -6.464   6.031 -31.864  1.00  0.00     0.072 A 
HETATM    2  N   UNL     1      -6.716   7.062 -30.980  1.00  0.00    -0.274 N 
HETATM    3  H   UNL     1      -7.582   7.251 -30.484  1.00  0.00     0.189 HD
HETATM    4  N   UNL     1      -5.684   7.910 -30.805  1.00  0.00    -0.148 NA
HETATM    5  C   UNL     1      -4.761   7.400 -31.607  1.00  0.00     0.199 A 
HETATM    6  C   UNL     1      -5.153   6.232 -32.268  1.00  0.00     0.040 A 
HETATM    7  C   UNL     1      -4.208   5.535 -33.182  1.00  0.00     0.107 A 
HETATM    8  C   UNL     1      -2.927   6.340 -33.365  1.00  0.00     0.081 A 
HETATM    9  C   UNL     1      -2.010   5.864 -34.349  1.00  0.00     0.100 C 
HETATM   10  N   UNL     1      -1.274   5.464 -35.151  1.00  0.00    -0.191 NA
HETATM   11  C   UNL     1      -2.667   7.480 -32.674  1.00  0.00     0.140 A 
HETATM   12  O   UNL     1      -3.567   8.005 -31.736  1.00  0.00    -0.277 OA
ENDROOT
BRANCH   7  13
HETATM   13  C   UNL     1      -3.959   4.164 -32.582  1.00  0.00    -0.027 A 
HETATM   14  C   UNL     1      -2.938   3.913 -31.663  1.00  0.00     0.124 A 
HETATM   15  N   UNL     1      -2.653   2.696 -31.149  1.00  0.00    -0.273 NA
HETATM   16  C   UNL     1      -3.416   1.665 -31.567  1.00  0.00     0.116 A 
HETATM   17  C   UNL     1      -4.453   1.797 -32.473  1.00  0.00     0.020 A 
HETATM   18  C   UNL     1      -4.724   3.061 -32.988  1.00  0.00     0.011 A 
ENDBRANCH   7  13
BRANCH  11  19
HETATM   19  N   UNL     1      -1.528   8.246 -32.801  1.00  0.00    -0.282 NA
HETATM   20  H   UNL     1      -1.334   8.884 -32.034  1.00  0.00     0.126 HD
HETATM   21  H   UNL     1      -1.464   8.688 -33.716  1.00  0.00     0.126 HD
ENDBRANCH  11  19
BRANCH   1  22
HETATM   22  C   UNL     1      -7.466   5.027 -32.210  1.00  0.00    -0.007 A 
HETATM   23  C   UNL     1      -7.921   4.896 -33.526  1.00  0.00     0.016 A 
HETATM   24  C   UNL     1      -8.878   3.931 -33.852  1.00  0.00     0.037 A 
HETATM   25  C   UNL     1      -9.403   3.087 -32.873  1.00  0.00     0.069 A 
HETATM   26  C   UNL     1      -8.969   3.222 -31.557  1.00  0.00     0.037 A 
HETATM   27  C   UNL     1      -8.001   4.182 -31.229  1.00  0.00     0.016 A 
BRANCH  25  28
HETATM   28  O   UNL     1     -10.318   2.182 -33.334  1.00  0.00    -0.347 OA
BRANCH  28  29
HETATM   29  C   UNL     1     -10.138   0.815 -32.955  1.00  0.00     0.214 C 
BRANCH  29  30
HETATM   30  C   UNL     1      -8.832   0.301 -33.512  1.00  0.00    -0.034 A 
HETATM   31  C   UNL     1      -8.522   0.488 -34.868  1.00  0.00     0.009 A 
HETATM   32  C   UNL     1      -7.309   0.036 -35.389  1.00  0.00     0.001 A 
HETATM   33  C   UNL     1      -6.387  -0.600 -34.561  1.00  0.00     0.000 A 
HETATM   34  C   UNL     1      -6.674  -0.779 -33.210  1.00  0.00     0.001 A 
HETATM   35  C   UNL     1      -7.886  -0.325 -32.686  1.00  0.00     0.009 A 
ENDBRANCH  29  30
ENDBRANCH  28  29
ENDBRANCH  25  28
ENDBRANCH   1  22
TORSDOF 6
ENDMDL
MODEL 3
REMARK VINA RESULT:      -8.8      3.574      5.057
REMARK  6 active torsions:
REMARK  status: ('A' for Active; 'I' for Inactive)
REMARK    1  A    between atoms: C_4  and  C_5 
REMARK    2  A    between atoms: C_5  and  O_6 
REMARK    3  A    between atoms: O_6  and  C_7 
REMARK    4  A    between atoms: C_10  and  C_11 
REMARK    5  A    between atoms: C_17  and  C_18 
REMARK    6  A    between atoms: C_27  and  N_28 
ROOT
HETATM    1  C   UNL     1      -5.665   3.740 -29.869  1.00  0.00     0.072 A 
HETATM    2  N   UNL     1      -5.323   4.180 -28.606  1.00  0.00    -0.274 N 
HETATM    3  H   UNL     1      -4.775   3.686 -27.908  1.00  0.00     0.189 HD
HETATM    4  N   UNL     1      -5.814   5.393 -28.286  1.00  0.00    -0.148 NA
HETATM    5  C   UNL     1      -6.489   5.720 -29.378  1.00  0.00     0.199 A 
HETATM    6  C   UNL     1      -6.421   4.772 -30.404  1.00  0.00     0.040 A 
HETATM    7  C   UNL     1      -7.111   5.017 -31.699  1.00  0.00     0.107 A 
HETATM    8  C   UNL     1      -7.949   6.289 -31.641  1.00  0.00     0.081 A 
HETATM    9  C   UNL     1      -8.794   6.547 -32.763  1.00  0.00     0.100 C 
HETATM   10  N   UNL     1      -9.475   6.744 -33.681  1.00  0.00    -0.191 NA
HETATM   11  C   UNL     1      -7.947   7.127 -30.572  1.00  0.00     0.140 A 
HETATM   12  O   UNL     1      -7.168   6.880 -29.434  1.00  0.00    -0.277 OA
ENDROOT
BRANCH   7  13
HETATM   13  C   UNL     1      -6.030   5.075 -32.761  1.00  0.00    -0.027 A 
HETATM   14  C   UNL     1      -5.042   6.062 -32.783  1.00  0.00     0.124 A 
HETATM   15  N   UNL     1      -4.095   6.176 -33.742  1.00  0.00    -0.273 NA
HETATM   16  C   UNL     1      -4.126   5.266 -34.738  1.00  0.00     0.116 A 
HETATM   17  C   UNL     1      -5.057   4.247 -34.817  1.00  0.00     0.020 A 
HETATM   18  C   UNL     1      -6.022   4.154 -33.818  1.00  0.00     0.011 A 
ENDBRANCH   7  13
BRANCH  11  19
HETATM   19  N   UNL     1      -8.684   8.286 -30.468  1.00  0.00    -0.282 NA
HETATM   20  H   UNL     1      -9.689   8.166 -30.362  1.00  0.00     0.126 HD
HETATM   21  H   UNL     1      -8.436   8.964 -31.187  1.00  0.00     0.126 HD
ENDBRANCH  11  19
BRANCH   1  22
HETATM   22  C   UNL     1      -5.255   2.439 -30.389  1.00  0.00    -0.007 A 
HETATM   23  C   UNL     1      -4.076   2.304 -31.128  1.00  0.00     0.016 A 
HETATM   24  C   UNL     1      -3.686   1.056 -31.621  1.00  0.00     0.037 A 
HETATM   25  C   UNL     1      -4.468  -0.077 -31.393  1.00  0.00     0.069 A 
HETATM   26  C   UNL     1      -5.654   0.050 -30.673  1.00  0.00     0.037 A 
HETATM   27  C   UNL     1      -6.040   1.299 -30.169  1.00  0.00     0.016 A 
BRANCH  25  28
HETATM   28  O   UNL     1      -3.962  -1.233 -31.919  1.00  0.00    -0.347 OA
BRANCH  28  29
HETATM   29  C   UNL     1      -3.845  -1.311 -33.342  1.00  0.00     0.214 C 
BRANCH  29  30
HETATM   30  C   UNL     1      -4.675  -2.462 -33.859  1.00  0.00    -0.034 A 
HETATM   31  C   UNL     1      -5.973  -2.234 -34.340  1.00  0.00     0.009 A 
HETATM   32  C   UNL     1      -6.741  -3.286 -34.841  1.00  0.00     0.001 A 
HETATM   33  C   UNL     1      -6.219  -4.577 -34.875  1.00  0.00     0.000 A 
HETATM   34  C   UNL     1      -4.926  -4.816 -34.415  1.00  0.00     0.001 A 
HETATM   35  C   UNL     1      -4.156  -3.764 -33.916  1.00  0.00     0.009 A 
ENDBRANCH  29  30
ENDBRANCH  28  29
ENDBRANCH  25  28
ENDBRANCH   1  22
TORSDOF 6
ENDMDL
MODEL 4
REMARK VINA RESULT:      -8.7      4.081      6.751
REMARK  6 active torsions:
REMARK  status: ('A' for Active; 'I' for Inactive)
REMARK    1  A    between atoms: C_4  and  C_5 
REMARK    2  A    between atoms: C_5  and  O_6 
REMARK    3  A    between atoms: O_6  and  C_7 
REMARK    4  A    between atoms: C_10  and  C_11 
REMARK    5  A    between atoms: C_17  and  C_18 
REMARK    6  A    between atoms: C_27  and  N_28 
ROOT
HETATM    1  C   UNL     1      -3.354   4.182 -31.936  1.00  0.00     0.072 A 
HETATM    2  N   UNL     1      -2.148   4.461 -32.547  1.00  0.00    -0.274 N 
HETATM    3  H   UNL     1      -1.687   3.924 -33.276  1.00  0.00     0.189 HD
HETATM    4  N   UNL     1      -1.526   5.560 -32.077  1.00  0.00    -0.148 NA
HETATM    5  C   UNL     1      -2.363   5.978 -31.140  1.00  0.00     0.199 A 
HETATM    6  C   UNL     1      -3.521   5.204 -31.013  1.00  0.00     0.040 A 
HETATM    7  C   UNL     1      -4.563   5.572 -30.017  1.00  0.00     0.107 A 
HETATM    8  C   UNL     1      -4.103   6.733 -29.144  1.00  0.00     0.081 A 
HETATM    9  C   UNL     1      -4.940   7.072 -28.039  1.00  0.00     0.100 C 
HETATM   10  N   UNL     1      -5.632   7.336 -27.147  1.00  0.00    -0.191 NA
HETATM   11  C   UNL     1      -2.938   7.399 -29.356  1.00  0.00     0.140 A 
HETATM   12  O   UNL     1      -2.066   7.062 -30.401  1.00  0.00    -0.277 OA
ENDROOT
BRANCH   7  13
HETATM   13  C   UNL     1      -5.820   5.891 -30.804  1.00  0.00    -0.027 A 
HETATM   14  C   UNL     1      -5.896   6.947 -31.714  1.00  0.00     0.124 A 
HETATM   15  N   UNL     1      -7.012   7.294 -32.393  1.00  0.00    -0.273 NA
HETATM   16  C   UNL     1      -8.119   6.559 -32.159  1.00  0.00     0.116 A 
HETATM   17  C   UNL     1      -8.159   5.492 -31.280  1.00  0.00     0.020 A 
HETATM   18  C   UNL     1      -6.996   5.157 -30.593  1.00  0.00     0.011 A 
ENDBRANCH   7  13
BRANCH  11  19
HETATM   19  N   UNL     1      -2.475   8.453 -28.599  1.00  0.00    -0.282 NA
HETATM   20  H   UNL     1      -2.128   9.256 -29.119  1.00  0.00     0.126 HD
HETATM   21  H   UNL     1      -1.838   8.147 -27.865  1.00  0.00     0.126 HD
ENDBRANCH  11  19
BRANCH   1  22
HETATM   22  C   UNL     1      -4.164   3.019 -32.284  1.00  0.00    -0.007 A 
HETATM   23  C   UNL     1      -3.843   1.751 -31.787  1.00  0.00     0.016 A 
HETATM   24  C   UNL     1      -4.623   0.641 -32.121  1.00  0.00     0.037 A 
HETATM   25  C   UNL     1      -5.730   0.772 -32.961  1.00  0.00     0.069 A 
HETATM   26  C   UNL     1      -6.047   2.028 -33.474  1.00  0.00     0.037 A 
HETATM   27  C   UNL     1      -5.272   3.144 -33.132  1.00  0.00     0.016 A 
BRANCH  25  28
HETATM   28  O   UNL     1      -6.410  -0.391 -33.192  1.00  0.00    -0.347 OA
BRANCH  28  29
HETATM   29  C   UNL     1      -6.403  -0.901 -34.527  1.00  0.00     0.214 C 
BRANCH  29  30
HETATM   30  C   UNL     1      -5.890  -2.321 -34.528  1.00  0.00    -0.034 A 
HETATM   31  C   UNL     1      -4.580  -2.596 -34.104  1.00  0.00     0.009 A 
HETATM   32  C   UNL     1      -4.101  -3.907 -34.079  1.00  0.00     0.001 A 
HETATM   33  C   UNL     1      -4.926  -4.959 -34.470  1.00  0.00     0.000 A 
HETATM   34  C   UNL     1      -6.234  -4.702 -34.878  1.00  0.00     0.001 A 
HETATM   35  C   UNL     1      -6.715  -3.392 -34.901  1.00  0.00     0.009 A 
ENDBRANCH  29  30
ENDBRANCH  28  29
ENDBRANCH  25  28
ENDBRANCH   1  22
TORSDOF 6
ENDMDL
MODEL 5
REMARK VINA RESULT:      -8.4      2.140      4.193
REMARK  6 active torsions:
REMARK  status: ('A' for Active; 'I' for Inactive)
REMARK    1  A    between atoms: C_4  and  C_5 
REMARK    2  A    between atoms: C_5  and  O_6 
REMARK    3  A    between atoms: O_6  and  C_7 
REMARK    4  A    between atoms: C_10  and  C_11 
REMARK    5  A    between atoms: C_17  and  C_18 
REMARK    6  A    between atoms: C_27  and  N_28 
ROOT
HETATM    1  C   UNL     1      -9.807   3.739 -31.948  1.00  0.00     0.072 A 
HETATM    2  N   UNL     1      -9.262   4.824 -31.290  1.00  0.00    -0.274 N 
HETATM    3  H   UNL     1      -8.279   5.053 -31.187  1.00  0.00     0.189 HD
HETATM    4  N   UNL     1     -10.168   5.633 -30.705  1.00  0.00    -0.148 NA
HETATM    5  C   UNL     1     -11.312   5.033 -31.000  1.00  0.00     0.199 A 
HETATM    6  C   UNL     1     -11.176   3.883 -31.783  1.00  0.00     0.040 A 
HETATM    7  C   UNL     1     -12.380   3.121 -32.212  1.00  0.00     0.107 A 
HETATM    8  C   UNL     1     -13.643   3.682 -31.567  1.00  0.00     0.081 A 
HETATM    9  C   UNL     1     -14.843   2.936 -31.763  1.00  0.00     0.100 C 
HETATM   10  N   UNL     1     -15.812   2.320 -31.932  1.00  0.00    -0.191 NA
HETATM   11  C   UNL     1     -13.644   4.805 -30.804  1.00  0.00     0.140 A 
HETATM   12  O   UNL     1     -12.476   5.535 -30.549  1.00  0.00    -0.277 OA
ENDROOT
BRANCH   7  13
HETATM   13  C   UNL     1     -12.416   3.185 -33.727  1.00  0.00    -0.027 A 
HETATM   14  C   UNL     1     -12.388   2.046 -34.534  1.00  0.00     0.124 A 
HETATM   15  N   UNL     1     -12.365   2.066 -35.886  1.00  0.00    -0.273 NA
HETATM   16  C   UNL     1     -12.367   3.279 -36.476  1.00  0.00     0.116 A 
HETATM   17  C   UNL     1     -12.393   4.473 -35.777  1.00  0.00     0.020 A 
HETATM   18  C   UNL     1     -12.415   4.423 -34.386  1.00  0.00     0.011 A 
ENDBRANCH   7  13
BRANCH  11  19
HETATM   19  N   UNL     1     -14.754   5.354 -30.199  1.00  0.00    -0.282 NA
HETATM   20  H   UNL     1     -15.101   4.864 -29.377  1.00  0.00     0.126 HD
HETATM   21  H   UNL     1     -15.487   5.574 -30.871  1.00  0.00     0.126 HD
ENDBRANCH  11  19
BRANCH   1  22
HETATM   22  C   UNL     1      -8.989   2.732 -32.617  1.00  0.00    -0.007 A 
HETATM   23  C   UNL     1      -7.985   3.109 -33.515  1.00  0.00     0.016 A 
HETATM   24  C   UNL     1      -7.204   2.140 -34.151  1.00  0.00     0.037 A 
HETATM   25  C   UNL     1      -7.414   0.782 -33.912  1.00  0.00     0.069 A 
HETATM   26  C   UNL     1      -8.424   0.397 -33.033  1.00  0.00     0.037 A 
HETATM   27  C   UNL     1      -9.201   1.366 -32.386  1.00  0.00     0.016 A 
BRANCH  25  28
HETATM   28  O   UNL     1      -6.570  -0.052 -34.589  1.00  0.00    -0.347 OA
BRANCH  28  29
HETATM   29  C   UNL     1      -5.553  -0.713 -33.831  1.00  0.00     0.214 C 
BRANCH  29  30
HETATM   30  C   UNL     1      -5.559  -2.189 -34.147  1.00  0.00    -0.034 A 
HETATM   31  C   UNL     1      -6.720  -2.795 -34.653  1.00  0.00     0.009 A 
HETATM   32  C   UNL     1      -6.732  -4.155 -34.970  1.00  0.00     0.001 A 
HETATM   33  C   UNL     1      -5.584  -4.923 -34.792  1.00  0.00     0.000 A 
HETATM   34  C   UNL     1      -4.420  -4.331 -34.306  1.00  0.00     0.001 A 
HETATM   35  C   UNL     1      -4.406  -2.971 -33.991  1.00  0.00     0.009 A 
ENDBRANCH  29  30
ENDBRANCH  28  29
ENDBRANCH  25  28
ENDBRANCH   1  22
TORSDOF 6
ENDMDL
MODEL 6
REMARK VINA RESULT:      -8.3      5.057      7.582
REMARK  6 active torsions:
REMARK  status: ('A' for Active; 'I' for Inactive)
REMARK    1  A    between atoms: C_4  and  C_5 
REMARK    2  A    between atoms: C_5  and  O_6 
REMARK    3  A    between atoms: O_6  and  C_7 
REMARK    4  A    between atoms: C_10  and  C_11 
REMARK    5  A    between atoms: C_17  and  C_18 
REMARK    6  A    between atoms: C_27  and  N_28 
ROOT
HETATM    1  C   UNL     1      -5.263   5.147 -29.314  1.00  0.00     0.072 A 
HETATM    2  N   UNL     1      -5.715   4.855 -28.043  1.00  0.00    -0.274 N 
HETATM    3  H   UNL     1      -6.241   4.039 -27.748  1.00  0.00     0.189 HD
HETATM    4  N   UNL     1      -5.434   5.798 -27.122  1.00  0.00    -0.148 NA
HETATM    5  C   UNL     1      -4.793   6.709 -27.838  1.00  0.00     0.199 A 
HETATM    6  C   UNL     1      -4.622   6.371 -29.184  1.00  0.00     0.040 A 
HETATM    7  C   UNL     1      -3.897   7.290 -30.102  1.00  0.00     0.107 A 
HETATM    8  C   UNL     1      -3.555   8.602 -29.407  1.00  0.00     0.081 A 
HETATM    9  C   UNL     1      -3.009   9.634 -30.228  1.00  0.00     0.100 C 
HETATM   10  N   UNL     1      -2.565  10.463 -30.907  1.00  0.00    -0.191 NA
HETATM   11  C   UNL     1      -3.790   8.821 -28.088  1.00  0.00     0.140 A 
HETATM   12  O   UNL     1      -4.370   7.849 -27.262  1.00  0.00    -0.277 OA
ENDROOT
BRANCH   7  13
HETATM   13  C   UNL     1      -2.668   6.541 -30.581  1.00  0.00    -0.027 A 
HETATM   14  C   UNL     1      -1.552   6.319 -29.770  1.00  0.00     0.124 A 
HETATM   15  N   UNL     1      -0.420   5.704 -30.178  1.00  0.00    -0.273 NA
HETATM   16  C   UNL     1      -0.384   5.285 -31.460  1.00  0.00     0.116 A 
HETATM   17  C   UNL     1      -1.428   5.451 -32.352  1.00  0.00     0.020 A 
HETATM   18  C   UNL     1      -2.582   6.089 -31.906  1.00  0.00     0.011 A 
ENDBRANCH   7  13
BRANCH  11  19
HETATM   19  N   UNL     1      -3.501   9.987 -27.411  1.00  0.00    -0.282 NA
HETATM   20  H   UNL     1      -2.674   9.964 -26.819  1.00  0.00     0.126 HD
HETATM   21  H   UNL     1      -4.319  10.370 -26.941  1.00  0.00     0.126 HD
ENDBRANCH  11  19
BRANCH   1  22
HETATM   22  C   UNL     1      -5.495   4.267 -30.455  1.00  0.00    -0.007 A 
HETATM   23  C   UNL     1      -4.570   3.273 -30.790  1.00  0.00     0.016 A 
HETATM   24  C   UNL     1      -4.798   2.431 -31.882  1.00  0.00     0.037 A 
HETATM   25  C   UNL     1      -5.946   2.569 -32.662  1.00  0.00     0.069 A 
HETATM   26  C   UNL     1      -6.865   3.567 -32.347  1.00  0.00     0.037 A 
HETATM   27  C   UNL     1      -6.643   4.406 -31.247  1.00  0.00     0.016 A 
BRANCH  25  28
HETATM   28  O   UNL     1      -6.049   1.671 -33.688  1.00  0.00    -0.347 OA
BRANCH  28  29
HETATM   29  C   UNL     1      -6.967   0.587 -33.522  1.00  0.00     0.214 C 
BRANCH  29  30
HETATM   30  C   UNL     1      -6.272  -0.719 -33.821  1.00  0.00    -0.034 A 
HETATM   31  C   UNL     1      -6.931  -1.713 -34.563  1.00  0.00     0.009 A 
HETATM   32  C   UNL     1      -6.290  -2.916 -34.865  1.00  0.00     0.001 A 
HETATM   33  C   UNL     1      -4.984  -3.138 -34.438  1.00  0.00     0.000 A 
HETATM   34  C   UNL     1      -4.312  -2.155 -33.715  1.00  0.00     0.001 A 
HETATM   35  C   UNL     1      -4.950  -0.950 -33.414  1.00  0.00     0.009 A 
ENDBRANCH  29  30
ENDBRANCH  28  29
ENDBRANCH  25  28
ENDBRANCH   1  22
TORSDOF 6
ENDMDL
MODEL 7
REMARK VINA RESULT:      -8.2      5.985      8.850
REMARK  6 active torsions:
REMARK  status: ('A' for Active; 'I' for Inactive)
REMARK    1  A    between atoms: C_4  and  C_5 
REMARK    2  A    between atoms: C_5  and  O_6 
REMARK    3  A    between atoms: O_6  and  C_7 
REMARK    4  A    between atoms: C_10  and  C_11 
REMARK    5  A    between atoms: C_17  and  C_18 
REMARK    6  A    between atoms: C_27  and  N_28 
ROOT
HETATM    1  C   UNL     1      -1.534   5.441 -31.356  1.00  0.00     0.072 A 
HETATM    2  N   UNL     1      -0.283   5.418 -31.939  1.00  0.00    -0.274 N 
HETATM    3  H   UNL     1       0.015   4.868 -32.738  1.00  0.00     0.189 HD
HETATM    4  N   UNL     1       0.628   6.205 -31.333  1.00  0.00    -0.148 NA
HETATM    5  C   UNL     1      -0.071   6.730 -30.338  1.00  0.00     0.199 A 
HETATM    6  C   UNL     1      -1.411   6.334 -30.302  1.00  0.00     0.040 A 
HETATM    7  C   UNL     1      -2.322   6.866 -29.253  1.00  0.00     0.107 A 
HETATM    8  C   UNL     1      -1.558   7.708 -28.238  1.00  0.00     0.081 A 
HETATM    9  C   UNL     1      -2.286   8.136 -27.087  1.00  0.00     0.100 C 
HETATM   10  N   UNL     1      -2.891   8.478 -26.159  1.00  0.00    -0.191 NA
HETATM   11  C   UNL     1      -0.241   8.010 -28.373  1.00  0.00     0.140 A 
HETATM   12  O   UNL     1       0.518   7.566 -29.464  1.00  0.00    -0.277 OA
ENDROOT
BRANCH   7  13
HETATM   13  C   UNL     1      -3.401   7.652 -29.974  1.00  0.00    -0.027 A 
HETATM   14  C   UNL     1      -3.160   8.888 -30.579  1.00  0.00     0.124 A 
HETATM   15  N   UNL     1      -4.106   9.641 -31.183  1.00  0.00    -0.273 NA
HETATM   16  C   UNL     1      -5.362   9.148 -31.191  1.00  0.00     0.116 A 
HETATM   17  C   UNL     1      -5.715   7.937 -30.624  1.00  0.00     0.020 A 
HETATM   18  C   UNL     1      -4.721   7.183 -30.006  1.00  0.00     0.011 A 
ENDBRANCH   7  13
BRANCH  11  19
HETATM   19  N   UNL     1       0.497   8.765 -27.487  1.00  0.00    -0.282 NA
HETATM   20  H   UNL     1       1.344   8.330 -27.130  1.00  0.00     0.126 HD
HETATM   21  H   UNL     1      -0.083   9.172 -26.754  1.00  0.00     0.126 HD
ENDBRANCH  11  19
BRANCH   1  22
HETATM   22  C   UNL     1      -2.647   4.634 -31.846  1.00  0.00    -0.007 A 
HETATM   23  C   UNL     1      -2.891   3.360 -31.324  1.00  0.00     0.016 A 
HETATM   24  C   UNL     1      -3.959   2.593 -31.796  1.00  0.00     0.037 A 
HETATM   25  C   UNL     1      -4.798   3.077 -32.800  1.00  0.00     0.069 A 
HETATM   26  C   UNL     1      -4.552   4.338 -33.339  1.00  0.00     0.037 A 
HETATM   27  C   UNL     1      -3.488   5.113 -32.860  1.00  0.00     0.016 A 
BRANCH  25  28
HETATM   28  O   UNL     1      -5.809   2.230 -33.155  1.00  0.00    -0.347 OA
BRANCH  28  29
HETATM   29  C   UNL     1      -6.019   1.078 -32.334  1.00  0.00     0.214 C 
BRANCH  29  30
HETATM   30  C   UNL     1      -5.880  -0.174 -33.167  1.00  0.00    -0.034 A 
HETATM   31  C   UNL     1      -4.635  -0.812 -33.275  1.00  0.00     0.009 A 
HETATM   32  C   UNL     1      -4.498  -1.982 -34.024  1.00  0.00     0.001 A 
HETATM   33  C   UNL     1      -5.604  -2.533 -34.667  1.00  0.00     0.000 A 
HETATM   34  C   UNL     1      -6.850  -1.919 -34.555  1.00  0.00     0.001 A 
HETATM   35  C   UNL     1      -6.988  -0.750 -33.805  1.00  0.00     0.009 A 
ENDBRANCH  29  30
ENDBRANCH  28  29
ENDBRANCH  25  28
ENDBRANCH   1  22
TORSDOF 6
ENDMDL
MODEL 8
REMARK VINA RESULT:      -8.2      5.166      8.617
REMARK  6 active torsions:
REMARK  status: ('A' for Active; 'I' for Inactive)
REMARK    1  A    between atoms: C_4  and  C_5 
REMARK    2  A    between atoms: C_5  and  O_6 
REMARK    3  A    between atoms: O_6  and  C_7 
REMARK    4  A    between atoms: C_10  and  C_11 
REMARK    5  A    between atoms: C_17  and  C_18 
REMARK    6  A    between atoms: C_27  and  N_28 
ROOT
HETATM    1  C   UNL     1      -3.743   1.915 -31.926  1.00  0.00     0.072 A 
HETATM    2  N   UNL     1      -2.939   1.083 -31.171  1.00  0.00    -0.274 N 
HETATM    3  H   UNL     1      -2.143   1.347 -30.599  1.00  0.00     0.189 HD
HETATM    4  N   UNL     1      -3.259  -0.224 -31.252  1.00  0.00    -0.148 NA
HETATM    5  C   UNL     1      -4.288  -0.211 -32.085  1.00  0.00     0.199 A 
HETATM    6  C   UNL     1      -4.664   1.064 -32.519  1.00  0.00     0.040 A 
HETATM    7  C   UNL     1      -5.822   1.233 -33.439  1.00  0.00     0.107 A 
HETATM    8  C   UNL     1      -6.359  -0.118 -33.897  1.00  0.00     0.081 A 
HETATM    9  C   UNL     1      -7.361  -0.094 -34.913  1.00  0.00     0.100 C 
HETATM   10  N   UNL     1      -8.175  -0.059 -35.738  1.00  0.00    -0.191 NA
HETATM   11  C   UNL     1      -5.895  -1.299 -33.413  1.00  0.00     0.140 A 
HETATM   12  O   UNL     1      -4.878  -1.363 -32.451  1.00  0.00    -0.277 OA
ENDROOT
BRANCH   7  13
HETATM   13  C   UNL     1      -6.854   2.052 -32.689  1.00  0.00    -0.027 A 
HETATM   14  C   UNL     1      -7.557   1.559 -31.587  1.00  0.00     0.124 A 
HETATM   15  N   UNL     1      -8.521   2.240 -30.927  1.00  0.00    -0.273 NA
HETATM   16  C   UNL     1      -8.811   3.477 -31.381  1.00  0.00     0.116 A 
HETATM   17  C   UNL     1      -8.180   4.065 -32.463  1.00  0.00     0.020 A 
HETATM   18  C   UNL     1      -7.192   3.341 -33.125  1.00  0.00     0.011 A 
ENDBRANCH   7  13
BRANCH  11  19
HETATM   19  N   UNL     1      -6.345  -2.546 -33.792  1.00  0.00    -0.282 NA
HETATM   20  H   UNL     1      -7.222  -2.565 -34.306  1.00  0.00     0.126 HD
HETATM   21  H   UNL     1      -6.317  -3.213 -33.023  1.00  0.00     0.126 HD
ENDBRANCH  11  19
BRANCH   1  22
HETATM   22  C   UNL     1      -3.539   3.358 -31.995  1.00  0.00    -0.007 A 
HETATM   23  C   UNL     1      -2.669   3.912 -32.939  1.00  0.00     0.016 A 
HETATM   24  C   UNL     1      -2.479   5.295 -33.003  1.00  0.00     0.037 A 
HETATM   25  C   UNL     1      -3.144   6.149 -32.123  1.00  0.00     0.069 A 
HETATM   26  C   UNL     1      -3.999   5.605 -31.167  1.00  0.00     0.037 A 
HETATM   27  C   UNL     1      -4.199   4.219 -31.108  1.00  0.00     0.016 A 
BRANCH  25  28
HETATM   28  O   UNL     1      -2.877   7.476 -32.306  1.00  0.00    -0.347 OA
BRANCH  28  29
HETATM   29  C   UNL     1      -1.505   7.880 -32.278  1.00  0.00     0.214 C 
BRANCH  29  30
HETATM   30  C   UNL     1      -0.955   7.717 -30.881  1.00  0.00    -0.034 A 
HETATM   31  C   UNL     1      -1.534   8.416 -29.810  1.00  0.00     0.009 A 
HETATM   32  C   UNL     1      -1.048   8.257 -28.511  1.00  0.00     0.001 A 
HETATM   33  C   UNL     1       0.015   7.393 -28.265  1.00  0.00     0.000 A 
HETATM   34  C   UNL     1       0.590   6.680 -29.315  1.00  0.00     0.001 A 
HETATM   35  C   UNL     1       0.103   6.836 -30.615  1.00  0.00     0.009 A 
ENDBRANCH  29  30
ENDBRANCH  28  29
ENDBRANCH  25  28
ENDBRANCH   1  22
TORSDOF 6
ENDMDL
MODEL 9
REMARK VINA RESULT:      -8.2      4.599      7.404
REMARK  6 active torsions:
REMARK  status: ('A' for Active; 'I' for Inactive)
REMARK    1  A    between atoms: C_4  and  C_5 
REMARK    2  A    between atoms: C_5  and  O_6 
REMARK    3  A    between atoms: O_6  and  C_7 
REMARK    4  A    between atoms: C_10  and  C_11 
REMARK    5  A    between atoms: C_17  and  C_18 
REMARK    6  A    between atoms: C_27  and  N_28 
ROOT
HETATM    1  C   UNL     1      -5.515   2.078 -32.972  1.00  0.00     0.072 A 
HETATM    2  N   UNL     1      -4.974   0.809 -32.902  1.00  0.00    -0.274 N 
HETATM    3  H   UNL     1      -3.995   0.551 -32.974  1.00  0.00     0.189 HD
HETATM    4  N   UNL     1      -5.882  -0.175 -32.751  1.00  0.00    -0.148 NA
HETATM    5  C   UNL     1      -7.024   0.496 -32.732  1.00  0.00     0.199 A 
HETATM    6  C   UNL     1      -6.881   1.883 -32.833  1.00  0.00     0.040 A 
HETATM    7  C   UNL     1      -8.078   2.765 -32.800  1.00  0.00     0.107 A 
HETATM    8  C   UNL     1      -9.363   1.946 -32.799  1.00  0.00     0.081 A 
HETATM    9  C   UNL     1     -10.583   2.673 -32.939  1.00  0.00     0.100 C 
HETATM   10  N   UNL     1     -11.566   3.278 -33.052  1.00  0.00    -0.191 NA
HETATM   11  C   UNL     1      -9.374   0.590 -32.717  1.00  0.00     0.140 A 
HETATM   12  O   UNL     1      -8.194  -0.161 -32.628  1.00  0.00    -0.277 OA
ENDROOT
BRANCH   7  13
HETATM   13  C   UNL     1      -7.938   3.639 -31.568  1.00  0.00    -0.027 A 
HETATM   14  C   UNL     1      -7.781   3.115 -30.282  1.00  0.00     0.124 A 
HETATM   15  N   UNL     1      -7.706   3.860 -29.157  1.00  0.00    -0.273 NA
HETATM   16  C   UNL     1      -7.793   5.198 -29.306  1.00  0.00     0.116 A 
HETATM   17  C   UNL     1      -7.950   5.825 -30.529  1.00  0.00     0.020 A 
HETATM   18  C   UNL     1      -8.025   5.034 -31.672  1.00  0.00     0.011 A 
ENDBRANCH   7  13
BRANCH  11  19
HETATM   19  N   UNL     1     -10.505  -0.198 -32.712  1.00  0.00    -0.282 NA
HETATM   20  H   UNL     1     -10.812  -0.528 -31.801  1.00  0.00     0.126 HD
HETATM   21  H   UNL     1     -10.459  -0.937 -33.411  1.00  0.00     0.126 HD
ENDBRANCH  11  19
BRANCH   1  22
HETATM   22  C   UNL     1      -4.698   3.272 -33.165  1.00  0.00    -0.007 A 
HETATM   23  C   UNL     1      -5.153   4.327 -33.963  1.00  0.00     0.016 A 
HETATM   24  C   UNL     1      -4.369   5.469 -34.143  1.00  0.00     0.037 A 
HETATM   25  C   UNL     1      -3.116   5.578 -33.538  1.00  0.00     0.069 A 
HETATM   26  C   UNL     1      -2.647   4.525 -32.756  1.00  0.00     0.037 A 
HETATM   27  C   UNL     1      -3.437   3.383 -32.566  1.00  0.00     0.016 A 
BRANCH  25  28
HETATM   28  O   UNL     1      -2.464   6.753 -33.786  1.00  0.00    -0.347 OA
BRANCH  28  29
HETATM   29  C   UNL     1      -1.066   6.803 -33.491  1.00  0.00     0.214 C 
BRANCH  29  30
HETATM   30  C   UNL     1      -0.864   7.198 -32.047  1.00  0.00    -0.034 A 
HETATM   31  C   UNL     1      -1.780   8.055 -31.417  1.00  0.00     0.009 A 
HETATM   32  C   UNL     1      -1.616   8.409 -30.077  1.00  0.00     0.001 A 
HETATM   33  C   UNL     1      -0.542   7.906 -29.348  1.00  0.00     0.000 A 
HETATM   34  C   UNL     1       0.367   7.042 -29.956  1.00  0.00     0.001 A 
HETATM   35  C   UNL     1       0.203   6.685 -31.296  1.00  0.00     0.009 A 
ENDBRANCH  29  30
ENDBRANCH  28  29
ENDBRANCH  25  28
ENDBRANCH   1  22
TORSDOF 6
ENDMDL
MODEL 10
REMARK VINA RESULT:      -8.1      5.444      8.473
REMARK  6 active torsions:
REMARK  status: ('A' for Active; 'I' for Inactive)
REMARK    1  A    between atoms: C_4  and  C_5 
REMARK    2  A    between atoms: C_5  and  O_6 
REMARK    3  A    between atoms: O_6  and  C_7 
REMARK    4  A    between atoms: C_10  and  C_11 
REMARK    5  A    between atoms: C_17  and  C_18 
REMARK    6  A    between atoms: C_27  and  N_28 
ROOT
HETATM    1  C   UNL     1      -6.477   5.523 -31.034  1.00  0.00     0.072 A 
HETATM    2  N   UNL     1      -7.808   5.893 -31.051  1.00  0.00    -0.274 N 
HETATM    3  H   UNL     1      -8.221   6.731 -30.653  1.00  0.00     0.189 HD
HETATM    4  N   UNL     1      -8.625   5.002 -31.647  1.00  0.00    -0.148 NA
HETATM    5  C   UNL     1      -7.784   4.045 -32.007  1.00  0.00     0.199 A 
HETATM    6  C   UNL     1      -6.446   4.303 -31.693  1.00  0.00     0.040 A 
HETATM    7  C   UNL     1      -5.386   3.326 -32.061  1.00  0.00     0.107 A 
HETATM    8  C   UNL     1      -5.992   2.052 -32.639  1.00  0.00     0.081 A 
HETATM    9  C   UNL     1      -5.093   0.969 -32.874  1.00  0.00     0.100 C 
HETATM   10  N   UNL     1      -4.351   0.098 -33.062  1.00  0.00    -0.191 NA
HETATM   11  C   UNL     1      -7.321   1.912 -32.883  1.00  0.00     0.140 A 
HETATM   12  O   UNL     1      -8.240   2.936 -32.617  1.00  0.00    -0.277 OA
ENDROOT
BRANCH   7  13
HETATM   13  C   UNL     1      -4.465   4.034 -33.037  1.00  0.00    -0.027 A 
HETATM   14  C   UNL     1      -4.926   4.644 -34.206  1.00  0.00     0.124 A 
HETATM   15  N   UNL     1      -4.130   5.236 -35.124  1.00  0.00    -0.273 NA
HETATM   16  C   UNL     1      -2.804   5.225 -34.877  1.00  0.00     0.116 A 
HETATM   17  C   UNL     1      -2.237   4.650 -33.754  1.00  0.00     0.020 A 
HETATM   18  C   UNL     1      -3.080   4.045 -32.825  1.00  0.00     0.011 A 
ENDBRANCH   7  13
BRANCH  11  19
HETATM   19  N   UNL     1      -7.919   0.785 -33.402  1.00  0.00    -0.282 NA
HETATM   20  H   UNL     1      -7.410  -0.087 -33.277  1.00  0.00     0.126 HD
HETATM   21  H   UNL     1      -8.239   0.927 -34.359  1.00  0.00     0.126 HD
ENDBRANCH  11  19
BRANCH   1  22
HETATM   22  C   UNL     1      -5.441   6.339 -30.408  1.00  0.00    -0.007 A 
HETATM   23  C   UNL     1      -5.021   6.079 -29.099  1.00  0.00     0.016 A 
HETATM   24  C   UNL     1      -4.027   6.862 -28.505  1.00  0.00     0.037 A 
HETATM   25  C   UNL     1      -3.441   7.920 -29.200  1.00  0.00     0.069 A 
HETATM   26  C   UNL     1      -3.865   8.197 -30.498  1.00  0.00     0.037 A 
HETATM   27  C   UNL     1      -4.855   7.407 -31.099  1.00  0.00     0.016 A 
BRANCH  25  28
HETATM   28  O   UNL     1      -2.474   8.590 -28.506  1.00  0.00    -0.347 OA
BRANCH  28  29
HETATM   29  C   UNL     1      -1.231   8.826 -29.172  1.00  0.00     0.214 C 
BRANCH  29  30
HETATM   30  C   UNL     1      -0.552   7.509 -29.465  1.00  0.00    -0.034 A 
HETATM   31  C   UNL     1      -0.372   7.090 -30.792  1.00  0.00     0.009 A 
HETATM   32  C   UNL     1       0.274   5.885 -31.075  1.00  0.00     0.001 A 
HETATM   33  C   UNL     1       0.754   5.090 -30.038  1.00  0.00     0.000 A 
HETATM   34  C   UNL     1       0.596   5.501 -28.716  1.00  0.00     0.001 A 
HETATM   35  C   UNL     1      -0.047   6.707 -28.431  1.00  0.00     0.009 A 
ENDBRANCH  29  30
ENDBRANCH  28  29
ENDBRANCH  25  28
ENDBRANCH   1  22
TORSDOF 6
ENDMDL
