MODEL 1
REMARK VINA RESULT:      -9.1      0.000      0.000
REMARK  5 active torsions:
REMARK  status: ('A' for Active; 'I' for Inactive)
REMARK    1  A    between atoms: C_2  and  C_3 
REMARK    2  A    between atoms: C_8  and  C_9 
REMARK       I    between atoms: C_9  and  N_10 
REMARK    3  A    between atoms: N_10  and  C_11 
REMARK    4  A    between atoms: C_11  and  C_12 
REMARK    5  A    between atoms: C_19  and  C_20 
ROOT
HETATM    1  C   UNL     1      -5.246   0.917 -32.026  1.00  0.00     0.118 C 
HETATM    2  N   UNL     1      -3.984   1.553 -32.417  1.00  0.00    -0.366 N 
HETATM    3  C   UNL     1      -3.787   2.844 -32.077  1.00  0.00     0.123 A 
HETATM    4  N   UNL     1      -4.835   3.712 -32.085  1.00  0.00    -0.240 N 
HETATM    5  N   UNL     1      -4.532   4.950 -31.664  1.00  0.00    -0.165 NA
HETATM    6  C   UNL     1      -3.194   4.889 -31.465  1.00  0.00     0.148 A 
HETATM    7  C   UNL     1      -2.690   3.582 -31.729  1.00  0.00     0.088 A 
HETATM    8  C   UNL     1      -6.167   3.321 -32.490  1.00  0.00     0.221 C 
HETATM    9  C   UNL     1      -6.463   1.872 -32.063  1.00  0.00     0.066 C 
HETATM   10  H   UNL     1      -3.189   0.915 -32.351  1.00  0.00     0.161 HD
ENDROOT
BRANCH   6  11
HETATM   11  C   UNL     1      -2.408   6.057 -31.035  1.00  0.00     0.272 C 
HETATM   12  N   UNL     1      -1.852   5.918 -29.784  1.00  0.00    -0.353 N 
HETATM   13  H   UNL     1      -2.186   5.120 -29.246  1.00  0.00     0.162 HD
HETATM   14  O   UNL     1      -2.281   7.063 -31.727  1.00  0.00    -0.266 OA
BRANCH  12  15
HETATM   15  C   UNL     1      -1.273   7.040 -29.077  1.00  0.00     0.155 C 
BRANCH  15  16
HETATM   16  C   UNL     1       0.158   6.735 -28.616  1.00  0.00     0.139 C 
HETATM   17  O   UNL     1       0.115   6.243 -27.258  1.00  0.00    -0.384 OA
HETATM   18  C   UNL     1       0.701   7.224 -26.391  1.00  0.00     0.168 C 
HETATM   19  C   UNL     1       0.830   8.500 -27.193  1.00  0.00     0.029 C 
HETATM   20  C   UNL     1       1.040   7.974 -28.590  1.00  0.00     0.035 C 
ENDBRANCH  15  16
ENDBRANCH  12  15
ENDBRANCH   6  11
BRANCH   8  21
HETATM   21  C   UNL     1      -6.335   3.530 -33.979  1.00  0.00     0.409 C 
HETATM   22  F   UNL     1      -7.438   4.253 -34.276  1.00  0.00    -0.169 F 
HETATM   23  F   UNL     1      -5.282   4.129 -34.570  1.00  0.00    -0.169 F 
HETATM   24  F   UNL     1      -6.493   2.327 -34.595  1.00  0.00    -0.169 F 
ENDBRANCH   8  21
BRANCH   1  25
HETATM   25  C   UNL     1      -5.471  -0.344 -32.842  1.00  0.00    -0.035 A 
HETATM   26  C   UNL     1      -6.772  -0.689 -33.247  1.00  0.00     0.010 A 
HETATM   27  C   UNL     1      -7.003  -1.845 -33.999  1.00  0.00     0.019 A 
HETATM   28  C   UNL     1      -5.934  -2.662 -34.357  1.00  0.00     0.011 A 
HETATM   29  C   UNL     1      -4.638  -2.334 -33.973  1.00  0.00     0.019 A 
HETATM   30 BR   UNL     1      -6.248  -4.228 -35.368  1.00  0.00    -0.051 Br
HETATM   31  C   UNL     1      -4.408  -1.180 -33.218  1.00  0.00     0.010 A 
ENDBRANCH   1  25
TORSDOF 5
ENDMDL
MODEL 2
REMARK VINA RESULT:      -8.9      2.569      3.452
REMARK  5 active torsions:
REMARK  status: ('A' for Active; 'I' for Inactive)
REMARK    1  A    between atoms: C_2  and  C_3 
REMARK    2  A    between atoms: C_8  and  C_9 
REMARK       I    between atoms: C_9  and  N_10 
REMARK    3  A    between atoms: N_10  and  C_11 
REMARK    4  A    between atoms: C_11  and  C_12 
REMARK    5  A    between atoms: C_19  and  C_20 
ROOT
HETATM    1  C   UNL     1      -4.803   0.244 -31.893  1.00  0.00     0.118 C 
HETATM    2  N   UNL     1      -4.676   1.484 -32.665  1.00  0.00    -0.366 N 
HETATM    3  C   UNL     1      -4.692   2.657 -31.998  1.00  0.00     0.123 A 
HETATM    4  N   UNL     1      -5.487   2.800 -30.903  1.00  0.00    -0.240 N 
HETATM    5  N   UNL     1      -5.367   3.985 -30.283  1.00  0.00    -0.165 NA
HETATM    6  C   UNL     1      -4.514   4.667 -31.084  1.00  0.00     0.148 A 
HETATM    7  C   UNL     1      -4.081   3.866 -32.180  1.00  0.00     0.088 A 
HETATM    8  C   UNL     1      -6.367   1.752 -30.436  1.00  0.00     0.221 C 
HETATM    9  C   UNL     1      -5.733   0.367 -30.663  1.00  0.00     0.066 C 
HETATM   10  H   UNL     1      -4.031   1.390 -33.451  1.00  0.00     0.161 HD
ENDROOT
BRANCH   6  11
HETATM   11  C   UNL     1      -4.123   6.060 -30.811  1.00  0.00     0.272 C 
HETATM   12  N   UNL     1      -3.609   6.713 -31.908  1.00  0.00    -0.353 N 
HETATM   13  H   UNL     1      -3.400   6.120 -32.709  1.00  0.00     0.162 HD
HETATM   14  O   UNL     1      -4.233   6.576 -29.703  1.00  0.00    -0.266 OA
BRANCH  12  15
HETATM   15  C   UNL     1      -2.929   7.985 -31.789  1.00  0.00     0.155 C 
BRANCH  15  16
HETATM   16  C   UNL     1      -1.544   7.947 -32.447  1.00  0.00     0.139 C 
HETATM   17  O   UNL     1      -1.708   7.708 -33.863  1.00  0.00    -0.384 OA
HETATM   18  C   UNL     1      -1.215   6.397 -34.173  1.00  0.00     0.168 C 
HETATM   19  C   UNL     1      -1.023   5.676 -32.856  1.00  0.00     0.029 C 
HETATM   20  C   UNL     1      -0.680   6.810 -31.924  1.00  0.00     0.035 C 
ENDBRANCH  15  16
ENDBRANCH  12  15
ENDBRANCH   6  11
BRANCH   8  21
HETATM   21  C   UNL     1      -7.720   1.883 -31.100  1.00  0.00     0.409 C 
HETATM   22  F   UNL     1      -7.646   2.493 -32.304  1.00  0.00    -0.169 F 
HETATM   23  F   UNL     1      -8.359   0.709 -31.276  1.00  0.00    -0.169 F 
HETATM   24  F   UNL     1      -8.534   2.656 -30.332  1.00  0.00    -0.169 F 
ENDBRANCH   8  21
BRANCH   1  25
HETATM   25  C   UNL     1      -5.196  -0.903 -32.807  1.00  0.00    -0.035 A 
HETATM   26  C   UNL     1      -4.229  -1.844 -33.201  1.00  0.00     0.010 A 
HETATM   27  C   UNL     1      -4.568  -2.908 -34.042  1.00  0.00     0.019 A 
HETATM   28  C   UNL     1      -5.879  -3.044 -34.491  1.00  0.00     0.011 A 
HETATM   29  C   UNL     1      -6.854  -2.128 -34.106  1.00  0.00     0.019 A 
HETATM   30 BR   UNL     1      -6.336  -4.479 -35.632  1.00  0.00    -0.051 Br
HETATM   31  C   UNL     1      -6.513  -1.062 -33.269  1.00  0.00     0.010 A 
ENDBRANCH   1  25
TORSDOF 5
ENDMDL
MODEL 3
REMARK VINA RESULT:      -8.8      6.565     10.184
REMARK  5 active torsions:
REMARK  status: ('A' for Active; 'I' for Inactive)
REMARK    1  A    between atoms: C_2  and  C_3 
REMARK    2  A    between atoms: C_8  and  C_9 
REMARK       I    between atoms: C_9  and  N_10 
REMARK    3  A    between atoms: N_10  and  C_11 
REMARK    4  A    between atoms: C_11  and  C_12 
REMARK    5  A    between atoms: C_19  and  C_20 
ROOT
HETATM    1  C   UNL     1      -7.206   2.644 -32.557  1.00  0.00     0.118 C 
HETATM    2  N   UNL     1      -8.271   2.788 -33.554  1.00  0.00    -0.366 N 
HETATM    3  C   UNL     1      -9.327   1.951 -33.486  1.00  0.00     0.123 A 
HETATM    4  N   UNL     1      -9.141   0.659 -33.102  1.00  0.00    -0.240 N 
HETATM    5  N   UNL     1     -10.272  -0.059 -33.005  1.00  0.00    -0.165 NA
HETATM    6  C   UNL     1     -11.221   0.802 -33.443  1.00  0.00     0.148 A 
HETATM    7  C   UNL     1     -10.659   2.071 -33.768  1.00  0.00     0.088 A 
HETATM    8  C   UNL     1      -7.835   0.117 -32.799  1.00  0.00     0.221 C 
HETATM    9  C   UNL     1      -6.945   1.180 -32.129  1.00  0.00     0.066 C 
HETATM   10  H   UNL     1      -8.450   3.764 -33.795  1.00  0.00     0.161 HD
ENDROOT
BRANCH   6  11
HETATM   11  C   UNL     1     -12.638   0.419 -33.555  1.00  0.00     0.272 C 
HETATM   12  N   UNL     1     -13.485   1.488 -33.742  1.00  0.00    -0.353 N 
HETATM   13  H   UNL     1     -13.063   2.405 -33.608  1.00  0.00     0.162 HD
HETATM   14  O   UNL     1     -13.020  -0.744 -33.471  1.00  0.00    -0.266 OA
BRANCH  12  15
HETATM   15  C   UNL     1     -14.920   1.355 -33.613  1.00  0.00     0.155 C 
BRANCH  15  16
HETATM   16  C   UNL     1     -15.400   1.779 -32.219  1.00  0.00     0.139 C 
HETATM   17  O   UNL     1     -16.781   2.193 -32.307  1.00  0.00    -0.384 OA
HETATM   18  C   UNL     1     -16.856   3.609 -32.090  1.00  0.00     0.168 C 
HETATM   19  C   UNL     1     -15.443   4.144 -32.178  1.00  0.00     0.029 C 
HETATM   20  C   UNL     1     -14.634   2.975 -31.676  1.00  0.00     0.035 C 
ENDBRANCH  15  16
ENDBRANCH  12  15
ENDBRANCH   6  11
BRANCH   8  21
HETATM   21  C   UNL     1      -7.210  -0.452 -34.053  1.00  0.00     0.409 C 
HETATM   22  F   UNL     1      -7.911  -0.138 -35.166  1.00  0.00    -0.169 F 
HETATM   23  F   UNL     1      -5.934  -0.066 -34.252  1.00  0.00    -0.169 F 
HETATM   24  F   UNL     1      -7.199  -1.811 -33.983  1.00  0.00    -0.169 F 
ENDBRANCH   8  21
BRANCH   1  25
HETATM   25  C   UNL     1      -5.945   3.343 -33.035  1.00  0.00    -0.035 A 
HETATM   26  C   UNL     1      -4.704   3.011 -32.463  1.00  0.00     0.010 A 
HETATM   27  C   UNL     1      -3.531   3.641 -32.885  1.00  0.00     0.019 A 
HETATM   28  C   UNL     1      -3.586   4.605 -33.890  1.00  0.00     0.011 A 
HETATM   29  C   UNL     1      -4.803   4.943 -34.474  1.00  0.00     0.019 A 
HETATM   30 BR   UNL     1      -2.000   5.461 -34.457  1.00  0.00    -0.051 Br
HETATM   31  C   UNL     1      -5.977   4.315 -34.048  1.00  0.00     0.010 A 
ENDBRANCH   1  25
TORSDOF 5
ENDMDL
MODEL 4
REMARK VINA RESULT:      -8.7      6.206      9.378
REMARK  5 active torsions:
REMARK  status: ('A' for Active; 'I' for Inactive)
REMARK    1  A    between atoms: C_2  and  C_3 
REMARK    2  A    between atoms: C_8  and  C_9 
REMARK       I    between atoms: C_9  and  N_10 
REMARK    3  A    between atoms: N_10  and  C_11 
REMARK    4  A    between atoms: C_11  and  C_12 
REMARK    5  A    between atoms: C_19  and  C_20 
ROOT
HETATM    1  C   UNL     1      -7.028   0.034 -34.387  1.00  0.00     0.118 C 
HETATM    2  N   UNL     1      -8.357  -0.272 -33.850  1.00  0.00    -0.366 N 
HETATM    3  C   UNL     1      -9.181   0.756 -33.557  1.00  0.00     0.123 A 
HETATM    4  N   UNL     1      -8.666   1.912 -33.055  1.00  0.00    -0.240 N 
HETATM    5  N   UNL     1      -9.572   2.886 -32.868  1.00  0.00    -0.165 NA
HETATM    6  C   UNL     1     -10.743   2.282 -33.183  1.00  0.00     0.148 A 
HETATM    7  C   UNL     1     -10.535   0.938 -33.607  1.00  0.00     0.088 A 
HETATM    8  C   UNL     1      -7.259   2.080 -32.773  1.00  0.00     0.221 C 
HETATM    9  C   UNL     1      -6.402   1.324 -33.805  1.00  0.00     0.066 C 
HETATM   10  H   UNL     1      -8.767  -1.106 -34.273  1.00  0.00     0.161 HD
ENDROOT
BRANCH   6  11
HETATM   11  C   UNL     1     -12.037   2.974 -33.076  1.00  0.00     0.272 C 
HETATM   12  N   UNL     1     -13.115   2.122 -33.013  1.00  0.00    -0.353 N 
HETATM   13  H   UNL     1     -12.910   1.146 -33.220  1.00  0.00     0.162 HD
HETATM   14  O   UNL     1     -12.137   4.198 -33.063  1.00  0.00    -0.266 OA
BRANCH  12  15
HETATM   15  C   UNL     1     -14.474   2.596 -33.170  1.00  0.00     0.155 C 
BRANCH  15  16
HETATM   16  C   UNL     1     -15.141   2.847 -31.812  1.00  0.00     0.139 C 
HETATM   17  O   UNL     1     -16.320   2.017 -31.711  1.00  0.00    -0.384 OA
HETATM   18  C   UNL     1     -17.483   2.856 -31.747  1.00  0.00     0.168 C 
HETATM   19  C   UNL     1     -17.024   4.226 -32.197  1.00  0.00     0.029 C 
HETATM   20  C   UNL     1     -15.620   4.282 -31.652  1.00  0.00     0.035 C 
ENDBRANCH  15  16
ENDBRANCH  12  15
ENDBRANCH   6  11
BRANCH   8  21
HETATM   21  C   UNL     1      -6.963   1.651 -31.353  1.00  0.00     0.409 C 
HETATM   22  F   UNL     1      -7.680   2.350 -30.444  1.00  0.00    -0.169 F 
HETATM   23  F   UNL     1      -7.177   0.340 -31.121  1.00  0.00    -0.169 F 
HETATM   24  F   UNL     1      -5.655   1.888 -31.066  1.00  0.00    -0.169 F 
ENDBRANCH   8  21
BRANCH   1  25
HETATM   25  C   UNL     1      -6.116  -1.171 -34.245  1.00  0.00    -0.035 A 
HETATM   26  C   UNL     1      -6.449  -2.377 -34.886  1.00  0.00     0.010 A 
HETATM   27  C   UNL     1      -5.624  -3.500 -34.769  1.00  0.00     0.019 A 
HETATM   28  C   UNL     1      -4.456  -3.424 -34.014  1.00  0.00     0.011 A 
HETATM   29  C   UNL     1      -4.104  -2.238 -33.378  1.00  0.00     0.019 A 
HETATM   30 BR   UNL     1      -3.345  -4.944 -33.851  1.00  0.00    -0.051 Br
HETATM   31  C   UNL     1      -4.931  -1.117 -33.493  1.00  0.00     0.010 A 
ENDBRANCH   1  25
TORSDOF 5
ENDMDL
MODEL 5
REMARK VINA RESULT:      -8.6      3.720      5.346
REMARK  5 active torsions:
REMARK  status: ('A' for Active; 'I' for Inactive)
REMARK    1  A    between atoms: C_2  and  C_3 
REMARK    2  A    between atoms: C_8  and  C_9 
REMARK       I    between atoms: C_9  and  N_10 
REMARK    3  A    between atoms: N_10  and  C_11 
REMARK    4  A    between atoms: C_11  and  C_12 
REMARK    5  A    between atoms: C_19  and  C_20 
ROOT
HETATM    1  C   UNL     1      -8.689   2.178 -34.249  1.00  0.00     0.118 C 
HETATM    2  N   UNL     1      -8.271   2.719 -32.953  1.00  0.00    -0.366 N 
HETATM    3  C   UNL     1      -6.951   2.769 -32.676  1.00  0.00     0.123 A 
HETATM    4  N   UNL     1      -6.130   1.776 -33.118  1.00  0.00    -0.240 N 
HETATM    5  N   UNL     1      -4.830   1.968 -32.842  1.00  0.00    -0.165 NA
HETATM    6  C   UNL     1      -4.837   3.102 -32.101  1.00  0.00     0.148 A 
HETATM    7  C   UNL     1      -6.156   3.624 -31.965  1.00  0.00     0.088 A 
HETATM    8  C   UNL     1      -6.620   0.627 -33.846  1.00  0.00     0.221 C 
HETATM    9  C   UNL     1      -7.796   1.021 -34.759  1.00  0.00     0.066 C 
HETATM   10  H   UNL     1      -8.851   3.504 -32.652  1.00  0.00     0.161 HD
ENDROOT
BRANCH   6  11
HETATM   11  C   UNL     1      -3.608   3.674 -31.530  1.00  0.00     0.272 C 
HETATM   12  N   UNL     1      -3.696   5.022 -31.268  1.00  0.00    -0.353 N 
HETATM   13  H   UNL     1      -4.516   5.487 -31.654  1.00  0.00     0.162 HD
HETATM   14  O   UNL     1      -2.597   3.008 -31.324  1.00  0.00    -0.266 OA
BRANCH  12  15
HETATM   15  C   UNL     1      -2.528   5.818 -30.956  1.00  0.00     0.155 C 
BRANCH  15  16
HETATM   16  C   UNL     1      -2.247   6.856 -32.050  1.00  0.00     0.139 C 
HETATM   17  O   UNL     1      -3.242   6.720 -33.088  1.00  0.00    -0.384 OA
HETATM   18  C   UNL     1      -2.612   6.208 -34.271  1.00  0.00     0.168 C 
HETATM   19  C   UNL     1      -1.241   5.715 -33.862  1.00  0.00     0.029 C 
HETATM   20  C   UNL     1      -0.900   6.644 -32.724  1.00  0.00     0.035 C 
ENDBRANCH  15  16
ENDBRANCH  12  15
ENDBRANCH   6  11
BRANCH   8  21
HETATM   21  C   UNL     1      -6.986  -0.477 -32.879  1.00  0.00     0.409 C 
HETATM   22  F   UNL     1      -5.923  -1.247 -32.551  1.00  0.00    -0.169 F 
HETATM   23  F   UNL     1      -7.541  -0.039 -31.731  1.00  0.00    -0.169 F 
HETATM   24  F   UNL     1      -7.893  -1.310 -33.456  1.00  0.00    -0.169 F 
ENDBRANCH   8  21
BRANCH   1  25
HETATM   25  C   UNL     1     -10.160   1.803 -34.209  1.00  0.00    -0.035 A 
HETATM   26  C   UNL     1     -11.100   2.595 -34.891  1.00  0.00     0.010 A 
HETATM   27  C   UNL     1     -12.459   2.270 -34.868  1.00  0.00     0.019 A 
HETATM   28  C   UNL     1     -12.890   1.146 -34.169  1.00  0.00     0.011 A 
HETATM   29  C   UNL     1     -11.974   0.343 -33.494  1.00  0.00     0.019 A 
HETATM   30 BR   UNL     1     -14.728   0.710 -34.133  1.00  0.00    -0.051 Br
HETATM   31  C   UNL     1     -10.616   0.672 -33.513  1.00  0.00     0.010 A 
ENDBRANCH   1  25
TORSDOF 5
ENDMDL
MODEL 6
REMARK VINA RESULT:      -8.6      2.975      3.679
REMARK  5 active torsions:
REMARK  status: ('A' for Active; 'I' for Inactive)
REMARK    1  A    between atoms: C_2  and  C_3 
REMARK    2  A    between atoms: C_8  and  C_9 
REMARK       I    between atoms: C_9  and  N_10 
REMARK    3  A    between atoms: N_10  and  C_11 
REMARK    4  A    between atoms: C_11  and  C_12 
REMARK    5  A    between atoms: C_19  and  C_20 
ROOT
HETATM    1  C   UNL     1      -6.445   1.484 -33.335  1.00  0.00     0.118 C 
HETATM    2  N   UNL     1      -6.125   2.888 -33.062  1.00  0.00    -0.366 N 
HETATM    3  C   UNL     1      -4.898   3.183 -32.584  1.00  0.00     0.123 A 
HETATM    4  N   UNL     1      -4.287   2.329 -31.718  1.00  0.00    -0.240 N 
HETATM    5  N   UNL     1      -3.043   2.693 -31.366  1.00  0.00    -0.165 NA
HETATM    6  C   UNL     1      -2.891   3.895 -31.971  1.00  0.00     0.148 A 
HETATM    7  C   UNL     1      -4.044   4.240 -32.734  1.00  0.00     0.088 A 
HETATM    8  C   UNL     1      -4.919   1.119 -31.242  1.00  0.00     0.221 C 
HETATM    9  C   UNL     1      -5.794   0.491 -32.342  1.00  0.00     0.066 C 
HETATM   10  H   UNL     1      -6.535   3.522 -33.749  1.00  0.00     0.161 HD
ENDROOT
BRANCH   6  11
HETATM   11  C   UNL     1      -1.670   4.702 -31.820  1.00  0.00     0.272 C 
HETATM   12  N   UNL     1      -1.287   4.883 -30.510  1.00  0.00    -0.353 N 
HETATM   13  H   UNL     1      -1.971   4.595 -29.813  1.00  0.00     0.162 HD
HETATM   14  O   UNL     1      -1.066   5.179 -32.776  1.00  0.00    -0.266 OA
BRANCH  12  15
HETATM   15  C   UNL     1      -0.279   5.853 -30.138  1.00  0.00     0.155 C 
BRANCH  15  16
HETATM   16  C   UNL     1      -0.459   6.321 -28.688  1.00  0.00     0.139 C 
HETATM   17  O   UNL     1      -1.225   7.546 -28.686  1.00  0.00    -0.384 OA
HETATM   18  C   UNL     1      -0.372   8.627 -28.282  1.00  0.00     0.168 C 
HETATM   19  C   UNL     1       1.049   8.109 -28.333  1.00  0.00     0.029 C 
HETATM   20  C   UNL     1       0.863   6.648 -28.011  1.00  0.00     0.035 C 
ENDBRANCH  15  16
ENDBRANCH  12  15
ENDBRANCH   6  11
BRANCH   8  21
HETATM   21  C   UNL     1      -5.699   1.409 -29.979  1.00  0.00     0.409 C 
HETATM   22  F   UNL     1      -7.028   1.507 -30.207  1.00  0.00    -0.169 F 
HETATM   23  F   UNL     1      -5.518   0.498 -29.002  1.00  0.00    -0.169 F 
HETATM   24  F   UNL     1      -5.313   2.608 -29.467  1.00  0.00    -0.169 F 
ENDBRANCH   8  21
BRANCH   1  25
HETATM   25  C   UNL     1      -7.949   1.301 -33.439  1.00  0.00    -0.035 A 
HETATM   26  C   UNL     1      -8.720   2.248 -34.134  1.00  0.00     0.010 A 
HETATM   27  C   UNL     1     -10.106   2.101 -34.242  1.00  0.00     0.019 A 
HETATM   28  C   UNL     1     -10.732   1.000 -33.662  1.00  0.00     0.011 A 
HETATM   29  C   UNL     1      -9.986   0.047 -32.976  1.00  0.00     0.019 A 
HETATM   30 BR   UNL     1     -12.606   0.805 -33.804  1.00  0.00    -0.051 Br
HETATM   31  C   UNL     1      -8.600   0.197 -32.865  1.00  0.00     0.010 A 
ENDBRANCH   1  25
TORSDOF 5
ENDMDL
MODEL 7
REMARK VINA RESULT:      -8.5      4.507      9.223
REMARK  5 active torsions:
REMARK  status: ('A' for Active; 'I' for Inactive)
REMARK    1  A    between atoms: C_2  and  C_3 
REMARK    2  A    between atoms: C_8  and  C_9 
REMARK       I    between atoms: C_9  and  N_10 
REMARK    3  A    between atoms: N_10  and  C_11 
REMARK    4  A    between atoms: C_11  and  C_12 
REMARK    5  A    between atoms: C_19  and  C_20 
ROOT
HETATM    1  C   UNL     1      -1.042   5.249 -30.458  1.00  0.00     0.118 C 
HETATM    2  N   UNL     1      -2.505   5.278 -30.372  1.00  0.00    -0.366 N 
HETATM    3  C   UNL     1      -3.216   4.737 -31.383  1.00  0.00     0.123 A 
HETATM    4  N   UNL     1      -2.764   4.849 -32.662  1.00  0.00    -0.240 N 
HETATM    5  N   UNL     1      -3.518   4.213 -33.574  1.00  0.00    -0.165 NA
HETATM    6  C   UNL     1      -4.558   3.747 -32.842  1.00  0.00     0.148 A 
HETATM    7  C   UNL     1      -4.407   4.071 -31.463  1.00  0.00     0.088 A 
HETATM    8  C   UNL     1      -1.560   5.573 -33.002  1.00  0.00     0.221 C 
HETATM    9  C   UNL     1      -0.499   5.415 -31.898  1.00  0.00     0.066 C 
HETATM   10  H   UNL     1      -2.843   5.132 -29.419  1.00  0.00     0.161 HD
ENDROOT
BRANCH   6  11
HETATM   11  C   UNL     1      -5.678   3.011 -33.449  1.00  0.00     0.272 C 
HETATM   12  N   UNL     1      -5.682   1.667 -33.151  1.00  0.00    -0.353 N 
HETATM   13  H   UNL     1      -4.835   1.319 -32.704  1.00  0.00     0.162 HD
HETATM   14  O   UNL     1      -6.516   3.549 -34.167  1.00  0.00    -0.266 OA
BRANCH  12  15
HETATM   15  C   UNL     1      -6.534   0.732 -33.854  1.00  0.00     0.155 C 
BRANCH  15  16
HETATM   16  C   UNL     1      -6.523  -0.649 -33.185  1.00  0.00     0.139 C 
HETATM   17  O   UNL     1      -5.176  -0.949 -32.756  1.00  0.00    -0.384 OA
HETATM   18  C   UNL     1      -4.659  -2.015 -33.564  1.00  0.00     0.168 C 
HETATM   19  C   UNL     1      -5.600  -2.176 -34.738  1.00  0.00     0.029 C 
HETATM   20  C   UNL     1      -6.921  -1.764 -34.140  1.00  0.00     0.035 C 
ENDBRANCH  15  16
ENDBRANCH  12  15
ENDBRANCH   6  11
BRANCH   8  21
HETATM   21  C   UNL     1      -1.891   7.023 -33.279  1.00  0.00     0.409 C 
HETATM   22  F   UNL     1      -2.959   7.452 -32.569  1.00  0.00    -0.169 F 
HETATM   23  F   UNL     1      -0.873   7.873 -33.040  1.00  0.00    -0.169 F 
HETATM   24  F   UNL     1      -2.223   7.174 -34.590  1.00  0.00    -0.169 F 
ENDBRANCH   8  21
BRANCH   1  25
HETATM   25  C   UNL     1      -0.441   6.255 -29.491  1.00  0.00    -0.035 A 
HETATM   26  C   UNL     1       0.567   5.848 -28.600  1.00  0.00     0.010 A 
HETATM   27  C   UNL     1       1.135   6.755 -27.701  1.00  0.00     0.019 A 
HETATM   28  C   UNL     1       0.703   8.079 -27.689  1.00  0.00     0.011 A 
HETATM   29  C   UNL     1      -0.288   8.504 -28.568  1.00  0.00     0.019 A 
HETATM   30 BR   UNL     1       1.467   9.304 -26.470  1.00  0.00    -0.051 Br
HETATM   31  C   UNL     1      -0.858   7.595 -29.465  1.00  0.00     0.010 A 
ENDBRANCH   1  25
TORSDOF 5
ENDMDL
MODEL 8
REMARK VINA RESULT:      -8.4      1.471      2.371
REMARK  5 active torsions:
REMARK  status: ('A' for Active; 'I' for Inactive)
REMARK    1  A    between atoms: C_2  and  C_3 
REMARK    2  A    between atoms: C_8  and  C_9 
REMARK       I    between atoms: C_9  and  N_10 
REMARK    3  A    between atoms: N_10  and  C_11 
REMARK    4  A    between atoms: C_11  and  C_12 
REMARK    5  A    between atoms: C_19  and  C_20 
ROOT
HETATM    1  C   UNL     1      -5.234   0.980 -32.036  1.00  0.00     0.118 C 
HETATM    2  N   UNL     1      -3.950   1.563 -32.432  1.00  0.00    -0.366 N 
HETATM    3  C   UNL     1      -3.701   2.847 -32.100  1.00  0.00     0.123 A 
HETATM    4  N   UNL     1      -4.714   3.756 -32.109  1.00  0.00    -0.240 N 
HETATM    5  N   UNL     1      -4.361   4.983 -31.694  1.00  0.00    -0.165 NA
HETATM    6  C   UNL     1      -3.026   4.870 -31.498  1.00  0.00     0.148 A 
HETATM    7  C   UNL     1      -2.575   3.543 -31.757  1.00  0.00     0.088 A 
HETATM    8  C   UNL     1      -6.061   3.416 -32.509  1.00  0.00     0.221 C 
HETATM    9  C   UNL     1      -6.413   1.982 -32.075  1.00  0.00     0.066 C 
HETATM   10  H   UNL     1      -3.180   0.895 -32.365  1.00  0.00     0.161 HD
ENDROOT
BRANCH   6  11
HETATM   11  C   UNL     1      -2.194   6.008 -31.075  1.00  0.00     0.272 C 
HETATM   12  N   UNL     1      -2.223   6.239 -29.719  1.00  0.00    -0.353 N 
HETATM   13  H   UNL     1      -2.934   5.722 -29.205  1.00  0.00     0.162 HD
HETATM   14  O   UNL     1      -1.551   6.691 -31.867  1.00  0.00    -0.266 OA
BRANCH  12  15
HETATM   15  C   UNL     1      -1.692   7.455 -29.141  1.00  0.00     0.155 C 
BRANCH  15  16
HETATM   16  C   UNL     1      -2.801   8.481 -28.873  1.00  0.00     0.139 C 
HETATM   17  O   UNL     1      -3.872   8.267 -29.819  1.00  0.00    -0.384 OA
HETATM   18  C   UNL     1      -3.914   9.374 -30.730  1.00  0.00     0.168 C 
HETATM   19  C   UNL     1      -2.631  10.152 -30.538  1.00  0.00     0.029 C 
HETATM   20  C   UNL     1      -2.334   9.913 -29.080  1.00  0.00     0.035 C 
ENDBRANCH  15  16
ENDBRANCH  12  15
ENDBRANCH   6  11
BRANCH   8  21
HETATM   21  C   UNL     1      -6.224   3.625 -33.998  1.00  0.00     0.409 C 
HETATM   22  F   UNL     1      -5.212   4.347 -34.531  1.00  0.00    -0.169 F 
HETATM   23  F   UNL     1      -6.324   2.480 -34.704  1.00  0.00    -0.169 F 
HETATM   24  F   UNL     1      -7.362   4.330 -34.240  1.00  0.00    -0.169 F 
ENDBRANCH   8  21
BRANCH   1  25
HETATM   25  C   UNL     1      -5.511  -0.275 -32.846  1.00  0.00    -0.035 A 
HETATM   26  C   UNL     1      -4.459  -1.158 -33.145  1.00  0.00     0.010 A 
HETATM   27  C   UNL     1      -4.689  -2.318 -33.889  1.00  0.00     0.019 A 
HETATM   28  C   UNL     1      -5.976  -2.610 -34.335  1.00  0.00     0.011 A 
HETATM   29  C   UNL     1      -7.033  -1.753 -34.043  1.00  0.00     0.019 A 
HETATM   30 BR   UNL     1      -6.286  -4.176 -35.345  1.00  0.00    -0.051 Br
HETATM   31  C   UNL     1      -6.801  -0.591 -33.302  1.00  0.00     0.010 A 
ENDBRANCH   1  25
TORSDOF 5
ENDMDL
MODEL 9
REMARK VINA RESULT:      -8.3      6.308     10.801
REMARK  5 active torsions:
REMARK  status: ('A' for Active; 'I' for Inactive)
REMARK    1  A    between atoms: C_2  and  C_3 
REMARK    2  A    between atoms: C_8  and  C_9 
REMARK       I    between atoms: C_9  and  N_10 
REMARK    3  A    between atoms: N_10  and  C_11 
REMARK    4  A    between atoms: C_11  and  C_12 
REMARK    5  A    between atoms: C_19  and  C_20 
ROOT
HETATM    1  C   UNL     1       0.518   9.168 -27.597  1.00  0.00     0.118 C 
HETATM    2  N   UNL     1       0.974   7.885 -28.139  1.00  0.00    -0.366 N 
HETATM    3  C   UNL     1       0.149   7.211 -28.968  1.00  0.00     0.123 A 
HETATM    4  N   UNL     1      -1.195   7.242 -28.755  1.00  0.00    -0.240 N 
HETATM    5  N   UNL     1      -1.917   6.593 -29.682  1.00  0.00    -0.165 NA
HETATM    6  C   UNL     1      -0.972   6.041 -30.479  1.00  0.00     0.148 A 
HETATM    7  C   UNL     1       0.340   6.398 -30.050  1.00  0.00     0.088 A 
HETATM    8  C   UNL     1      -1.790   7.937 -27.636  1.00  0.00     0.221 C 
HETATM    9  C   UNL     1      -1.001   9.218 -27.308  1.00  0.00     0.066 C 
HETATM   10  H   UNL     1       1.972   7.885 -28.355  1.00  0.00     0.161 HD
ENDROOT
BRANCH   6  11
HETATM   11  C   UNL     1      -1.312   5.185 -31.626  1.00  0.00     0.272 C 
HETATM   12  N   UNL     1      -1.095   5.784 -32.846  1.00  0.00    -0.353 N 
HETATM   13  H   UNL     1      -0.898   6.783 -32.811  1.00  0.00     0.162 HD
HETATM   14  O   UNL     1      -1.763   4.050 -31.498  1.00  0.00    -0.266 OA
BRANCH  12  15
HETATM   15  C   UNL     1      -1.608   5.219 -34.076  1.00  0.00     0.155 C 
BRANCH  15  16
HETATM   16  C   UNL     1      -2.837   5.987 -34.578  1.00  0.00     0.139 C 
HETATM   17  O   UNL     1      -3.507   6.585 -33.447  1.00  0.00    -0.384 OA
HETATM   18  C   UNL     1      -4.765   5.924 -33.249  1.00  0.00     0.168 C 
HETATM   19  C   UNL     1      -4.738   4.667 -34.092  1.00  0.00     0.029 C 
HETATM   20  C   UNL     1      -3.860   5.081 -35.245  1.00  0.00     0.035 C 
ENDBRANCH  15  16
ENDBRANCH  12  15
ENDBRANCH   6  11
BRANCH   8  21
HETATM   21  C   UNL     1      -1.897   7.006 -26.448  1.00  0.00     0.409 C 
HETATM   22  F   UNL     1      -1.015   5.983 -26.515  1.00  0.00    -0.169 F 
HETATM   23  F   UNL     1      -1.727   7.614 -25.258  1.00  0.00    -0.169 F 
HETATM   24  F   UNL     1      -3.133   6.439 -26.422  1.00  0.00    -0.169 F 
ENDBRANCH   8  21
BRANCH   1  25
HETATM   25  C   UNL     1       1.353   9.551 -26.387  1.00  0.00    -0.035 A 
HETATM   26  C   UNL     1       2.223   8.608 -25.814  1.00  0.00     0.010 A 
HETATM   27  C   UNL     1       3.001   8.937 -24.700  1.00  0.00     0.019 A 
HETATM   28  C   UNL     1       2.920  10.216 -24.154  1.00  0.00     0.011 A 
HETATM   29  C   UNL     1       2.071  11.167 -24.712  1.00  0.00     0.019 A 
HETATM   30 BR   UNL     1       3.967  10.660 -22.645  1.00  0.00    -0.051 Br
HETATM   31  C   UNL     1       1.290  10.835 -25.823  1.00  0.00     0.010 A 
ENDBRANCH   1  25
TORSDOF 5
ENDMDL
MODEL 10
REMARK VINA RESULT:      -8.2      6.264      8.718
REMARK  5 active torsions:
REMARK  status: ('A' for Active; 'I' for Inactive)
REMARK    1  A    between atoms: C_2  and  C_3 
REMARK    2  A    between atoms: C_8  and  C_9 
REMARK       I    between atoms: C_9  and  N_10 
REMARK    3  A    between atoms: N_10  and  C_11 
REMARK    4  A    between atoms: C_11  and  C_12 
REMARK    5  A    between atoms: C_19  and  C_20 
ROOT
HETATM    1  C   UNL     1      -7.014   0.060 -34.655  1.00  0.00     0.118 C 
HETATM    2  N   UNL     1      -8.365  -0.198 -34.148  1.00  0.00    -0.366 N 
HETATM    3  C   UNL     1      -9.166   0.859 -33.897  1.00  0.00     0.123 A 
HETATM    4  N   UNL     1      -8.632   2.009 -33.403  1.00  0.00    -0.240 N 
HETATM    5  N   UNL     1      -9.513   3.012 -33.260  1.00  0.00    -0.165 NA
HETATM    6  C   UNL     1     -10.692   2.436 -33.595  1.00  0.00     0.148 A 
HETATM    7  C   UNL     1     -10.512   1.078 -33.987  1.00  0.00     0.088 A 
HETATM    8  C   UNL     1      -7.228   2.143 -33.086  1.00  0.00     0.221 C 
HETATM    9  C   UNL     1      -6.366   1.342 -34.080  1.00  0.00     0.066 C 
HETATM   10  H   UNL     1      -8.787  -1.028 -34.567  1.00  0.00     0.161 HD
ENDROOT
BRANCH   6  11
HETATM   11  C   UNL     1     -11.968   3.167 -33.537  1.00  0.00     0.272 C 
HETATM   12  N   UNL     1     -12.906   2.576 -32.721  1.00  0.00    -0.353 N 
HETATM   13  H   UNL     1     -12.675   1.636 -32.403  1.00  0.00     0.162 HD
HETATM   14  O   UNL     1     -12.174   4.196 -34.173  1.00  0.00    -0.266 OA
BRANCH  12  15
HETATM   15  C   UNL     1     -14.294   2.985 -32.734  1.00  0.00     0.155 C 
BRANCH  15  16
HETATM   16  C   UNL     1     -14.717   3.579 -31.384  1.00  0.00     0.139 C 
HETATM   17  O   UNL     1     -15.811   4.497 -31.601  1.00  0.00    -0.384 OA
HETATM   18  C   UNL     1     -15.352   5.834 -31.351  1.00  0.00     0.168 C 
HETATM   19  C   UNL     1     -13.842   5.774 -31.278  1.00  0.00     0.029 C 
HETATM   20  C   UNL     1     -13.608   4.390 -30.730  1.00  0.00     0.035 C 
ENDBRANCH  15  16
ENDBRANCH  12  15
ENDBRANCH   6  11
BRANCH   8  21
HETATM   21  C   UNL     1      -6.983   1.733 -31.651  1.00  0.00     0.409 C 
HETATM   22  F   UNL     1      -7.929   2.211 -30.811  1.00  0.00    -0.169 F 
HETATM   23  F   UNL     1      -6.908   0.400 -31.466  1.00  0.00    -0.169 F 
HETATM   24  F   UNL     1      -5.800   2.251 -31.223  1.00  0.00    -0.169 F 
ENDBRANCH   8  21
BRANCH   1  25
HETATM   25  C   UNL     1      -6.141  -1.168 -34.464  1.00  0.00    -0.035 A 
HETATM   26  C   UNL     1      -4.929  -1.059 -33.760  1.00  0.00     0.010 A 
HETATM   27  C   UNL     1      -4.109  -2.176 -33.572  1.00  0.00     0.019 A 
HETATM   28  C   UNL     1      -4.497  -3.412 -34.082  1.00  0.00     0.011 A 
HETATM   29  C   UNL     1      -5.696  -3.543 -34.776  1.00  0.00     0.019 A 
HETATM   30 BR   UNL     1      -3.385  -4.920 -33.834  1.00  0.00    -0.051 Br
HETATM   31  C   UNL     1      -6.513  -2.425 -34.967  1.00  0.00     0.010 A 
ENDBRANCH   1  25
TORSDOF 5
ENDMDL
