MODEL 1
REMARK VINA RESULT:      -8.1      0.000      0.000
REMARK  6 active torsions:
REMARK  status: ('A' for Active; 'I' for Inactive)
REMARK    1  A    between atoms: C_2  and  N_3 
REMARK    2  A    between atoms: C_5  and  C_6 
REMARK    3  A    between atoms: C_6  and  N_7 
REMARK       I    between atoms: N_7  and  C_8 
REMARK    4  A    between atoms: C_8  and  C_9 
REMARK    5  A    between atoms: C_9  and  C_10 
REMARK    6  A    between atoms: C_11  and  C_12 
ROOT
HETATM    1  C   UNL     1      -5.393   1.770 -31.487  1.00  0.00     0.006 A 
HETATM    2  C   UNL     1      -5.806   0.393 -31.492  1.00  0.00     0.096 A 
HETATM    3  N   UNL     1      -6.422   0.070 -30.349  1.00  0.00    -0.173 NA
HETATM    4  N   UNL     1      -6.406   1.187 -29.622  1.00  0.00    -0.282 N 
HETATM    5  H   UNL     1      -6.833   1.158 -28.702  1.00  0.00     0.189 HD
HETATM    6  C   UNL     1      -5.831   2.251 -30.259  1.00  0.00     0.033 A 
HETATM    7  C   UNL     1      -5.788   3.584 -29.616  1.00  0.00     0.070 C 
ENDROOT
BRANCH   1   8
HETATM    8  C   UNL     1      -4.744   2.504 -32.619  1.00  0.00     0.146 C 
BRANCH   8   9
HETATM    9  C   UNL     1      -3.500   3.286 -32.219  1.00  0.00     0.222 C 
HETATM   10  N   UNL     1      -3.367   4.515 -32.834  1.00  0.00    -0.359 N 
HETATM   11  H   UNL     1      -4.035   4.737 -33.569  1.00  0.00     0.162 HD
HETATM   12  O   UNL     1      -2.681   2.880 -31.393  1.00  0.00    -0.273 OA
BRANCH  10  13
HETATM   13  C   UNL     1      -2.240   5.434 -32.684  1.00  0.00     0.155 C 
BRANCH  13  14
HETATM   14  C   UNL     1      -2.245   6.312 -31.418  1.00  0.00     0.206 C 
HETATM   15  N   UNL     1      -1.498   5.757 -30.212  1.00  0.00    -0.066 N 
HETATM   16  H   UNL     1      -2.096   4.972 -29.869  1.00  0.00     0.280 HD
HETATM   17  C   UNL     1      -1.502   6.918 -29.249  1.00  0.00     0.235 C 
HETATM   18  C   UNL     1      -1.446   8.164 -30.132  1.00  0.00     0.030 C 
HETATM   19  C   UNL     1      -1.621   7.687 -31.571  1.00  0.00     0.036 C 
BRANCH  15  20
HETATM   20  C   UNL     1      -0.136   5.151 -30.446  1.00  0.00     0.231 C 
HETATM   21  C   UNL     1       0.715   5.231 -29.189  1.00  0.00     0.034 C 
ENDBRANCH  15  20
ENDBRANCH  13  14
ENDBRANCH  10  13
ENDBRANCH   8   9
ENDBRANCH   1   8
BRANCH   2  22
HETATM   22  C   UNL     1      -5.689  -0.604 -32.555  1.00  0.00    -0.005 A 
HETATM   23  C   UNL     1      -4.492  -1.302 -32.767  1.00  0.00     0.017 A 
HETATM   24  C   UNL     1      -4.406  -2.254 -33.787  1.00  0.00     0.043 A 
HETATM   25  C   UNL     1      -5.518  -2.512 -34.582  1.00  0.00     0.116 A 
HETATM   26  F   UNL     1      -5.431  -3.426 -35.557  1.00  0.00    -0.206 F 
HETATM   27  C   UNL     1      -6.716  -1.842 -34.377  1.00  0.00     0.043 A 
HETATM   28  C   UNL     1      -6.803  -0.890 -33.360  1.00  0.00     0.017 A 
ENDBRANCH   2  22
TORSDOF 6
ENDMDL
MODEL 2
REMARK VINA RESULT:      -8.1      2.268      3.520
REMARK  6 active torsions:
REMARK  status: ('A' for Active; 'I' for Inactive)
REMARK    1  A    between atoms: C_2  and  N_3 
REMARK    2  A    between atoms: C_5  and  C_6 
REMARK    3  A    between atoms: C_6  and  N_7 
REMARK       I    between atoms: N_7  and  C_8 
REMARK    4  A    between atoms: C_8  and  C_9 
REMARK    5  A    between atoms: C_9  and  C_10 
REMARK    6  A    between atoms: C_11  and  C_12 
ROOT
HETATM    1  C   UNL     1      -7.140   0.168 -33.138  1.00  0.00     0.006 A 
HETATM    2  C   UNL     1      -7.021  -0.706 -34.273  1.00  0.00     0.096 A 
HETATM    3  N   UNL     1      -7.588  -0.166 -35.358  1.00  0.00    -0.173 NA
HETATM    4  N   UNL     1      -8.067   1.008 -34.949  1.00  0.00    -0.282 N 
HETATM    5  H   UNL     1      -8.543   1.588 -35.631  1.00  0.00     0.189 HD
HETATM    6  C   UNL     1      -7.805   1.282 -33.635  1.00  0.00     0.033 A 
HETATM    7  C   UNL     1      -8.212   2.574 -33.036  1.00  0.00     0.070 C 
ENDROOT
BRANCH   1   8
HETATM    8  C   UNL     1      -6.561  -0.065 -31.777  1.00  0.00     0.146 C 
BRANCH   8   9
HETATM    9  C   UNL     1      -5.080   0.270 -31.668  1.00  0.00     0.222 C 
HETATM   10  N   UNL     1      -4.730   1.509 -32.169  1.00  0.00    -0.359 N 
HETATM   11  H   UNL     1      -5.453   2.029 -32.659  1.00  0.00     0.162 HD
HETATM   12  O   UNL     1      -4.251  -0.481 -31.152  1.00  0.00    -0.273 OA
BRANCH  10  13
HETATM   13  C   UNL     1      -3.374   2.051 -32.251  1.00  0.00     0.155 C 
BRANCH  13  14
HETATM   14  C   UNL     1      -3.141   3.403 -31.552  1.00  0.00     0.206 C 
HETATM   15  N   UNL     1      -2.234   4.388 -32.280  1.00  0.00    -0.066 N 
HETATM   16  H   UNL     1      -1.275   3.986 -32.182  1.00  0.00     0.280 HD
HETATM   17  C   UNL     1      -2.390   5.652 -31.470  1.00  0.00     0.235 C 
HETATM   18  C   UNL     1      -3.828   5.615 -30.953  1.00  0.00     0.030 C 
HETATM   19  C   UNL     1      -4.384   4.239 -31.308  1.00  0.00     0.036 C 
BRANCH  15  20
HETATM   20  C   UNL     1      -2.444   4.574 -33.763  1.00  0.00     0.231 C 
HETATM   21  C   UNL     1      -1.365   5.468 -34.354  1.00  0.00     0.034 C 
ENDBRANCH  15  20
ENDBRANCH  13  14
ENDBRANCH  10  13
ENDBRANCH   8   9
ENDBRANCH   1   8
BRANCH   2  22
HETATM   22  C   UNL     1      -6.345  -1.997 -34.380  1.00  0.00    -0.005 A 
HETATM   23  C   UNL     1      -4.955  -2.104 -34.228  1.00  0.00     0.017 A 
HETATM   24  C   UNL     1      -4.332  -3.351 -34.330  1.00  0.00     0.043 A 
HETATM   25  C   UNL     1      -5.099  -4.486 -34.572  1.00  0.00     0.116 A 
HETATM   26  F   UNL     1      -4.497  -5.678 -34.668  1.00  0.00    -0.206 F 
HETATM   27  C   UNL     1      -6.478  -4.402 -34.711  1.00  0.00     0.043 A 
HETATM   28  C   UNL     1      -7.102  -3.157 -34.611  1.00  0.00     0.017 A 
ENDBRANCH   2  22
TORSDOF 6
ENDMDL
MODEL 3
REMARK VINA RESULT:      -8.0      2.781      4.323
REMARK  6 active torsions:
REMARK  status: ('A' for Active; 'I' for Inactive)
REMARK    1  A    between atoms: C_2  and  N_3 
REMARK    2  A    between atoms: C_5  and  C_6 
REMARK    3  A    between atoms: C_6  and  N_7 
REMARK       I    between atoms: N_7  and  C_8 
REMARK    4  A    between atoms: C_8  and  C_9 
REMARK    5  A    between atoms: C_9  and  C_10 
REMARK    6  A    between atoms: C_11  and  C_12 
ROOT
HETATM    1  C   UNL     1      -7.769   0.421 -33.060  1.00  0.00     0.006 A 
HETATM    2  C   UNL     1      -7.383  -0.415 -34.163  1.00  0.00     0.096 A 
HETATM    3  N   UNL     1      -8.015  -0.054 -35.286  1.00  0.00    -0.173 NA
HETATM    4  N   UNL     1      -8.789   0.971 -34.930  1.00  0.00    -0.282 N 
HETATM    5  H   UNL     1      -9.363   1.401 -35.648  1.00  0.00     0.189 HD
HETATM    6  C   UNL     1      -8.666   1.325 -33.615  1.00  0.00     0.033 A 
HETATM    7  C   UNL     1      -9.410   2.484 -33.071  1.00  0.00     0.070 C 
ENDROOT
BRANCH   1   8
HETATM    8  C   UNL     1      -7.215   0.365 -31.669  1.00  0.00     0.146 C 
BRANCH   8   9
HETATM    9  C   UNL     1      -6.446   1.613 -31.258  1.00  0.00     0.222 C 
HETATM   10  N   UNL     1      -5.422   1.969 -32.115  1.00  0.00    -0.359 N 
HETATM   11  H   UNL     1      -5.203   1.319 -32.865  1.00  0.00     0.162 HD
HETATM   12  O   UNL     1      -6.719   2.279 -30.258  1.00  0.00    -0.273 OA
BRANCH  10  13
HETATM   13  C   UNL     1      -4.489   3.078 -31.924  1.00  0.00     0.155 C 
BRANCH  13  14
HETATM   14  C   UNL     1      -3.866   3.668 -33.203  1.00  0.00     0.206 C 
HETATM   15  N   UNL     1      -4.754   4.605 -34.011  1.00  0.00    -0.066 N 
HETATM   16  H   UNL     1      -5.467   3.981 -34.451  1.00  0.00     0.280 HD
HETATM   17  C   UNL     1      -3.803   5.168 -35.039  1.00  0.00     0.235 C 
HETATM   18  C   UNL     1      -2.450   5.230 -34.332  1.00  0.00     0.030 C 
HETATM   19  C   UNL     1      -2.622   4.511 -32.997  1.00  0.00     0.036 C 
BRANCH  15  20
HETATM   20  C   UNL     1      -5.543   5.650 -33.260  1.00  0.00     0.231 C 
HETATM   21  C   UNL     1      -7.037   5.394 -33.386  1.00  0.00     0.034 C 
ENDBRANCH  15  20
ENDBRANCH  13  14
ENDBRANCH  10  13
ENDBRANCH   8   9
ENDBRANCH   1   8
BRANCH   2  22
HETATM   22  C   UNL     1      -6.402  -1.498 -34.204  1.00  0.00    -0.005 A 
HETATM   23  C   UNL     1      -6.744  -2.769 -34.686  1.00  0.00     0.017 A 
HETATM   24  C   UNL     1      -5.787  -3.787 -34.720  1.00  0.00     0.043 A 
HETATM   25  C   UNL     1      -4.491  -3.529 -34.284  1.00  0.00     0.116 A 
HETATM   26  F   UNL     1      -3.578  -4.507 -34.319  1.00  0.00    -0.206 F 
HETATM   27  C   UNL     1      -4.130  -2.272 -33.818  1.00  0.00     0.043 A 
HETATM   28  C   UNL     1      -5.085  -1.254 -33.782  1.00  0.00     0.017 A 
ENDBRANCH   2  22
TORSDOF 6
ENDMDL
MODEL 4
REMARK VINA RESULT:      -7.9      1.452      2.058
REMARK  6 active torsions:
REMARK  status: ('A' for Active; 'I' for Inactive)
REMARK    1  A    between atoms: C_2  and  N_3 
REMARK    2  A    between atoms: C_5  and  C_6 
REMARK    3  A    between atoms: C_6  and  N_7 
REMARK       I    between atoms: N_7  and  C_8 
REMARK    4  A    between atoms: C_8  and  C_9 
REMARK    5  A    between atoms: C_9  and  C_10 
REMARK    6  A    between atoms: C_11  and  C_12 
ROOT
HETATM    1  C   UNL     1      -6.505   2.121 -31.566  1.00  0.00     0.006 A 
HETATM    2  C   UNL     1      -6.229   0.715 -31.460  1.00  0.00     0.096 A 
HETATM    3  N   UNL     1      -6.205   0.324 -30.180  1.00  0.00    -0.173 NA
HETATM    4  N   UNL     1      -6.446   1.430 -29.478  1.00  0.00    -0.282 N 
HETATM    5  H   UNL     1      -6.472   1.351 -28.467  1.00  0.00     0.189 HD
HETATM    6  C   UNL     1      -6.664   2.537 -30.250  1.00  0.00     0.033 A 
HETATM    7  C   UNL     1      -7.009   3.836 -29.630  1.00  0.00     0.070 C 
ENDROOT
BRANCH   1   8
HETATM    8  C   UNL     1      -6.684   2.895 -32.836  1.00  0.00     0.146 C 
BRANCH   8   9
HETATM    9  C   UNL     1      -5.392   3.477 -33.395  1.00  0.00     0.222 C 
HETATM   10  N   UNL     1      -4.282   3.297 -32.592  1.00  0.00    -0.359 N 
HETATM   11  H   UNL     1      -4.442   2.902 -31.668  1.00  0.00     0.162 HD
HETATM   12  O   UNL     1      -5.320   4.043 -34.486  1.00  0.00    -0.273 OA
BRANCH  10  13
HETATM   13  C   UNL     1      -2.939   3.810 -32.854  1.00  0.00     0.155 C 
BRANCH  13  14
HETATM   14  C   UNL     1      -2.791   5.343 -32.875  1.00  0.00     0.206 C 
HETATM   15  N   UNL     1      -1.927   5.950 -31.776  1.00  0.00    -0.066 N 
HETATM   16  H   UNL     1      -2.498   5.853 -30.907  1.00  0.00     0.280 HD
HETATM   17  C   UNL     1      -1.806   7.393 -32.200  1.00  0.00     0.235 C 
HETATM   18  C   UNL     1      -1.825   7.358 -33.728  1.00  0.00     0.030 C 
HETATM   19  C   UNL     1      -2.163   5.925 -34.128  1.00  0.00     0.036 C 
BRANCH  15  20
HETATM   20  C   UNL     1      -0.609   5.282 -31.468  1.00  0.00     0.231 C 
HETATM   21  C   UNL     1       0.434   6.308 -31.054  1.00  0.00     0.034 C 
ENDBRANCH  15  20
ENDBRANCH  13  14
ENDBRANCH  10  13
ENDBRANCH   8   9
ENDBRANCH   1   8
BRANCH   2  22
HETATM   22  C   UNL     1      -6.047  -0.275 -32.520  1.00  0.00    -0.005 A 
HETATM   23  C   UNL     1      -7.124  -0.702 -33.309  1.00  0.00     0.017 A 
HETATM   24  C   UNL     1      -6.923  -1.646 -34.319  1.00  0.00     0.043 A 
HETATM   25  C   UNL     1      -5.647  -2.153 -34.544  1.00  0.00     0.116 A 
HETATM   26  F   UNL     1      -5.459  -3.056 -35.514  1.00  0.00    -0.206 F 
HETATM   27  C   UNL     1      -4.565  -1.731 -33.784  1.00  0.00     0.043 A 
HETATM   28  C   UNL     1      -4.764  -0.789 -32.772  1.00  0.00     0.017 A 
ENDBRANCH   2  22
TORSDOF 6
ENDMDL
MODEL 5
REMARK VINA RESULT:      -7.8      4.164      7.542
REMARK  6 active torsions:
REMARK  status: ('A' for Active; 'I' for Inactive)
REMARK    1  A    between atoms: C_2  and  N_3 
REMARK    2  A    between atoms: C_5  and  C_6 
REMARK    3  A    between atoms: C_6  and  N_7 
REMARK       I    between atoms: N_7  and  C_8 
REMARK    4  A    between atoms: C_8  and  C_9 
REMARK    5  A    between atoms: C_9  and  C_10 
REMARK    6  A    between atoms: C_11  and  C_12 
ROOT
HETATM    1  C   UNL     1      -6.101   0.735 -31.773  1.00  0.00     0.006 A 
HETATM    2  C   UNL     1      -5.188   0.064 -32.657  1.00  0.00     0.096 A 
HETATM    3  N   UNL     1      -4.010   0.698 -32.705  1.00  0.00    -0.173 NA
HETATM    4  N   UNL     1      -4.150   1.745 -31.893  1.00  0.00    -0.282 N 
HETATM    5  H   UNL     1      -3.356   2.368 -31.784  1.00  0.00     0.189 HD
HETATM    6  C   UNL     1      -5.370   1.808 -31.280  1.00  0.00     0.033 A 
HETATM    7  C   UNL     1      -5.668   2.875 -30.297  1.00  0.00     0.070 C 
ENDROOT
BRANCH   1   8
HETATM    8  C   UNL     1      -7.480   0.277 -31.410  1.00  0.00     0.146 C 
BRANCH   8   9
HETATM    9  C   UNL     1      -8.590   1.188 -31.918  1.00  0.00     0.222 C 
HETATM   10  N   UNL     1      -8.845   1.088 -33.272  1.00  0.00    -0.359 N 
HETATM   11  H   UNL     1      -8.208   0.514 -33.819  1.00  0.00     0.162 HD
HETATM   12  O   UNL     1      -9.237   1.940 -31.187  1.00  0.00    -0.273 OA
BRANCH  10  13
HETATM   13  C   UNL     1      -9.805   1.891 -34.026  1.00  0.00     0.155 C 
BRANCH  13  14
HETATM   14  C   UNL     1     -11.268   1.412 -33.989  1.00  0.00     0.206 C 
HETATM   15  N   UNL     1     -12.132   1.976 -32.868  1.00  0.00    -0.066 N 
HETATM   16  H   UNL     1     -11.784   1.505 -32.003  1.00  0.00     0.280 HD
HETATM   17  C   UNL     1     -13.516   1.502 -33.237  1.00  0.00     0.235 C 
HETATM   18  C   UNL     1     -13.530   1.476 -34.766  1.00  0.00     0.030 C 
HETATM   19  C   UNL     1     -12.096   1.735 -35.219  1.00  0.00     0.036 C 
BRANCH  15  20
HETATM   20  C   UNL     1     -12.039   3.456 -32.585  1.00  0.00     0.231 C 
HETATM   21  C   UNL     1     -13.281   3.946 -31.858  1.00  0.00     0.034 C 
ENDBRANCH  15  20
ENDBRANCH  13  14
ENDBRANCH  10  13
ENDBRANCH   8   9
ENDBRANCH   1   8
BRANCH   2  22
HETATM   22  C   UNL     1      -5.369  -1.178 -33.407  1.00  0.00    -0.005 A 
HETATM   23  C   UNL     1      -6.563  -1.445 -34.091  1.00  0.00     0.017 A 
HETATM   24  C   UNL     1      -6.711  -2.637 -34.805  1.00  0.00     0.043 A 
HETATM   25  C   UNL     1      -5.663  -3.552 -34.842  1.00  0.00     0.116 A 
HETATM   26  F   UNL     1      -5.809  -4.692 -35.528  1.00  0.00    -0.206 F 
HETATM   27  C   UNL     1      -4.467  -3.297 -34.184  1.00  0.00     0.043 A 
HETATM   28  C   UNL     1      -4.319  -2.108 -33.469  1.00  0.00     0.017 A 
ENDBRANCH   2  22
TORSDOF 6
ENDMDL
MODEL 6
REMARK VINA RESULT:      -7.8      3.975      7.136
REMARK  6 active torsions:
REMARK  status: ('A' for Active; 'I' for Inactive)
REMARK    1  A    between atoms: C_2  and  N_3 
REMARK    2  A    between atoms: C_5  and  C_6 
REMARK    3  A    between atoms: C_6  and  N_7 
REMARK       I    between atoms: N_7  and  C_8 
REMARK    4  A    between atoms: C_8  and  C_9 
REMARK    5  A    between atoms: C_9  and  C_10 
REMARK    6  A    between atoms: C_11  and  C_12 
ROOT
HETATM    1  C   UNL     1      -6.077   2.018 -31.815  1.00  0.00     0.006 A 
HETATM    2  C   UNL     1      -6.188   0.592 -31.674  1.00  0.00     0.096 A 
HETATM    3  N   UNL     1      -6.520   0.256 -30.422  1.00  0.00    -0.173 NA
HETATM    4  N   UNL     1      -6.614   1.414 -29.769  1.00  0.00    -0.282 N 
HETATM    5  H   UNL     1      -6.863   1.382 -28.785  1.00  0.00     0.189 HD
HETATM    6  C   UNL     1      -6.390   2.510 -30.554  1.00  0.00     0.033 A 
HETATM    7  C   UNL     1      -6.519   3.877 -29.999  1.00  0.00     0.070 C 
ENDROOT
BRANCH   1   8
HETATM    8  C   UNL     1      -5.798   2.764 -33.083  1.00  0.00     0.146 C 
BRANCH   8   9
HETATM    9  C   UNL     1      -7.004   3.503 -33.646  1.00  0.00     0.222 C 
HETATM   10  N   UNL     1      -8.191   2.799 -33.589  1.00  0.00    -0.359 N 
HETATM   11  H   UNL     1      -8.137   1.829 -33.290  1.00  0.00     0.162 HD
HETATM   12  O   UNL     1      -6.948   4.649 -34.096  1.00  0.00    -0.273 OA
BRANCH  10  13
HETATM   13  C   UNL     1      -9.480   3.244 -34.118  1.00  0.00     0.155 C 
BRANCH  13  14
HETATM   14  C   UNL     1     -10.723   2.513 -33.577  1.00  0.00     0.206 C 
HETATM   15  N   UNL     1     -12.072   3.083 -33.996  1.00  0.00    -0.066 N 
HETATM   16  H   UNL     1     -12.161   3.975 -33.459  1.00  0.00     0.280 HD
HETATM   17  C   UNL     1     -13.047   2.041 -33.503  1.00  0.00     0.235 C 
HETATM   18  C   UNL     1     -12.299   0.714 -33.622  1.00  0.00     0.030 C 
HETATM   19  C   UNL     1     -10.856   1.057 -33.982  1.00  0.00     0.036 C 
BRANCH  15  20
HETATM   20  C   UNL     1     -12.256   3.465 -35.444  1.00  0.00     0.231 C 
HETATM   21  C   UNL     1     -12.732   4.904 -35.568  1.00  0.00     0.034 C 
ENDBRANCH  15  20
ENDBRANCH  13  14
ENDBRANCH  10  13
ENDBRANCH   8   9
ENDBRANCH   1   8
BRANCH   2  22
HETATM   22  C   UNL     1      -6.048  -0.452 -32.687  1.00  0.00    -0.005 A 
HETATM   23  C   UNL     1      -7.115  -0.796 -33.528  1.00  0.00     0.017 A 
HETATM   24  C   UNL     1      -6.955  -1.794 -34.493  1.00  0.00     0.043 A 
HETATM   25  C   UNL     1      -5.728  -2.437 -34.621  1.00  0.00     0.116 A 
HETATM   26  F   UNL     1      -5.579  -3.392 -35.547  1.00  0.00    -0.206 F 
HETATM   27  C   UNL     1      -4.655  -2.099 -33.808  1.00  0.00     0.043 A 
HETATM   28  C   UNL     1      -4.813  -1.103 -32.842  1.00  0.00     0.017 A 
ENDBRANCH   2  22
TORSDOF 6
ENDMDL
MODEL 7
REMARK VINA RESULT:      -7.6      3.674      8.949
REMARK  6 active torsions:
REMARK  status: ('A' for Active; 'I' for Inactive)
REMARK    1  A    between atoms: C_2  and  N_3 
REMARK    2  A    between atoms: C_5  and  C_6 
REMARK    3  A    between atoms: C_6  and  N_7 
REMARK       I    between atoms: N_7  and  C_8 
REMARK    4  A    between atoms: C_8  and  C_9 
REMARK    5  A    between atoms: C_9  and  C_10 
REMARK    6  A    between atoms: C_11  and  C_12 
ROOT
HETATM    1  C   UNL     1      -1.840   5.804 -32.672  1.00  0.00     0.006 A 
HETATM    2  C   UNL     1      -1.450   7.103 -32.195  1.00  0.00     0.096 A 
HETATM    3  N   UNL     1      -1.590   8.029 -33.150  1.00  0.00    -0.173 NA
HETATM    4  N   UNL     1      -2.044   7.364 -34.211  1.00  0.00    -0.282 N 
HETATM    5  H   UNL     1      -2.222   7.891 -35.059  1.00  0.00     0.189 HD
HETATM    6  C   UNL     1      -2.244   6.031 -33.982  1.00  0.00     0.033 A 
HETATM    7  C   UNL     1      -2.807   5.158 -35.037  1.00  0.00     0.070 C 
ENDROOT
BRANCH   1   8
HETATM    8  C   UNL     1      -1.890   4.543 -31.866  1.00  0.00     0.146 C 
BRANCH   8   9
HETATM    9  C   UNL     1      -3.301   4.075 -31.535  1.00  0.00     0.222 C 
HETATM   10  N   UNL     1      -3.497   2.712 -31.638  1.00  0.00    -0.359 N 
HETATM   11  H   UNL     1      -2.733   2.165 -32.028  1.00  0.00     0.162 HD
HETATM   12  O   UNL     1      -4.201   4.836 -31.175  1.00  0.00    -0.273 OA
BRANCH  10  13
HETATM   13  C   UNL     1      -4.763   2.008 -31.444  1.00  0.00     0.155 C 
BRANCH  13  14
HETATM   14  C   UNL     1      -4.820   0.558 -31.959  1.00  0.00     0.206 C 
HETATM   15  N   UNL     1      -5.983   0.218 -32.883  1.00  0.00    -0.066 N 
HETATM   16  H   UNL     1      -6.821   0.203 -32.259  1.00  0.00     0.280 HD
HETATM   17  C   UNL     1      -5.632  -1.165 -33.372  1.00  0.00     0.235 C 
HETATM   18  C   UNL     1      -4.105  -1.188 -33.428  1.00  0.00     0.030 C 
HETATM   19  C   UNL     1      -3.625   0.105 -32.776  1.00  0.00     0.036 C 
BRANCH  15  20
HETATM   20  C   UNL     1      -6.318   1.197 -33.982  1.00  0.00     0.231 C 
HETATM   21  C   UNL     1      -7.059   0.506 -35.115  1.00  0.00     0.034 C 
ENDBRANCH  15  20
ENDBRANCH  13  14
ENDBRANCH  10  13
ENDBRANCH   8   9
ENDBRANCH   1   8
BRANCH   2  22
HETATM   22  C   UNL     1      -1.008   7.504 -30.860  1.00  0.00    -0.005 A 
HETATM   23  C   UNL     1       0.228   7.085 -30.349  1.00  0.00     0.017 A 
HETATM   24  C   UNL     1       0.631   7.486 -29.072  1.00  0.00     0.043 A 
HETATM   25  C   UNL     1      -0.196   8.311 -28.316  1.00  0.00     0.116 A 
HETATM   26  F   UNL     1       0.194   8.693 -27.094  1.00  0.00    -0.206 F 
HETATM   27  C   UNL     1      -1.417   8.748 -28.812  1.00  0.00     0.043 A 
HETATM   28  C   UNL     1      -1.822   8.347 -30.087  1.00  0.00     0.017 A 
ENDBRANCH   2  22
TORSDOF 6
ENDMDL
MODEL 8
REMARK VINA RESULT:      -7.4      3.332      8.274
REMARK  6 active torsions:
REMARK  status: ('A' for Active; 'I' for Inactive)
REMARK    1  A    between atoms: C_2  and  N_3 
REMARK    2  A    between atoms: C_5  and  C_6 
REMARK    3  A    between atoms: C_6  and  N_7 
REMARK       I    between atoms: N_7  and  C_8 
REMARK    4  A    between atoms: C_8  and  C_9 
REMARK    5  A    between atoms: C_9  and  C_10 
REMARK    6  A    between atoms: C_11  and  C_12 
ROOT
HETATM    1  C   UNL     1      -2.747   5.346 -32.913  1.00  0.00     0.006 A 
HETATM    2  C   UNL     1      -1.415   5.825 -32.664  1.00  0.00     0.096 A 
HETATM    3  N   UNL     1      -0.793   6.136 -33.808  1.00  0.00    -0.173 NA
HETATM    4  N   UNL     1      -1.678   5.863 -34.766  1.00  0.00    -0.282 N 
HETATM    5  H   UNL     1      -1.400   6.033 -35.727  1.00  0.00     0.189 HD
HETATM    6  C   UNL     1      -2.880   5.415 -34.295  1.00  0.00     0.033 A 
HETATM    7  C   UNL     1      -3.997   5.127 -35.224  1.00  0.00     0.070 C 
ENDROOT
BRANCH   1   8
HETATM    8  C   UNL     1      -3.764   4.978 -31.878  1.00  0.00     0.146 C 
BRANCH   8   9
HETATM    9  C   UNL     1      -3.936   3.477 -31.685  1.00  0.00     0.222 C 
HETATM   10  N   UNL     1      -5.245   3.061 -31.535  1.00  0.00    -0.359 N 
HETATM   11  H   UNL     1      -5.952   3.787 -31.453  1.00  0.00     0.162 HD
HETATM   12  O   UNL     1      -2.996   2.681 -31.686  1.00  0.00    -0.273 OA
BRANCH  10  13
HETATM   13  C   UNL     1      -5.686   1.693 -31.269  1.00  0.00     0.155 C 
BRANCH  13  14
HETATM   14  C   UNL     1      -5.727   0.745 -32.482  1.00  0.00     0.206 C 
HETATM   15  N   UNL     1      -4.474  -0.087 -32.727  1.00  0.00    -0.066 N 
HETATM   16  H   UNL     1      -3.767   0.597 -33.078  1.00  0.00     0.280 HD
HETATM   17  C   UNL     1      -4.909  -1.040 -33.814  1.00  0.00     0.235 C 
HETATM   18  C   UNL     1      -6.394  -1.289 -33.549  1.00  0.00     0.030 C 
HETATM   19  C   UNL     1      -6.810  -0.317 -32.450  1.00  0.00     0.036 C 
BRANCH  15  20
HETATM   20  C   UNL     1      -3.831  -0.757 -31.537  1.00  0.00     0.231 C 
HETATM   21  C   UNL     1      -2.361  -1.039 -31.805  1.00  0.00     0.034 C 
ENDBRANCH  15  20
ENDBRANCH  13  14
ENDBRANCH  10  13
ENDBRANCH   8   9
ENDBRANCH   1   8
BRANCH   2  22
HETATM   22  C   UNL     1      -0.736   6.051 -31.390  1.00  0.00    -0.005 A 
HETATM   23  C   UNL     1      -0.838   7.279 -30.720  1.00  0.00     0.017 A 
HETATM   24  C   UNL     1      -0.183   7.469 -29.501  1.00  0.00     0.043 A 
HETATM   25  C   UNL     1       0.561   6.431 -28.949  1.00  0.00     0.116 A 
HETATM   26  F   UNL     1       1.186   6.618 -27.780  1.00  0.00    -0.206 F 
HETATM   27  C   UNL     1       0.661   5.203 -29.590  1.00  0.00     0.043 A 
HETATM   28  C   UNL     1       0.009   5.012 -30.809  1.00  0.00     0.017 A 
ENDBRANCH   2  22
TORSDOF 6
ENDMDL
MODEL 9
REMARK VINA RESULT:      -7.4     16.900     19.088
REMARK  6 active torsions:
REMARK  status: ('A' for Active; 'I' for Inactive)
REMARK    1  A    between atoms: C_2  and  N_3 
REMARK    2  A    between atoms: C_5  and  C_6 
REMARK    3  A    between atoms: C_6  and  N_7 
REMARK       I    between atoms: N_7  and  C_8 
REMARK    4  A    between atoms: C_8  and  C_9 
REMARK    5  A    between atoms: C_9  and  C_10 
REMARK    6  A    between atoms: C_11  and  C_12 
ROOT
HETATM    1  C   UNL     1      -5.830 -12.703 -39.212  1.00  0.00     0.006 A 
HETATM    2  C   UNL     1      -7.080 -13.073 -38.608  1.00  0.00     0.096 A 
HETATM    3  N   UNL     1      -6.944 -13.248 -37.288  1.00  0.00    -0.173 NA
HETATM    4  N   UNL     1      -5.657 -13.011 -37.041  1.00  0.00    -0.282 N 
HETATM    5  H   UNL     1      -5.338 -13.090 -36.080  1.00  0.00     0.189 HD
HETATM    6  C   UNL     1      -4.940 -12.649 -38.147  1.00  0.00     0.033 A 
HETATM    7  C   UNL     1      -3.508 -12.288 -38.035  1.00  0.00     0.070 C 
ENDROOT
BRANCH   1   8
HETATM    8  C   UNL     1      -5.611 -12.351 -40.652  1.00  0.00     0.146 C 
BRANCH   8   9
HETATM    9  C   UNL     1      -5.032 -13.486 -41.486  1.00  0.00     0.222 C 
HETATM   10  N   UNL     1      -3.664 -13.643 -41.377  1.00  0.00    -0.359 N 
HETATM   11  H   UNL     1      -3.160 -12.933 -40.852  1.00  0.00     0.162 HD
HETATM   12  O   UNL     1      -5.719 -14.231 -42.187  1.00  0.00    -0.273 OA
BRANCH  10  13
HETATM   13  C   UNL     1      -2.848 -14.605 -42.116  1.00  0.00     0.155 C 
BRANCH  13  14
HETATM   14  C   UNL     1      -2.292 -15.789 -41.302  1.00  0.00     0.206 C 
HETATM   15  N   UNL     1      -0.820 -15.709 -40.919  1.00  0.00    -0.066 N 
HETATM   16  H   UNL     1      -0.305 -15.869 -41.813  1.00  0.00     0.280 HD
HETATM   17  C   UNL     1      -0.655 -16.870 -39.970  1.00  0.00     0.235 C 
HETATM   18  C   UNL     1      -2.001 -16.989 -39.254  1.00  0.00     0.030 C 
HETATM   19  C   UNL     1      -2.956 -16.031 -39.959  1.00  0.00     0.036 C 
BRANCH  15  20
HETATM   20  C   UNL     1      -0.302 -14.395 -40.386  1.00  0.00     0.231 C 
HETATM   21  C   UNL     1       0.769 -14.624 -39.332  1.00  0.00     0.034 C 
ENDBRANCH  15  20
ENDBRANCH  13  14
ENDBRANCH  10  13
ENDBRANCH   8   9
ENDBRANCH   1   8
BRANCH   2  22
HETATM   22  C   UNL     1      -8.400 -13.210 -39.222  1.00  0.00    -0.005 A 
HETATM   23  C   UNL     1      -9.128 -12.086 -39.636  1.00  0.00     0.017 A 
HETATM   24  C   UNL     1     -10.386 -12.243 -40.224  1.00  0.00     0.043 A 
HETATM   25  C   UNL     1     -10.906 -13.520 -40.406  1.00  0.00     0.116 A 
HETATM   26  F   UNL     1     -12.111 -13.666 -40.971  1.00  0.00    -0.206 F 
HETATM   27  C   UNL     1     -10.193 -14.646 -40.017  1.00  0.00     0.043 A 
HETATM   28  C   UNL     1      -8.937 -14.491 -39.427  1.00  0.00     0.017 A 
ENDBRANCH   2  22
TORSDOF 6
ENDMDL
MODEL 10
REMARK VINA RESULT:      -7.2      3.827      5.982
REMARK  6 active torsions:
REMARK  status: ('A' for Active; 'I' for Inactive)
REMARK    1  A    between atoms: C_2  and  N_3 
REMARK    2  A    between atoms: C_5  and  C_6 
REMARK    3  A    between atoms: C_6  and  N_7 
REMARK       I    between atoms: N_7  and  C_8 
REMARK    4  A    between atoms: C_8  and  C_9 
REMARK    5  A    between atoms: C_9  and  C_10 
REMARK    6  A    between atoms: C_11  and  C_12 
ROOT
HETATM    1  C   UNL     1      -5.933   1.913 -31.776  1.00  0.00     0.006 A 
HETATM    2  C   UNL     1      -6.032   0.484 -31.661  1.00  0.00     0.096 A 
HETATM    3  N   UNL     1      -6.351   0.122 -30.413  1.00  0.00    -0.173 NA
HETATM    4  N   UNL     1      -6.449   1.266 -29.737  1.00  0.00    -0.282 N 
HETATM    5  H   UNL     1      -6.690   1.214 -28.753  1.00  0.00     0.189 HD
HETATM    6  C   UNL     1      -6.240   2.379 -30.503  1.00  0.00     0.033 A 
HETATM    7  C   UNL     1      -6.374   3.734 -29.921  1.00  0.00     0.070 C 
ENDROOT
BRANCH   1   8
HETATM    8  C   UNL     1      -5.670   2.685 -33.032  1.00  0.00     0.146 C 
BRANCH   8   9
HETATM    9  C   UNL     1      -6.909   3.340 -33.628  1.00  0.00     0.222 C 
HETATM   10  N   UNL     1      -8.064   2.590 -33.527  1.00  0.00    -0.359 N 
HETATM   11  H   UNL     1      -7.967   1.641 -33.175  1.00  0.00     0.162 HD
HETATM   12  O   UNL     1      -6.904   4.461 -34.140  1.00  0.00    -0.273 OA
BRANCH  10  13
HETATM   13  C   UNL     1      -9.372   2.949 -34.072  1.00  0.00     0.155 C 
BRANCH  13  14
HETATM   14  C   UNL     1     -10.527   3.045 -33.057  1.00  0.00     0.206 C 
HETATM   15  N   UNL     1     -10.411   4.145 -32.009  1.00  0.00    -0.066 N 
HETATM   16  H   UNL     1      -9.655   3.819 -31.366  1.00  0.00     0.280 HD
HETATM   17  C   UNL     1     -11.762   4.114 -31.337  1.00  0.00     0.235 C 
HETATM   18  C   UNL     1     -12.741   3.705 -32.437  1.00  0.00     0.030 C 
HETATM   19  C   UNL     1     -11.898   3.315 -33.648  1.00  0.00     0.036 C 
BRANCH  15  20
HETATM   20  C   UNL     1      -9.981   5.515 -32.472  1.00  0.00     0.231 C 
HETATM   21  C   UNL     1      -8.821   6.030 -31.635  1.00  0.00     0.034 C 
ENDBRANCH  15  20
ENDBRANCH  13  14
ENDBRANCH  10  13
ENDBRANCH   8   9
ENDBRANCH   1   8
BRANCH   2  22
HETATM   22  C   UNL     1      -5.892  -0.539 -32.696  1.00  0.00    -0.005 A 
HETATM   23  C   UNL     1      -4.669  -1.188 -32.914  1.00  0.00     0.017 A 
HETATM   24  C   UNL     1      -4.561  -2.167 -33.906  1.00  0.00     0.043 A 
HETATM   25  C   UNL     1      -5.676  -2.500 -34.668  1.00  0.00     0.116 A 
HETATM   26  F   UNL     1      -5.568  -3.438 -35.617  1.00  0.00    -0.206 F 
HETATM   27  C   UNL     1      -6.900  -1.879 -34.456  1.00  0.00     0.043 A 
HETATM   28  C   UNL     1      -7.009  -0.900 -33.467  1.00  0.00     0.017 A 
ENDBRANCH   2  22
TORSDOF 6
ENDMDL
