MODEL 1
REMARK VINA RESULT:      -8.4      0.000      0.000
REMARK  4 active torsions:
REMARK  status: ('A' for Active; 'I' for Inactive)
REMARK    1  A    between atoms: C_5  and  N_6 
REMARK       I    between atoms: N_6  and  C_7 
REMARK    2  A    between atoms: C_7  and  C_8 
REMARK    3  A    between atoms: C_12  and  C_13 
REMARK    4  A    between atoms: C_15  and  O_16 
ROOT
HETATM    1  C   UNL     1      -6.337   1.483 -33.913  1.00  0.00     0.120 A 
HETATM    2  N   UNL     1      -7.247   1.125 -34.867  1.00  0.00    -0.272 N 
HETATM    3  H   UNL     1      -7.915   1.736 -35.328  1.00  0.00     0.189 HD
HETATM    4  N   UNL     1      -7.207  -0.171 -35.209  1.00  0.00    -0.174 NA
HETATM    5  C   UNL     1      -6.264  -0.703 -34.414  1.00  0.00     0.089 A 
HETATM    6  C   UNL     1      -5.689   0.308 -33.592  1.00  0.00     0.071 A 
ENDROOT
BRANCH   1   7
HETATM    7  C   UNL     1      -6.223   2.839 -33.448  1.00  0.00     0.270 C 
HETATM    8  N   UNL     1      -4.932   3.282 -33.265  1.00  0.00    -0.351 N 
HETATM    9  H   UNL     1      -4.181   2.705 -33.613  1.00  0.00     0.163 HD
HETATM   10  O   UNL     1      -7.206   3.544 -33.246  1.00  0.00    -0.266 OA
BRANCH   8  11
HETATM   11  C   UNL     1      -4.625   4.658 -32.893  1.00  0.00     0.084 C 
HETATM   12  C   UNL     1      -3.339   4.713 -32.059  1.00  0.00     0.025 C 
HETATM   13  C   UNL     1      -2.078   4.451 -32.888  1.00  0.00     0.006 C 
HETATM   14  C   UNL     1      -1.977   5.345 -34.132  1.00  0.00    -0.019 C 
HETATM   15  C   UNL     1      -1.604   6.783 -33.763  1.00  0.00     0.010 C 
HETATM   16  C   UNL     1      -3.269   5.286 -34.958  1.00  0.00     0.006 C 
HETATM   17  C   UNL     1      -4.525   5.563 -34.129  1.00  0.00     0.025 C 
ENDBRANCH   8  11
ENDBRANCH   1   7
BRANCH   5  18
HETATM   18  C   UNL     1      -5.927  -2.128 -34.459  1.00  0.00    -0.003 A 
HETATM   19  C   UNL     1      -4.736  -2.594 -33.873  1.00  0.00     0.050 A 
HETATM   20  C   UNL     1      -4.411  -3.952 -33.897  1.00  0.00     0.069 A 
HETATM   21  C   UNL     1      -5.277  -4.853 -34.519  1.00  0.00     0.037 A 
HETATM   22  C   UNL     1      -6.457  -4.408 -35.113  1.00  0.00     0.004 A 
HETATM   23  C   UNL     1      -6.781  -3.050 -35.083  1.00  0.00     0.014 A 
BRANCH  20  24
HETATM   24  O   UNL     1      -3.291  -4.522 -33.354  1.00  0.00    -0.356 OA
HETATM   25  C   UNL     1      -2.860  -4.014 -32.097  1.00  0.00     0.210 C 
ENDBRANCH  20  24
ENDBRANCH   5  18
TORSDOF 4
ENDMDL
MODEL 2
REMARK VINA RESULT:      -8.0      2.560      8.076
REMARK  4 active torsions:
REMARK  status: ('A' for Active; 'I' for Inactive)
REMARK    1  A    between atoms: C_5  and  N_6 
REMARK       I    between atoms: N_6  and  C_7 
REMARK    2  A    between atoms: C_7  and  C_8 
REMARK    3  A    between atoms: C_12  and  C_13 
REMARK    4  A    between atoms: C_15  and  O_16 
ROOT
HETATM    1  C   UNL     1      -5.546   3.869 -33.370  1.00  0.00     0.120 A 
HETATM    2  N   UNL     1      -5.486   4.899 -34.264  1.00  0.00    -0.272 N 
HETATM    3  H   UNL     1      -6.152   5.100 -35.005  1.00  0.00     0.189 HD
HETATM    4  N   UNL     1      -4.432   5.713 -34.099  1.00  0.00    -0.174 NA
HETATM    5  C   UNL     1      -3.740   5.170 -33.084  1.00  0.00     0.089 A 
HETATM    6  C   UNL     1      -4.414   4.015 -32.595  1.00  0.00     0.071 A 
ENDROOT
BRANCH   1   7
HETATM    7  C   UNL     1      -6.625   2.918 -33.384  1.00  0.00     0.270 C 
HETATM    8  N   UNL     1      -6.239   1.603 -33.249  1.00  0.00    -0.351 N 
HETATM    9  H   UNL     1      -5.281   1.416 -32.993  1.00  0.00     0.163 HD
HETATM   10  O   UNL     1      -7.796   3.262 -33.495  1.00  0.00    -0.266 OA
BRANCH   8  11
HETATM   11  C   UNL     1      -7.204   0.514 -33.144  1.00  0.00     0.084 C 
HETATM   12  C   UNL     1      -7.681   0.086 -34.537  1.00  0.00     0.025 C 
HETATM   13  C   UNL     1      -6.613  -0.678 -35.326  1.00  0.00     0.006 C 
HETATM   14  C   UNL     1      -6.020  -1.862 -34.549  1.00  0.00    -0.019 C 
HETATM   15  C   UNL     1      -7.001  -3.034 -34.473  1.00  0.00     0.010 C 
HETATM   16  C   UNL     1      -5.549  -1.424 -33.156  1.00  0.00     0.006 C 
HETATM   17  C   UNL     1      -6.623  -0.675 -32.366  1.00  0.00     0.025 C 
ENDBRANCH   8  11
ENDBRANCH   1   7
BRANCH   5  18
HETATM   18  C   UNL     1      -2.486   5.754 -32.602  1.00  0.00    -0.003 A 
HETATM   19  C   UNL     1      -1.489   4.932 -32.046  1.00  0.00     0.050 A 
HETATM   20  C   UNL     1      -0.283   5.475 -31.596  1.00  0.00     0.069 A 
HETATM   21  C   UNL     1      -0.074   6.852 -31.693  1.00  0.00     0.037 A 
HETATM   22  C   UNL     1      -1.055   7.682 -32.233  1.00  0.00     0.004 A 
HETATM   23  C   UNL     1      -2.256   7.135 -32.687  1.00  0.00     0.014 A 
BRANCH  20  24
HETATM   24  O   UNL     1       0.760   4.778 -31.049  1.00  0.00    -0.356 OA
HETATM   25  C   UNL     1       0.869   4.797 -29.631  1.00  0.00     0.210 C 
ENDBRANCH  20  24
ENDBRANCH   5  18
TORSDOF 4
ENDMDL
MODEL 3
REMARK VINA RESULT:      -8.0      3.528      5.268
REMARK  4 active torsions:
REMARK  status: ('A' for Active; 'I' for Inactive)
REMARK    1  A    between atoms: C_5  and  N_6 
REMARK       I    between atoms: N_6  and  C_7 
REMARK    2  A    between atoms: C_7  and  C_8 
REMARK    3  A    between atoms: C_12  and  C_13 
REMARK    4  A    between atoms: C_15  and  O_16 
ROOT
HETATM    1  C   UNL     1      -2.843   3.761 -31.800  1.00  0.00     0.120 A 
HETATM    2  N   UNL     1      -3.717   3.860 -30.755  1.00  0.00    -0.272 N 
HETATM    3  H   UNL     1      -3.637   4.479 -29.954  1.00  0.00     0.189 HD
HETATM    4  N   UNL     1      -4.781   3.049 -30.847  1.00  0.00    -0.174 NA
HETATM    5  C   UNL     1      -4.578   2.350 -31.976  1.00  0.00     0.089 A 
HETATM    6  C   UNL     1      -3.374   2.775 -32.606  1.00  0.00     0.071 A 
ENDROOT
BRANCH   1   7
HETATM    7  C   UNL     1      -1.661   4.578 -31.877  1.00  0.00     0.270 C 
HETATM    8  N   UNL     1      -1.079   4.869 -30.665  1.00  0.00    -0.351 N 
HETATM    9  H   UNL     1      -1.410   4.374 -29.850  1.00  0.00     0.163 HD
HETATM   10  O   UNL     1      -1.208   4.969 -32.947  1.00  0.00    -0.266 OA
BRANCH   8  11
HETATM   11  C   UNL     1       0.178   5.602 -30.559  1.00  0.00     0.084 C 
HETATM   12  C   UNL     1      -0.059   7.104 -30.761  1.00  0.00     0.025 C 
HETATM   13  C   UNL     1      -0.766   7.761 -29.571  1.00  0.00     0.006 C 
HETATM   14  C   UNL     1      -0.079   7.478 -28.228  1.00  0.00    -0.019 C 
HETATM   15  C   UNL     1       1.217   8.279 -28.079  1.00  0.00     0.010 C 
HETATM   16  C   UNL     1       0.157   5.974 -28.038  1.00  0.00     0.006 C 
HETATM   17  C   UNL     1       0.877   5.324 -29.221  1.00  0.00     0.025 C 
ENDBRANCH   8  11
ENDBRANCH   1   7
BRANCH   5  18
HETATM   18  C   UNL     1      -5.518   1.321 -32.429  1.00  0.00    -0.003 A 
HETATM   19  C   UNL     1      -5.051   0.188 -33.120  1.00  0.00     0.050 A 
HETATM   20  C   UNL     1      -5.935  -0.806 -33.544  1.00  0.00     0.069 A 
HETATM   21  C   UNL     1      -7.300  -0.664 -33.286  1.00  0.00     0.037 A 
HETATM   22  C   UNL     1      -7.781   0.456 -32.611  1.00  0.00     0.004 A 
HETATM   23  C   UNL     1      -6.894   1.445 -32.184  1.00  0.00     0.014 A 
BRANCH  20  24
HETATM   24  O   UNL     1      -5.598  -1.952 -34.212  1.00  0.00    -0.356 OA
HETATM   25  C   UNL     1      -6.667  -2.814 -34.584  1.00  0.00     0.210 C 
ENDBRANCH  20  24
ENDBRANCH   5  18
TORSDOF 4
ENDMDL
MODEL 4
REMARK VINA RESULT:      -7.9      3.481      4.853
REMARK  4 active torsions:
REMARK  status: ('A' for Active; 'I' for Inactive)
REMARK    1  A    between atoms: C_5  and  N_6 
REMARK       I    between atoms: N_6  and  C_7 
REMARK    2  A    between atoms: C_7  and  C_8 
REMARK    3  A    between atoms: C_12  and  C_13 
REMARK    4  A    between atoms: C_15  and  O_16 
ROOT
HETATM    1  C   UNL     1      -3.538   3.940 -31.445  1.00  0.00     0.120 A 
HETATM    2  N   UNL     1      -4.450   3.485 -30.536  1.00  0.00    -0.272 N 
HETATM    3  H   UNL     1      -4.906   4.028 -29.809  1.00  0.00     0.189 HD
HETATM    4  N   UNL     1      -4.758   2.185 -30.667  1.00  0.00    -0.174 NA
HETATM    5  C   UNL     1      -3.980   1.752 -31.672  1.00  0.00     0.089 A 
HETATM    6  C   UNL     1      -3.205   2.829 -32.192  1.00  0.00     0.071 A 
ENDROOT
BRANCH   1   7
HETATM    7  C   UNL     1      -3.115   5.315 -31.467  1.00  0.00     0.270 C 
HETATM    8  N   UNL     1      -2.212   5.659 -30.486  1.00  0.00    -0.351 N 
HETATM    9  H   UNL     1      -1.799   4.916 -29.943  1.00  0.00     0.163 HD
HETATM   10  O   UNL     1      -3.523   6.109 -32.307  1.00  0.00    -0.266 OA
BRANCH   8  11
HETATM   11  C   UNL     1      -1.602   6.982 -30.416  1.00  0.00     0.084 C 
HETATM   12  C   UNL     1      -1.841   7.610 -29.038  1.00  0.00     0.025 C 
HETATM   13  C   UNL     1      -1.008   6.956 -27.931  1.00  0.00     0.006 C 
HETATM   14  C   UNL     1       0.489   6.885 -28.263  1.00  0.00    -0.019 C 
HETATM   15  C   UNL     1       1.156   8.258 -28.145  1.00  0.00     0.010 C 
HETATM   16  C   UNL     1       0.717   6.259 -29.645  1.00  0.00     0.006 C 
HETATM   17  C   UNL     1      -0.105   6.926 -30.750  1.00  0.00     0.025 C 
ENDBRANCH   8  11
ENDBRANCH   1   7
BRANCH   5  18
HETATM   18  C   UNL     1      -3.996   0.357 -32.118  1.00  0.00    -0.003 A 
HETATM   19  C   UNL     1      -4.856  -0.046 -33.157  1.00  0.00     0.050 A 
HETATM   20  C   UNL     1      -4.870  -1.370 -33.600  1.00  0.00     0.069 A 
HETATM   21  C   UNL     1      -4.026  -2.304 -32.996  1.00  0.00     0.037 A 
HETATM   22  C   UNL     1      -3.173  -1.924 -31.961  1.00  0.00     0.004 A 
HETATM   23  C   UNL     1      -3.158  -0.598 -31.523  1.00  0.00     0.014 A 
BRANCH  20  24
HETATM   24  O   UNL     1      -5.652  -1.875 -34.603  1.00  0.00    -0.356 OA
HETATM   25  C   UNL     1      -5.370  -3.203 -35.028  1.00  0.00     0.210 C 
ENDBRANCH  20  24
ENDBRANCH   5  18
TORSDOF 4
ENDMDL
MODEL 5
REMARK VINA RESULT:      -7.9      1.996      2.321
REMARK  4 active torsions:
REMARK  status: ('A' for Active; 'I' for Inactive)
REMARK    1  A    between atoms: C_5  and  N_6 
REMARK       I    between atoms: N_6  and  C_7 
REMARK    2  A    between atoms: C_7  and  C_8 
REMARK    3  A    between atoms: C_12  and  C_13 
REMARK    4  A    between atoms: C_15  and  O_16 
ROOT
HETATM    1  C   UNL     1      -5.281   1.913 -31.194  1.00  0.00     0.120 A 
HETATM    2  N   UNL     1      -6.048   1.090 -30.421  1.00  0.00    -0.272 N 
HETATM    3  H   UNL     1      -6.400   1.286 -29.489  1.00  0.00     0.189 HD
HETATM    4  N   UNL     1      -6.357  -0.081 -31.000  1.00  0.00    -0.174 NA
HETATM    5  C   UNL     1      -5.727  -0.049 -32.186  1.00  0.00     0.089 A 
HETATM    6  C   UNL     1      -5.048   1.192 -32.347  1.00  0.00     0.071 A 
ENDROOT
BRANCH   1   7
HETATM    7  C   UNL     1      -4.881   3.219 -30.741  1.00  0.00     0.270 C 
HETATM    8  N   UNL     1      -3.813   3.764 -31.417  1.00  0.00    -0.351 N 
HETATM    9  H   UNL     1      -3.501   3.303 -32.259  1.00  0.00     0.163 HD
HETATM   10  O   UNL     1      -5.461   3.799 -29.830  1.00  0.00    -0.266 OA
BRANCH   8  11
HETATM   11  C   UNL     1      -3.335   5.118 -31.159  1.00  0.00     0.084 C 
HETATM   12  C   UNL     1      -1.808   5.181 -31.291  1.00  0.00     0.025 C 
HETATM   13  C   UNL     1      -1.330   5.081 -32.742  1.00  0.00     0.006 C 
HETATM   14  C   UNL     1      -2.015   6.091 -33.675  1.00  0.00    -0.019 C 
HETATM   15  C   UNL     1      -1.487   7.511 -33.451  1.00  0.00     0.010 C 
HETATM   16  C   UNL     1      -3.541   6.023 -33.533  1.00  0.00     0.006 C 
HETATM   17  C   UNL     1      -4.015   6.137 -32.083  1.00  0.00     0.025 C 
ENDBRANCH   8  11
ENDBRANCH   1   7
BRANCH   5  18
HETATM   18  C   UNL     1      -5.792  -1.170 -33.127  1.00  0.00    -0.003 A 
HETATM   19  C   UNL     1      -4.668  -1.991 -33.332  1.00  0.00     0.050 A 
HETATM   20  C   UNL     1      -4.722  -3.070 -34.215  1.00  0.00     0.069 A 
HETATM   21  C   UNL     1      -5.906  -3.329 -34.909  1.00  0.00     0.037 A 
HETATM   22  C   UNL     1      -7.027  -2.521 -34.725  1.00  0.00     0.004 A 
HETATM   23  C   UNL     1      -6.970  -1.446 -33.837  1.00  0.00     0.014 A 
BRANCH  20  24
HETATM   24  O   UNL     1      -3.701  -3.941 -34.488  1.00  0.00    -0.356 OA
HETATM   25  C   UNL     1      -3.429  -4.935 -33.507  1.00  0.00     0.210 C 
ENDBRANCH  20  24
ENDBRANCH   5  18
TORSDOF 4
ENDMDL
MODEL 6
REMARK VINA RESULT:      -7.8      5.121      7.235
REMARK  4 active torsions:
REMARK  status: ('A' for Active; 'I' for Inactive)
REMARK    1  A    between atoms: C_5  and  N_6 
REMARK       I    between atoms: N_6  and  C_7 
REMARK    2  A    between atoms: C_7  and  C_8 
REMARK    3  A    between atoms: C_12  and  C_13 
REMARK    4  A    between atoms: C_15  and  O_16 
ROOT
HETATM    1  C   UNL     1      -9.573   1.413 -33.891  1.00  0.00     0.120 A 
HETATM    2  N   UNL     1      -9.246   1.361 -32.566  1.00  0.00    -0.272 N 
HETATM    3  H   UNL     1      -9.712   1.848 -31.806  1.00  0.00     0.189 HD
HETATM    4  N   UNL     1      -8.208   0.559 -32.284  1.00  0.00    -0.174 NA
HETATM    5  C   UNL     1      -7.801   0.099 -33.479  1.00  0.00     0.089 A 
HETATM    6  C   UNL     1      -8.640   0.608 -34.511  1.00  0.00     0.071 A 
ENDROOT
BRANCH   1   7
HETATM    7  C   UNL     1     -10.678   2.202 -34.366  1.00  0.00     0.270 C 
HETATM    8  N   UNL     1     -11.922   1.724 -34.020  1.00  0.00    -0.351 N 
HETATM    9  H   UNL     1     -11.969   0.976 -33.344  1.00  0.00     0.163 HD
HETATM   10  O   UNL     1     -10.514   3.227 -35.018  1.00  0.00    -0.266 OA
BRANCH   8  11
HETATM   11  C   UNL     1     -13.150   2.447 -34.331  1.00  0.00     0.084 C 
HETATM   12  C   UNL     1     -14.334   1.476 -34.422  1.00  0.00     0.025 C 
HETATM   13  C   UNL     1     -14.769   0.936 -33.057  1.00  0.00     0.006 C 
HETATM   14  C   UNL     1     -15.030   2.042 -32.025  1.00  0.00    -0.019 C 
HETATM   15  C   UNL     1     -16.343   2.778 -32.308  1.00  0.00     0.010 C 
HETATM   16  C   UNL     1     -13.842   3.009 -31.944  1.00  0.00     0.006 C 
HETATM   17  C   UNL     1     -13.420   3.558 -33.308  1.00  0.00     0.025 C 
ENDBRANCH   8  11
ENDBRANCH   1   7
BRANCH   5  18
HETATM   18  C   UNL     1      -6.655  -0.804 -33.612  1.00  0.00    -0.003 A 
HETATM   19  C   UNL     1      -5.565  -0.701 -32.729  1.00  0.00     0.050 A 
HETATM   20  C   UNL     1      -4.473  -1.565 -32.836  1.00  0.00     0.069 A 
HETATM   21  C   UNL     1      -4.465  -2.536 -33.840  1.00  0.00     0.037 A 
HETATM   22  C   UNL     1      -5.532  -2.646 -34.729  1.00  0.00     0.004 A 
HETATM   23  C   UNL     1      -6.624  -1.784 -34.615  1.00  0.00     0.014 A 
BRANCH  20  24
HETATM   24  O   UNL     1      -3.365  -1.567 -32.033  1.00  0.00    -0.356 OA
HETATM   25  C   UNL     1      -3.035  -0.340 -31.394  1.00  0.00     0.210 C 
ENDBRANCH  20  24
ENDBRANCH   5  18
TORSDOF 4
ENDMDL
MODEL 7
REMARK VINA RESULT:      -7.7     14.930     16.740
REMARK  4 active torsions:
REMARK  status: ('A' for Active; 'I' for Inactive)
REMARK    1  A    between atoms: C_5  and  N_6 
REMARK       I    between atoms: N_6  and  C_7 
REMARK    2  A    between atoms: C_7  and  C_8 
REMARK    3  A    between atoms: C_12  and  C_13 
REMARK    4  A    between atoms: C_15  and  O_16 
ROOT
HETATM    1  C   UNL     1      -4.904 -12.644 -39.568  1.00  0.00     0.120 A 
HETATM    2  N   UNL     1      -5.005 -12.684 -40.929  1.00  0.00    -0.272 N 
HETATM    3  H   UNL     1      -4.242 -12.614 -41.597  1.00  0.00     0.189 HD
HETATM    4  N   UNL     1      -6.256 -12.848 -41.386  1.00  0.00    -0.174 NA
HETATM    5  C   UNL     1      -7.019 -12.869 -40.281  1.00  0.00     0.089 A 
HETATM    6  C   UNL     1      -6.204 -12.753 -39.119  1.00  0.00     0.071 A 
ENDROOT
BRANCH   1   7
HETATM    7  C   UNL     1      -3.634 -12.502 -38.908  1.00  0.00     0.270 C 
HETATM    8  N   UNL     1      -2.633 -13.310 -39.398  1.00  0.00    -0.351 N 
HETATM    9  H   UNL     1      -2.806 -13.807 -40.259  1.00  0.00     0.163 HD
HETATM   10  O   UNL     1      -3.462 -11.709 -37.989  1.00  0.00    -0.266 OA
BRANCH   8  11
HETATM   11  C   UNL     1      -1.259 -13.230 -38.916  1.00  0.00     0.084 C 
HETATM   12  C   UNL     1      -1.155 -13.803 -37.497  1.00  0.00     0.025 C 
HETATM   13  C   UNL     1      -1.283 -15.329 -37.460  1.00  0.00     0.006 C 
HETATM   14  C   UNL     1      -0.323 -16.041 -38.423  1.00  0.00    -0.019 C 
HETATM   15  C   UNL     1       1.118 -16.010 -37.907  1.00  0.00     0.010 C 
HETATM   16  C   UNL     1      -0.432 -15.457 -39.838  1.00  0.00     0.006 C 
HETATM   17  C   UNL     1      -0.288 -13.935 -39.873  1.00  0.00     0.025 C 
ENDBRANCH   8  11
ENDBRANCH   1   7
BRANCH   5  18
HETATM   18  C   UNL     1      -8.476 -13.010 -40.349  1.00  0.00    -0.003 A 
HETATM   19  C   UNL     1      -9.058 -14.272 -40.569  1.00  0.00     0.050 A 
HETATM   20  C   UNL     1     -10.445 -14.420 -40.622  1.00  0.00     0.069 A 
HETATM   21  C   UNL     1     -11.261 -13.298 -40.463  1.00  0.00     0.037 A 
HETATM   22  C   UNL     1     -10.701 -12.038 -40.254  1.00  0.00     0.004 A 
HETATM   23  C   UNL     1      -9.314 -11.895 -40.197  1.00  0.00     0.014 A 
BRANCH  20  24
HETATM   24  O   UNL     1     -11.123 -15.593 -40.818  1.00  0.00    -0.356 OA
HETATM   25  C   UNL     1     -11.903 -15.690 -42.003  1.00  0.00     0.210 C 
ENDBRANCH  20  24
ENDBRANCH   5  18
TORSDOF 4
ENDMDL
MODEL 8
REMARK VINA RESULT:      -7.7     15.708     17.412
REMARK  4 active torsions:
REMARK  status: ('A' for Active; 'I' for Inactive)
REMARK    1  A    between atoms: C_5  and  N_6 
REMARK       I    between atoms: N_6  and  C_7 
REMARK    2  A    between atoms: C_7  and  C_8 
REMARK    3  A    between atoms: C_12  and  C_13 
REMARK    4  A    between atoms: C_15  and  O_16 
ROOT
HETATM    1  C   UNL     1      -4.719 -13.637 -41.056  1.00  0.00     0.120 A 
HETATM    2  N   UNL     1      -4.883 -12.389 -40.526  1.00  0.00    -0.272 N 
HETATM    3  H   UNL     1      -4.149 -11.722 -40.304  1.00  0.00     0.189 HD
HETATM    4  N   UNL     1      -6.161 -12.046 -40.307  1.00  0.00    -0.174 NA
HETATM    5  C   UNL     1      -6.869 -13.131 -40.663  1.00  0.00     0.089 A 
HETATM    6  C   UNL     1      -5.997 -14.148 -41.146  1.00  0.00     0.071 A 
ENDROOT
BRANCH   1   7
HETATM    7  C   UNL     1      -3.416 -14.155 -41.380  1.00  0.00     0.270 C 
HETATM    8  N   UNL     1      -2.694 -14.620 -40.304  1.00  0.00    -0.351 N 
HETATM    9  H   UNL     1      -3.172 -14.715 -39.420  1.00  0.00     0.163 HD
HETATM   10  O   UNL     1      -2.996 -14.188 -42.531  1.00  0.00    -0.266 OA
BRANCH   8  11
HETATM   11  C   UNL     1      -1.397 -15.269 -40.457  1.00  0.00     0.084 C 
HETATM   12  C   UNL     1      -0.265 -14.247 -40.290  1.00  0.00     0.025 C 
HETATM   13  C   UNL     1      -0.083 -13.790 -38.840  1.00  0.00     0.006 C 
HETATM   14  C   UNL     1       0.065 -14.956 -37.852  1.00  0.00    -0.019 C 
HETATM   15  C   UNL     1       1.443 -15.616 -37.964  1.00  0.00     0.010 C 
HETATM   16  C   UNL     1      -1.069 -15.974 -38.029  1.00  0.00     0.006 C 
HETATM   17  C   UNL     1      -1.238 -16.439 -39.477  1.00  0.00     0.025 C 
ENDBRANCH   8  11
ENDBRANCH   1   7
BRANCH   5  18
HETATM   18  C   UNL     1      -8.329 -13.175 -40.549  1.00  0.00    -0.003 A 
HETATM   19  C   UNL     1      -9.020 -14.385 -40.742  1.00  0.00     0.050 A 
HETATM   20  C   UNL     1     -10.410 -14.442 -40.623  1.00  0.00     0.069 A 
HETATM   21  C   UNL     1     -11.119 -13.279 -40.317  1.00  0.00     0.037 A 
HETATM   22  C   UNL     1     -10.452 -12.070 -40.131  1.00  0.00     0.004 A 
HETATM   23  C   UNL     1      -9.062 -12.017 -40.247  1.00  0.00     0.014 A 
BRANCH  20  24
HETATM   24  O   UNL     1     -11.187 -15.559 -40.777  1.00  0.00    -0.356 OA
HETATM   25  C   UNL     1     -11.772 -15.759 -42.058  1.00  0.00     0.210 C 
ENDBRANCH  20  24
ENDBRANCH   5  18
TORSDOF 4
ENDMDL
MODEL 9
REMARK VINA RESULT:      -7.7      3.414      5.313
REMARK  4 active torsions:
REMARK  status: ('A' for Active; 'I' for Inactive)
REMARK    1  A    between atoms: C_5  and  N_6 
REMARK       I    between atoms: N_6  and  C_7 
REMARK    2  A    between atoms: C_7  and  C_8 
REMARK    3  A    between atoms: C_12  and  C_13 
REMARK    4  A    between atoms: C_15  and  O_16 
ROOT
HETATM    1  C   UNL     1      -3.651   4.323 -31.516  1.00  0.00     0.120 A 
HETATM    2  N   UNL     1      -2.784   3.333 -31.150  1.00  0.00    -0.272 N 
HETATM    3  H   UNL     1      -1.931   3.443 -30.609  1.00  0.00     0.189 HD
HETATM    4  N   UNL     1      -3.144   2.106 -31.555  1.00  0.00    -0.174 NA
HETATM    5  C   UNL     1      -4.271   2.298 -32.260  1.00  0.00     0.089 A 
HETATM    6  C   UNL     1      -4.625   3.677 -32.250  1.00  0.00     0.071 A 
ENDROOT
BRANCH   1   7
HETATM    7  C   UNL     1      -3.434   5.694 -31.142  1.00  0.00     0.270 C 
HETATM    8  N   UNL     1      -2.557   5.878 -30.097  1.00  0.00    -0.351 N 
HETATM    9  H   UNL     1      -2.020   5.082 -29.786  1.00  0.00     0.163 HD
HETATM   10  O   UNL     1      -3.984   6.624 -31.724  1.00  0.00    -0.266 OA
BRANCH   8  11
HETATM   11  C   UNL     1      -2.143   7.203 -29.649  1.00  0.00     0.084 C 
HETATM   12  C   UNL     1      -1.825   7.184 -28.149  1.00  0.00     0.025 C 
HETATM   13  C   UNL     1      -0.518   6.455 -27.825  1.00  0.00     0.006 C 
HETATM   14  C   UNL     1       0.677   6.962 -28.645  1.00  0.00    -0.019 C 
HETATM   15  C   UNL     1       1.156   8.331 -28.153  1.00  0.00     0.010 C 
HETATM   16  C   UNL     1       0.347   6.980 -30.143  1.00  0.00     0.006 C 
HETATM   17  C   UNL     1      -0.951   7.722 -30.464  1.00  0.00     0.025 C 
ENDBRANCH   8  11
ENDBRANCH   1   7
BRANCH   5  18
HETATM   18  C   UNL     1      -4.981   1.190 -32.904  1.00  0.00    -0.003 A 
HETATM   19  C   UNL     1      -6.158   1.431 -33.635  1.00  0.00     0.050 A 
HETATM   20  C   UNL     1      -6.835   0.385 -34.265  1.00  0.00     0.069 A 
HETATM   21  C   UNL     1      -6.338  -0.916 -34.158  1.00  0.00     0.037 A 
HETATM   22  C   UNL     1      -5.178  -1.174 -33.431  1.00  0.00     0.004 A 
HETATM   23  C   UNL     1      -4.501  -0.125 -32.806  1.00  0.00     0.014 A 
BRANCH  20  24
HETATM   24  O   UNL     1      -7.979   0.498 -35.008  1.00  0.00    -0.356 OA
HETATM   25  C   UNL     1      -9.154   0.904 -34.317  1.00  0.00     0.210 C 
ENDBRANCH  20  24
ENDBRANCH   5  18
TORSDOF 4
ENDMDL
MODEL 10
REMARK VINA RESULT:      -7.6      2.691      8.620
REMARK  4 active torsions:
REMARK  status: ('A' for Active; 'I' for Inactive)
REMARK    1  A    between atoms: C_5  and  N_6 
REMARK       I    between atoms: N_6  and  C_7 
REMARK    2  A    between atoms: C_7  and  C_8 
REMARK    3  A    between atoms: C_12  and  C_13 
REMARK    4  A    between atoms: C_15  and  O_16 
ROOT
HETATM    1  C   UNL     1      -4.745   2.589 -31.096  1.00  0.00     0.120 A 
HETATM    2  N   UNL     1      -5.002   3.628 -30.248  1.00  0.00    -0.272 N 
HETATM    3  H   UNL     1      -5.607   3.610 -29.432  1.00  0.00     0.189 HD
HETATM    4  N   UNL     1      -4.357   4.764 -30.554  1.00  0.00    -0.174 NA
HETATM    5  C   UNL     1      -3.682   4.477 -31.680  1.00  0.00     0.089 A 
HETATM    6  C   UNL     1      -3.895   3.117 -32.046  1.00  0.00     0.071 A 
ENDROOT
BRANCH   1   7
HETATM    7  C   UNL     1      -5.331   1.290 -30.899  1.00  0.00     0.270 C 
HETATM    8  N   UNL     1      -5.581   0.587 -32.056  1.00  0.00    -0.351 N 
HETATM    9  H   UNL     1      -5.200   0.945 -32.918  1.00  0.00     0.163 HD
HETATM   10  O   UNL     1      -5.574   0.847 -29.782  1.00  0.00    -0.266 OA
BRANCH   8  11
HETATM   11  C   UNL     1      -6.081  -0.783 -32.043  1.00  0.00     0.084 C 
HETATM   12  C   UNL     1      -7.308  -0.914 -32.954  1.00  0.00     0.025 C 
HETATM   13  C   UNL     1      -6.954  -0.852 -34.443  1.00  0.00     0.006 C 
HETATM   14  C   UNL     1      -5.850  -1.841 -34.844  1.00  0.00    -0.019 C 
HETATM   15  C   UNL     1      -6.372  -3.280 -34.885  1.00  0.00     0.010 C 
HETATM   16  C   UNL     1      -4.630  -1.705 -33.924  1.00  0.00     0.006 C 
HETATM   17  C   UNL     1      -4.986  -1.783 -32.438  1.00  0.00     0.025 C 
ENDBRANCH   8  11
ENDBRANCH   1   7
BRANCH   5  18
HETATM   18  C   UNL     1      -2.856   5.475 -32.364  1.00  0.00    -0.003 A 
HETATM   19  C   UNL     1      -2.811   6.801 -31.893  1.00  0.00     0.050 A 
HETATM   20  C   UNL     1      -2.017   7.758 -32.528  1.00  0.00     0.069 A 
HETATM   21  C   UNL     1      -1.268   7.393 -33.648  1.00  0.00     0.037 A 
HETATM   22  C   UNL     1      -1.308   6.087 -34.133  1.00  0.00     0.004 A 
HETATM   23  C   UNL     1      -2.099   5.131 -33.493  1.00  0.00     0.014 A 
BRANCH  20  24
HETATM   24  O   UNL     1      -1.885   9.069 -32.157  1.00  0.00    -0.356 OA
HETATM   25  C   UNL     1      -2.525   9.461 -30.949  1.00  0.00     0.210 C 
ENDBRANCH  20  24
ENDBRANCH   5  18
TORSDOF 4
ENDMDL
