MODEL 1
REMARK VINA RESULT:     -10.5      0.000      0.000
REMARK  4 active torsions:
REMARK  status: ('A' for Active; 'I' for Inactive)
REMARK    1  A    between atoms: C_2  and  C_3 
REMARK    2  A    between atoms: C_6  and  N_7 
REMARK       I    between atoms: N_7  and  C_8 
REMARK       I    between atoms: C_8  and  N_9 
REMARK    3  A    between atoms: N_9  and  C_10 
REMARK       I    between atoms: N_19  and  C_20 
REMARK       I    between atoms: C_20  and  N_21 
REMARK    4  A    between atoms: N_21  and  C_22 
ROOT
HETATM    1  C   UNL     1      -6.192   4.519 -31.773  1.00  0.00     0.105 A 
HETATM    2  C   UNL     1      -4.955   3.980 -32.456  1.00  0.00     0.274 A 
HETATM    3  O   UNL     1      -4.967   2.817 -32.869  1.00  0.00    -0.265 OA
HETATM    4  N   UNL     1      -3.869   4.855 -32.599  1.00  0.00    -0.315 N 
HETATM    5  C   UNL     1      -3.924   6.178 -32.165  1.00  0.00     0.020 A 
HETATM    6  C   UNL     1      -2.757   7.107 -32.445  1.00  0.00     0.054 C 
HETATM    7  C   UNL     1      -2.030   6.698 -33.720  1.00  0.00     0.020 C 
HETATM    8  C   UNL     1      -1.518   5.283 -33.504  1.00  0.00     0.023 C 
HETATM    9  C   UNL     1      -0.528   5.247 -32.332  1.00  0.00     0.134 C 
HETATM   10  N   UNL     1      -0.980   5.908 -31.108  1.00  0.00    -0.333 N 
HETATM   11  C   UNL     1      -0.265   5.593 -29.953  1.00  0.00     0.318 C 
HETATM   12  N   UNL     1      -0.530   6.380 -28.860  1.00  0.00    -0.338 N 
HETATM   13  O   UNL     1       0.543   4.668 -29.907  1.00  0.00    -0.247 OA
HETATM   14  C   UNL     1      -1.775   7.131 -31.263  1.00  0.00     0.138 C 
HETATM   15  C   UNL     1      -2.702   4.326 -33.307  1.00  0.00     0.138 C 
HETATM   16  C   UNL     1      -5.021   6.628 -31.535  1.00  0.00     0.028 A 
HETATM   17  C   UNL     1      -6.161   5.778 -31.317  1.00  0.00     0.037 A 
HETATM   18  H   UNL     1      -0.874   7.305 -29.041  1.00  0.00     0.164 HD
ENDROOT
BRANCH   1  19
HETATM   19  N   UNL     1      -7.271   3.652 -31.724  1.00  0.00    -0.304 N 
HETATM   20  C   UNL     1      -7.624   2.800 -30.723  1.00  0.00     0.325 C 
HETATM   21  N   UNL     1      -8.826   2.163 -30.818  1.00  0.00    -0.309 N 
HETATM   22  O   UNL     1      -6.984   2.627 -29.686  1.00  0.00    -0.247 OA
HETATM   23  H   UNL     1      -9.083   1.789 -29.911  1.00  0.00     0.170 HD
HETATM   24  H   UNL     1      -7.943   3.817 -32.464  1.00  0.00     0.171 HD
BRANCH  21  25
HETATM   25  C   UNL     1      -9.745   1.949 -31.854  1.00  0.00     0.036 A 
HETATM   26  C   UNL     1      -9.831   0.783 -32.617  1.00  0.00     0.030 A 
HETATM   27  C   UNL     1     -10.809   0.659 -33.617  1.00  0.00     0.017 A 
HETATM   28  C   UNL     1     -11.720   1.695 -33.853  1.00  0.00     0.009 A 
HETATM   29  C   UNL     1     -11.647   2.854 -33.076  1.00  0.00     0.017 A 
HETATM   30  C   UNL     1     -10.678   2.971 -32.077  1.00  0.00     0.030 A 
BRANCH  28  31
HETATM   31  C   UNL     1     -12.783   1.614 -34.898  1.00  0.00     0.155 C 
HETATM   32  C   UNL     1     -14.145   1.098 -34.515  1.00  0.00     0.096 C 
HETATM   33  O   UNL     1     -12.536   1.966 -36.050  1.00  0.00    -0.293 OA
ENDBRANCH  28  31
ENDBRANCH  21  25
ENDBRANCH   1  19
BRANCH  12  34
HETATM   34  C   UNL     1       0.196   6.214 -27.604  1.00  0.00     0.086 C 
HETATM   35  C   UNL     1       1.288   7.284 -27.452  1.00  0.00     0.025 C 
HETATM   36  C   UNL     1       0.714   8.675 -27.182  1.00  0.00     0.002 C 
HETATM   37  C   UNL     1      -0.235   8.674 -25.987  1.00  0.00     0.000 C 
HETATM   38  C   UNL     1      -1.341   7.636 -26.143  1.00  0.00     0.002 C 
HETATM   39  C   UNL     1      -0.775   6.243 -26.417  1.00  0.00     0.025 C 
ENDBRANCH  12  34
TORSDOF 4
ENDMDL
MODEL 2
REMARK VINA RESULT:     -10.2      3.076      4.233
REMARK  4 active torsions:
REMARK  status: ('A' for Active; 'I' for Inactive)
REMARK    1  A    between atoms: C_2  and  C_3 
REMARK    2  A    between atoms: C_6  and  N_7 
REMARK       I    between atoms: N_7  and  C_8 
REMARK       I    between atoms: C_8  and  N_9 
REMARK    3  A    between atoms: N_9  and  C_10 
REMARK       I    between atoms: N_19  and  C_20 
REMARK       I    between atoms: C_20  and  N_21 
REMARK    4  A    between atoms: N_21  and  C_22 
ROOT
HETATM    1  C   UNL     1      -4.347   4.477 -31.907  1.00  0.00     0.105 A 
HETATM    2  C   UNL     1      -2.948   4.062 -31.511  1.00  0.00     0.274 A 
HETATM    3  O   UNL     1      -2.661   2.862 -31.527  1.00  0.00    -0.265 OA
HETATM    4  N   UNL     1      -2.049   5.083 -31.170  1.00  0.00    -0.315 N 
HETATM    5  C   UNL     1      -2.404   6.428 -31.220  1.00  0.00     0.020 A 
HETATM    6  C   UNL     1      -1.357   7.491 -30.945  1.00  0.00     0.054 C 
HETATM    7  C   UNL     1       0.031   7.001 -31.338  1.00  0.00     0.020 C 
HETATM    8  C   UNL     1       0.320   5.767 -30.499  1.00  0.00     0.023 C 
HETATM    9  C   UNL     1       0.322   6.125 -29.006  1.00  0.00     0.134 C 
HETATM   10  N   UNL     1      -0.830   6.900 -28.545  1.00  0.00    -0.333 N 
HETATM   11  C   UNL     1      -1.020   6.935 -27.164  1.00  0.00     0.318 C 
HETATM   12  N   UNL     1      -1.948   7.844 -26.718  1.00  0.00    -0.338 N 
HETATM   13  O   UNL     1      -0.409   6.199 -26.394  1.00  0.00    -0.247 OA
HETATM   14  C   UNL     1      -1.370   7.908 -29.465  1.00  0.00     0.138 C 
HETATM   15  C   UNL     1      -0.687   4.659 -30.839  1.00  0.00     0.138 C 
HETATM   16  C   UNL     1      -3.661   6.774 -31.545  1.00  0.00     0.028 A 
HETATM   17  C   UNL     1      -4.650   5.782 -31.871  1.00  0.00     0.037 A 
HETATM   18  H   UNL     1      -2.118   8.641 -27.301  1.00  0.00     0.164 HD
ENDROOT
BRANCH   1  19
HETATM   19  N   UNL     1      -5.180   3.450 -32.315  1.00  0.00    -0.304 N 
HETATM   20  C   UNL     1      -6.537   3.454 -32.422  1.00  0.00     0.325 C 
HETATM   21  N   UNL     1      -7.138   2.382 -33.011  1.00  0.00    -0.309 N 
HETATM   22  O   UNL     1      -7.264   4.398 -32.112  1.00  0.00    -0.247 OA
HETATM   23  H   UNL     1      -8.087   2.626 -33.271  1.00  0.00     0.170 HD
HETATM   24  H   UNL     1      -4.676   2.675 -32.730  1.00  0.00     0.171 HD
BRANCH  21  25
HETATM   25  C   UNL     1      -6.726   1.082 -33.337  1.00  0.00     0.036 A 
HETATM   26  C   UNL     1      -6.092   0.202 -32.458  1.00  0.00     0.030 A 
HETATM   27  C   UNL     1      -5.743  -1.092 -32.876  1.00  0.00     0.017 A 
HETATM   28  C   UNL     1      -6.039  -1.523 -34.175  1.00  0.00     0.009 A 
HETATM   29  C   UNL     1      -6.693  -0.649 -35.048  1.00  0.00     0.017 A 
HETATM   30  C   UNL     1      -7.045   0.634 -34.625  1.00  0.00     0.030 A 
BRANCH  28  31
HETATM   31  C   UNL     1      -5.698  -2.889 -34.670  1.00  0.00     0.155 C 
HETATM   32  C   UNL     1      -6.808  -3.882 -34.898  1.00  0.00     0.096 C 
HETATM   33  O   UNL     1      -4.525  -3.186 -34.883  1.00  0.00    -0.293 OA
ENDBRANCH  28  31
ENDBRANCH  21  25
ENDBRANCH   1  19
BRANCH  12  34
HETATM   34  C   UNL     1      -2.199   8.042 -25.293  1.00  0.00     0.086 C 
HETATM   35  C   UNL     1      -1.374   9.217 -24.746  1.00  0.00     0.025 C 
HETATM   36  C   UNL     1      -1.881  10.572 -25.242  1.00  0.00     0.002 C 
HETATM   37  C   UNL     1      -3.369  10.757 -24.959  1.00  0.00     0.000 C 
HETATM   38  C   UNL     1      -4.200   9.611 -25.526  1.00  0.00     0.002 C 
HETATM   39  C   UNL     1      -3.697   8.253 -25.038  1.00  0.00     0.025 C 
ENDBRANCH  12  34
TORSDOF 4
ENDMDL
MODEL 3
REMARK VINA RESULT:      -9.7      2.910     10.813
REMARK  4 active torsions:
REMARK  status: ('A' for Active; 'I' for Inactive)
REMARK    1  A    between atoms: C_2  and  C_3 
REMARK    2  A    between atoms: C_6  and  N_7 
REMARK       I    between atoms: N_7  and  C_8 
REMARK       I    between atoms: C_8  and  N_9 
REMARK    3  A    between atoms: N_9  and  C_10 
REMARK       I    between atoms: N_19  and  C_20 
REMARK       I    between atoms: C_20  and  N_21 
REMARK    4  A    between atoms: N_21  and  C_22 
ROOT
HETATM    1  C   UNL     1      -2.164   5.578 -30.896  1.00  0.00     0.105 A 
HETATM    2  C   UNL     1      -3.615   5.818 -30.547  1.00  0.00     0.274 A 
HETATM    3  O   UNL     1      -3.884   6.310 -29.447  1.00  0.00    -0.265 OA
HETATM    4  N   UNL     1      -4.572   5.487 -31.517  1.00  0.00    -0.315 N 
HETATM    5  C   UNL     1      -4.214   4.986 -32.766  1.00  0.00     0.020 A 
HETATM    6  C   UNL     1      -5.287   4.749 -33.814  1.00  0.00     0.054 C 
HETATM    7  C   UNL     1      -6.453   5.711 -33.626  1.00  0.00     0.020 C 
HETATM    8  C   UNL     1      -7.022   5.453 -32.240  1.00  0.00     0.023 C 
HETATM    9  C   UNL     1      -7.543   4.012 -32.137  1.00  0.00     0.134 C 
HETATM   10  N   UNL     1      -6.620   2.977 -32.603  1.00  0.00    -0.333 N 
HETATM   11  C   UNL     1      -6.924   1.675 -32.205  1.00  0.00     0.318 C 
HETATM   12  N   UNL     1      -6.206   0.684 -32.826  1.00  0.00    -0.338 N 
HETATM   13  O   UNL     1      -7.769   1.426 -31.348  1.00  0.00    -0.247 OA
HETATM   14  C   UNL     1      -5.789   3.296 -33.768  1.00  0.00     0.138 C 
HETATM   15  C   UNL     1      -5.965   5.776 -31.174  1.00  0.00     0.138 C 
HETATM   16  C   UNL     1      -2.922   4.752 -33.046  1.00  0.00     0.028 A 
HETATM   17  C   UNL     1      -1.886   5.031 -32.087  1.00  0.00     0.037 A 
HETATM   18  H   UNL     1      -5.838   0.893 -33.736  1.00  0.00     0.164 HD
ENDROOT
BRANCH   1  19
HETATM   19  N   UNL     1      -1.246   5.994 -29.947  1.00  0.00    -0.304 N 
HETATM   20  C   UNL     1      -0.032   5.452 -29.652  1.00  0.00     0.325 C 
HETATM   21  N   UNL     1       0.782   6.131 -28.795  1.00  0.00    -0.309 N 
HETATM   22  O   UNL     1       0.432   4.438 -30.173  1.00  0.00    -0.247 OA
HETATM   23  H   UNL     1       1.729   5.777 -28.875  1.00  0.00     0.170 HD
HETATM   24  H   UNL     1      -1.463   6.904 -29.560  1.00  0.00     0.171 HD
BRANCH  21  25
HETATM   25  C   UNL     1       0.594   7.182 -27.887  1.00  0.00     0.036 A 
HETATM   26  C   UNL     1      -0.335   7.179 -26.844  1.00  0.00     0.030 A 
HETATM   27  C   UNL     1      -0.427   8.275 -25.971  1.00  0.00     0.017 A 
HETATM   28  C   UNL     1       0.421   9.378 -26.124  1.00  0.00     0.009 A 
HETATM   29  C   UNL     1       1.365   9.372 -27.155  1.00  0.00     0.017 A 
HETATM   30  C   UNL     1       1.458   8.277 -28.016  1.00  0.00     0.030 A 
BRANCH  28  31
HETATM   31  C   UNL     1       0.372  10.566 -25.221  1.00  0.00     0.155 C 
HETATM   32  C   UNL     1       1.485  11.578 -25.285  1.00  0.00     0.096 C 
HETATM   33  O   UNL     1      -0.569  10.703 -24.442  1.00  0.00    -0.293 OA
ENDBRANCH  28  31
ENDBRANCH  21  25
ENDBRANCH   1  19
BRANCH  12  34
HETATM   34  C   UNL     1      -6.466  -0.729 -32.563  1.00  0.00     0.086 C 
HETATM   35  C   UNL     1      -7.361  -1.336 -33.654  1.00  0.00     0.025 C 
HETATM   36  C   UNL     1      -6.632  -1.500 -34.989  1.00  0.00     0.002 C 
HETATM   37  C   UNL     1      -5.333  -2.286 -34.831  1.00  0.00     0.000 C 
HETATM   38  C   UNL     1      -4.425  -1.672 -33.772  1.00  0.00     0.002 C 
HETATM   39  C   UNL     1      -5.147  -1.502 -32.436  1.00  0.00     0.025 C 
ENDBRANCH  12  34
TORSDOF 4
ENDMDL
MODEL 4
REMARK VINA RESULT:      -9.5      2.387     10.910
REMARK  4 active torsions:
REMARK  status: ('A' for Active; 'I' for Inactive)
REMARK    1  A    between atoms: C_2  and  C_3 
REMARK    2  A    between atoms: C_6  and  N_7 
REMARK       I    between atoms: N_7  and  C_8 
REMARK       I    between atoms: C_8  and  N_9 
REMARK    3  A    between atoms: N_9  and  C_10 
REMARK       I    between atoms: N_19  and  C_20 
REMARK       I    between atoms: C_20  and  N_21 
REMARK    4  A    between atoms: N_21  and  C_22 
ROOT
HETATM    1  C   UNL     1      -4.559   4.287 -30.824  1.00  0.00     0.105 A 
HETATM    2  C   UNL     1      -4.234   3.069 -31.660  1.00  0.00     0.274 A 
HETATM    3  O   UNL     1      -3.204   3.078 -32.340  1.00  0.00    -0.265 OA
HETATM    4  N   UNL     1      -5.122   1.987 -31.587  1.00  0.00    -0.315 N 
HETATM    5  C   UNL     1      -6.243   2.004 -30.761  1.00  0.00     0.020 A 
HETATM    6  C   UNL     1      -7.107   0.762 -30.643  1.00  0.00     0.054 C 
HETATM    7  C   UNL     1      -6.280  -0.498 -30.866  1.00  0.00     0.020 C 
HETATM    8  C   UNL     1      -5.702  -0.406 -32.270  1.00  0.00     0.023 C 
HETATM    9  C   UNL     1      -6.831  -0.359 -33.310  1.00  0.00     0.134 C 
HETATM   10  N   UNL     1      -7.892   0.610 -33.040  1.00  0.00    -0.333 N 
HETATM   11  C   UNL     1      -8.724   0.911 -34.119  1.00  0.00     0.318 C 
HETATM   12  N   UNL     1      -9.852   1.630 -33.814  1.00  0.00    -0.338 N 
HETATM   13  O   UNL     1      -8.464   0.565 -35.269  1.00  0.00    -0.247 OA
HETATM   14  C   UNL     1      -8.278   0.808 -31.639  1.00  0.00     0.138 C 
HETATM   15  C   UNL     1      -4.760   0.802 -32.366  1.00  0.00     0.138 C 
HETATM   16  C   UNL     1      -6.530   3.107 -30.050  1.00  0.00     0.028 A 
HETATM   17  C   UNL     1      -5.687   4.272 -30.101  1.00  0.00     0.037 A 
HETATM   18  H   UNL     1     -10.200   1.552 -32.876  1.00  0.00     0.164 HD
ENDROOT
BRANCH   1  19
HETATM   19  N   UNL     1      -3.617   5.301 -30.858  1.00  0.00    -0.304 N 
HETATM   20  C   UNL     1      -3.442   6.260 -31.809  1.00  0.00     0.325 C 
HETATM   21  N   UNL     1      -2.559   7.265 -31.552  1.00  0.00    -0.309 N 
HETATM   22  O   UNL     1      -4.091   6.343 -32.852  1.00  0.00    -0.247 OA
HETATM   23  H   UNL     1      -2.723   8.033 -32.194  1.00  0.00     0.170 HD
HETATM   24  H   UNL     1      -3.125   5.413 -29.980  1.00  0.00     0.171 HD
BRANCH  21  25
HETATM   25  C   UNL     1      -1.536   7.457 -30.613  1.00  0.00     0.036 A 
HETATM   26  C   UNL     1      -0.266   6.882 -30.688  1.00  0.00     0.030 A 
HETATM   27  C   UNL     1       0.700   7.160 -29.707  1.00  0.00     0.017 A 
HETATM   28  C   UNL     1       0.408   8.029 -28.649  1.00  0.00     0.009 A 
HETATM   29  C   UNL     1      -0.857   8.620 -28.585  1.00  0.00     0.017 A 
HETATM   30  C   UNL     1      -1.811   8.347 -29.567  1.00  0.00     0.030 A 
BRANCH  28  31
HETATM   31  C   UNL     1       1.397   8.365 -27.583  1.00  0.00     0.155 C 
HETATM   32  C   UNL     1       1.520   7.456 -26.388  1.00  0.00     0.096 C 
HETATM   33  O   UNL     1       2.094   9.371 -27.692  1.00  0.00    -0.293 OA
ENDBRANCH  28  31
ENDBRANCH  21  25
ENDBRANCH   1  19
BRANCH  12  34
HETATM   34  C   UNL     1     -10.850   1.954 -34.829  1.00  0.00     0.086 C 
HETATM   35  C   UNL     1     -12.170   1.216 -34.559  1.00  0.00     0.025 C 
HETATM   36  C   UNL     1     -12.916   1.771 -33.345  1.00  0.00     0.002 C 
HETATM   37  C   UNL     1     -13.131   3.278 -33.453  1.00  0.00     0.000 C 
HETATM   38  C   UNL     1     -11.822   4.022 -33.690  1.00  0.00     0.002 C 
HETATM   39  C   UNL     1     -11.069   3.471 -34.901  1.00  0.00     0.025 C 
ENDBRANCH  12  34
TORSDOF 4
ENDMDL
MODEL 5
REMARK VINA RESULT:      -9.4      3.080      4.656
REMARK  4 active torsions:
REMARK  status: ('A' for Active; 'I' for Inactive)
REMARK    1  A    between atoms: C_2  and  C_3 
REMARK    2  A    between atoms: C_6  and  N_7 
REMARK       I    between atoms: N_7  and  C_8 
REMARK       I    between atoms: C_8  and  N_9 
REMARK    3  A    between atoms: N_9  and  C_10 
REMARK       I    between atoms: N_19  and  C_20 
REMARK       I    between atoms: C_20  and  N_21 
REMARK    4  A    between atoms: N_21  and  C_22 
ROOT
HETATM    1  C   UNL     1      -6.969   4.044 -31.331  1.00  0.00     0.105 A 
HETATM    2  C   UNL     1      -6.975   5.399 -32.002  1.00  0.00     0.274 A 
HETATM    3  O   UNL     1      -7.375   5.479 -33.167  1.00  0.00    -0.265 OA
HETATM    4  N   UNL     1      -6.545   6.494 -31.239  1.00  0.00    -0.315 N 
HETATM    5  C   UNL     1      -6.155   6.361 -29.909  1.00  0.00     0.020 A 
HETATM    6  C   UNL     1      -5.803   7.598 -29.104  1.00  0.00     0.054 C 
HETATM    7  C   UNL     1      -6.573   8.812 -29.609  1.00  0.00     0.020 C 
HETATM    8  C   UNL     1      -6.175   9.016 -31.062  1.00  0.00     0.023 C 
HETATM    9  C   UNL     1      -4.670   9.299 -31.169  1.00  0.00     0.134 C 
HETATM   10  N   UNL     1      -3.804   8.372 -30.441  1.00  0.00    -0.333 N 
HETATM   11  C   UNL     1      -2.456   8.398 -30.799  1.00  0.00     0.318 C 
HETATM   12  N   UNL     1      -1.610   7.709 -29.966  1.00  0.00    -0.338 N 
HETATM   13  O   UNL     1      -2.049   8.987 -31.797  1.00  0.00    -0.247 OA
HETATM   14  C   UNL     1      -4.292   7.874 -29.150  1.00  0.00     0.138 C 
HETATM   15  C   UNL     1      -6.608   7.801 -31.895  1.00  0.00     0.138 C 
HETATM   16  C   UNL     1      -6.128   5.144 -29.341  1.00  0.00     0.028 A 
HETATM   17  C   UNL     1      -6.519   3.968 -30.071  1.00  0.00     0.037 A 
HETATM   18  H   UNL     1      -1.909   7.587 -29.016  1.00  0.00     0.164 HD
ENDROOT
BRANCH   1  19
HETATM   19  N   UNL     1      -7.477   3.002 -32.087  1.00  0.00    -0.304 N 
HETATM   20  C   UNL     1      -8.768   2.778 -32.457  1.00  0.00     0.325 C 
HETATM   21  N   UNL     1      -9.016   1.779 -33.350  1.00  0.00    -0.309 N 
HETATM   22  O   UNL     1      -9.728   3.472 -32.120  1.00  0.00    -0.247 OA
HETATM   23  H   UNL     1      -9.945   1.895 -33.740  1.00  0.00     0.170 HD
HETATM   24  H   UNL     1      -6.755   2.452 -32.537  1.00  0.00     0.171 HD
BRANCH  21  25
HETATM   25  C   UNL     1      -8.278   0.690 -33.835  1.00  0.00     0.036 A 
HETATM   26  C   UNL     1      -7.459   0.720 -34.965  1.00  0.00     0.030 A 
HETATM   27  C   UNL     1      -6.738  -0.421 -35.352  1.00  0.00     0.017 A 
HETATM   28  C   UNL     1      -6.819  -1.600 -34.602  1.00  0.00     0.009 A 
HETATM   29  C   UNL     1      -7.623  -1.624 -33.459  1.00  0.00     0.017 A 
HETATM   30  C   UNL     1      -8.332  -0.485 -33.073  1.00  0.00     0.030 A 
BRANCH  28  31
HETATM   31  C   UNL     1      -6.070  -2.840 -34.963  1.00  0.00     0.155 C 
HETATM   32  C   UNL     1      -6.798  -4.159 -34.963  1.00  0.00     0.096 C 
HETATM   33  O   UNL     1      -4.878  -2.771 -35.253  1.00  0.00    -0.293 OA
ENDBRANCH  28  31
ENDBRANCH  21  25
ENDBRANCH   1  19
BRANCH  12  34
HETATM   34  C   UNL     1      -0.164   7.708 -30.174  1.00  0.00     0.086 C 
HETATM   35  C   UNL     1       0.582   7.445 -28.858  1.00  0.00     0.025 C 
HETATM   36  C   UNL     1       0.437   5.999 -28.379  1.00  0.00     0.002 C 
HETATM   37  C   UNL     1       0.843   5.002 -29.461  1.00  0.00     0.000 C 
HETATM   38  C   UNL     1       0.084   5.236 -30.762  1.00  0.00     0.002 C 
HETATM   39  C   UNL     1       0.222   6.680 -31.245  1.00  0.00     0.025 C 
ENDBRANCH  12  34
TORSDOF 4
ENDMDL
MODEL 6
REMARK VINA RESULT:      -9.1      2.596     10.943
REMARK  4 active torsions:
REMARK  status: ('A' for Active; 'I' for Inactive)
REMARK    1  A    between atoms: C_2  and  C_3 
REMARK    2  A    between atoms: C_6  and  N_7 
REMARK       I    between atoms: N_7  and  C_8 
REMARK       I    between atoms: C_8  and  N_9 
REMARK    3  A    between atoms: N_9  and  C_10 
REMARK       I    between atoms: N_19  and  C_20 
REMARK       I    between atoms: C_20  and  N_21 
REMARK    4  A    between atoms: N_21  and  C_22 
ROOT
HETATM    1  C   UNL     1      -2.689   6.225 -30.666  1.00  0.00     0.105 A 
HETATM    2  C   UNL     1      -4.031   6.433 -30.000  1.00  0.00     0.274 A 
HETATM    3  O   UNL     1      -4.055   6.738 -28.804  1.00  0.00    -0.265 OA
HETATM    4  N   UNL     1      -5.173   6.287 -30.799  1.00  0.00    -0.315 N 
HETATM    5  C   UNL     1      -5.092   5.995 -32.158  1.00  0.00     0.020 A 
HETATM    6  C   UNL     1      -6.358   5.957 -32.994  1.00  0.00     0.054 C 
HETATM    7  C   UNL     1      -7.413   6.898 -32.425  1.00  0.00     0.020 C 
HETATM    8  C   UNL     1      -7.716   6.423 -31.013  1.00  0.00     0.023 C 
HETATM    9  C   UNL     1      -8.282   4.996 -31.040  1.00  0.00     0.134 C 
HETATM   10  N   UNL     1      -7.523   4.035 -31.840  1.00  0.00    -0.333 N 
HETATM   11  C   UNL     1      -7.812   2.691 -31.602  1.00  0.00     0.318 C 
HETATM   12  N   UNL     1      -7.281   1.804 -32.505  1.00  0.00    -0.338 N 
HETATM   13  O   UNL     1      -8.487   2.319 -30.645  1.00  0.00    -0.247 OA
HETATM   14  C   UNL     1      -6.918   4.528 -33.081  1.00  0.00     0.138 C 
HETATM   15  C   UNL     1      -6.456   6.542 -30.143  1.00  0.00     0.138 C 
HETATM   16  C   UNL     1      -3.892   5.785 -32.724  1.00  0.00     0.028 A 
HETATM   17  C   UNL     1      -2.677   5.879 -31.960  1.00  0.00     0.037 A 
HETATM   18  H   UNL     1      -7.087   2.154 -33.424  1.00  0.00     0.164 HD
ENDROOT
BRANCH   1  19
HETATM   19  N   UNL     1      -1.584   6.458 -29.866  1.00  0.00    -0.304 N 
HETATM   20  C   UNL     1      -0.443   5.721 -29.766  1.00  0.00     0.325 C 
HETATM   21  N   UNL     1       0.589   6.233 -29.038  1.00  0.00    -0.309 N 
HETATM   22  O   UNL     1      -0.233   4.664 -30.361  1.00  0.00    -0.247 OA
HETATM   23  H   UNL     1       1.443   5.736 -29.266  1.00  0.00     0.170 HD
HETATM   24  H   UNL     1      -1.591   7.378 -29.442  1.00  0.00     0.171 HD
BRANCH  21  25
HETATM   25  C   UNL     1       0.712   7.270 -28.103  1.00  0.00     0.036 A 
HETATM   26  C   UNL     1       0.142   8.538 -28.237  1.00  0.00     0.030 A 
HETATM   27  C   UNL     1       0.302   9.500 -27.227  1.00  0.00     0.017 A 
HETATM   28  C   UNL     1       1.022   9.198 -26.066  1.00  0.00     0.009 A 
HETATM   29  C   UNL     1       1.575   7.923 -25.922  1.00  0.00     0.017 A 
HETATM   30  C   UNL     1       1.407   6.966 -26.925  1.00  0.00     0.030 A 
BRANCH  28  31
HETATM   31  C   UNL     1       1.218  10.179 -24.958  1.00  0.00     0.155 C 
HETATM   32  C   UNL     1       0.029  10.594 -24.132  1.00  0.00     0.096 C 
HETATM   33  O   UNL     1       2.338  10.634 -24.736  1.00  0.00    -0.293 OA
ENDBRANCH  28  31
ENDBRANCH  21  25
ENDBRANCH   1  19
BRANCH  12  34
HETATM   34  C   UNL     1      -7.560   0.372 -32.424  1.00  0.00     0.086 C 
HETATM   35  C   UNL     1      -8.496  -0.071 -33.558  1.00  0.00     0.025 C 
HETATM   36  C   UNL     1      -7.807  -0.067 -34.924  1.00  0.00     0.002 C 
HETATM   37  C   UNL     1      -6.519  -0.885 -34.911  1.00  0.00     0.000 C 
HETATM   38  C   UNL     1      -5.570  -0.430 -33.808  1.00  0.00     0.002 C 
HETATM   39  C   UNL     1      -6.252  -0.429 -32.440  1.00  0.00     0.025 C 
ENDBRANCH  12  34
TORSDOF 4
ENDMDL
MODEL 7
REMARK VINA RESULT:      -8.6      2.413      4.018
REMARK  4 active torsions:
REMARK  status: ('A' for Active; 'I' for Inactive)
REMARK    1  A    between atoms: C_2  and  C_3 
REMARK    2  A    between atoms: C_6  and  N_7 
REMARK       I    between atoms: N_7  and  C_8 
REMARK       I    between atoms: C_8  and  N_9 
REMARK    3  A    between atoms: N_9  and  C_10 
REMARK       I    between atoms: N_19  and  C_20 
REMARK       I    between atoms: C_20  and  N_21 
REMARK    4  A    between atoms: N_21  and  C_22 
ROOT
HETATM    1  C   UNL     1      -3.739   5.726 -32.203  1.00  0.00     0.105 A 
HETATM    2  C   UNL     1      -2.603   4.961 -31.561  1.00  0.00     0.274 A 
HETATM    3  O   UNL     1      -2.577   3.733 -31.679  1.00  0.00    -0.265 OA
HETATM    4  N   UNL     1      -1.626   5.709 -30.888  1.00  0.00    -0.315 N 
HETATM    5  C   UNL     1      -1.670   7.100 -30.830  1.00  0.00     0.020 A 
HETATM    6  C   UNL     1      -0.528   7.859 -30.180  1.00  0.00     0.054 C 
HETATM    7  C   UNL     1       0.781   7.091 -30.314  1.00  0.00     0.020 C 
HETATM    8  C   UNL     1       0.585   5.758 -29.610  1.00  0.00     0.023 C 
HETATM    9  C   UNL     1       0.286   5.979 -28.121  1.00  0.00     0.134 C 
HETATM   10  N   UNL     1      -0.757   6.962 -27.830  1.00  0.00    -0.333 N 
HETATM   11  C   UNL     1      -1.278   6.925 -26.536  1.00  0.00     0.318 C 
HETATM   12  N   UNL     1      -2.078   7.985 -26.190  1.00  0.00    -0.338 N 
HETATM   13  O   UNL     1      -1.047   6.003 -25.757  1.00  0.00    -0.247 OA
HETATM   14  C   UNL     1      -0.826   8.141 -28.699  1.00  0.00     0.138 C 
HETATM   15  C   UNL     1      -0.511   4.950 -30.319  1.00  0.00     0.138 C 
HETATM   16  C   UNL     1      -2.704   7.758 -31.381  1.00  0.00     0.028 A 
HETATM   17  C   UNL     1      -3.763   7.057 -32.056  1.00  0.00     0.037 A 
HETATM   18  H   UNL     1      -1.926   8.846 -26.681  1.00  0.00     0.164 HD
ENDROOT
BRANCH   1  19
HETATM   19  N   UNL     1      -4.637   4.961 -32.927  1.00  0.00    -0.304 N 
HETATM   20  C   UNL     1      -4.717   4.805 -34.278  1.00  0.00     0.325 C 
HETATM   21  N   UNL     1      -5.575   3.866 -34.766  1.00  0.00    -0.309 N 
HETATM   22  O   UNL     1      -4.003   5.384 -35.096  1.00  0.00    -0.247 OA
HETATM   23  H   UNL     1      -5.343   3.664 -35.731  1.00  0.00     0.170 HD
HETATM   24  H   UNL     1      -5.178   4.331 -32.347  1.00  0.00     0.171 HD
BRANCH  21  25
HETATM   25  C   UNL     1      -6.646   3.139 -34.225  1.00  0.00     0.036 A 
HETATM   26  C   UNL     1      -7.741   3.702 -33.568  1.00  0.00     0.030 A 
HETATM   27  C   UNL     1      -8.777   2.886 -33.086  1.00  0.00     0.017 A 
HETATM   28  C   UNL     1      -8.734   1.499 -33.271  1.00  0.00     0.009 A 
HETATM   29  C   UNL     1      -7.648   0.938 -33.948  1.00  0.00     0.017 A 
HETATM   30  C   UNL     1      -6.623   1.754 -34.432  1.00  0.00     0.030 A 
BRANCH  28  31
HETATM   31  C   UNL     1      -9.810   0.585 -32.786  1.00  0.00     0.155 C 
HETATM   32  C   UNL     1     -11.142   0.587 -33.491  1.00  0.00     0.096 C 
HETATM   33  O   UNL     1      -9.599  -0.152 -31.826  1.00  0.00    -0.293 OA
ENDBRANCH  28  31
ENDBRANCH  21  25
ENDBRANCH   1  19
BRANCH  12  34
HETATM   34  C   UNL     1      -2.633   8.117 -24.846  1.00  0.00     0.086 C 
HETATM   35  C   UNL     1      -1.926   9.235 -24.065  1.00  0.00     0.025 C 
HETATM   36  C   UNL     1      -2.285  10.630 -24.581  1.00  0.00     0.002 C 
HETATM   37  C   UNL     1      -3.795  10.846 -24.621  1.00  0.00     0.000 C 
HETATM   38  C   UNL     1      -4.503   9.758 -25.420  1.00  0.00     0.002 C 
HETATM   39  C   UNL     1      -4.146   8.361 -24.913  1.00  0.00     0.025 C 
ENDBRANCH  12  34
TORSDOF 4
ENDMDL
MODEL 8
REMARK VINA RESULT:      -8.5      5.925      9.261
REMARK  4 active torsions:
REMARK  status: ('A' for Active; 'I' for Inactive)
REMARK    1  A    between atoms: C_2  and  C_3 
REMARK    2  A    between atoms: C_6  and  N_7 
REMARK       I    between atoms: N_7  and  C_8 
REMARK       I    between atoms: C_8  and  N_9 
REMARK    3  A    between atoms: N_9  and  C_10 
REMARK       I    between atoms: N_19  and  C_20 
REMARK       I    between atoms: C_20  and  N_21 
REMARK    4  A    between atoms: N_21  and  C_22 
ROOT
HETATM    1  C   UNL     1      -8.797   2.379 -32.254  1.00  0.00     0.105 A 
HETATM    2  C   UNL     1     -10.047   2.505 -33.097  1.00  0.00     0.274 A 
HETATM    3  O   UNL     1     -10.058   1.986 -34.217  1.00  0.00    -0.265 OA
HETATM    4  N   UNL     1     -11.133   3.189 -32.534  1.00  0.00    -0.315 N 
HETATM    5  C   UNL     1     -11.090   3.709 -31.243  1.00  0.00     0.020 A 
HETATM    6  C   UNL     1     -12.334   4.345 -30.649  1.00  0.00     0.054 C 
HETATM    7  C   UNL     1     -13.595   3.720 -31.234  1.00  0.00     0.020 C 
HETATM    8  C   UNL     1     -13.558   3.969 -32.733  1.00  0.00     0.023 C 
HETATM    9  C   UNL     1     -13.566   5.476 -33.025  1.00  0.00     0.134 C 
HETATM   10  N   UNL     1     -12.596   6.266 -32.269  1.00  0.00    -0.333 N 
HETATM   11  C   UNL     1     -12.350   7.549 -32.758  1.00  0.00     0.318 C 
HETATM   12  N   UNL     1     -11.628   8.370 -31.928  1.00  0.00    -0.338 N 
HETATM   13  O   UNL     1     -12.742   7.922 -33.861  1.00  0.00    -0.247 OA
HETATM   14  C   UNL     1     -12.342   5.864 -30.881  1.00  0.00     0.138 C 
HETATM   15  C   UNL     1     -12.347   3.254 -33.350  1.00  0.00     0.138 C 
HETATM   16  C   UNL     1      -9.961   3.613 -30.523  1.00  0.00     0.028 A 
HETATM   17  C   UNL     1      -8.792   2.958 -31.047  1.00  0.00     0.037 A 
HETATM   18  H   UNL     1     -11.670   8.171 -30.946  1.00  0.00     0.164 HD
ENDROOT
BRANCH   1  19
HETATM   19  N   UNL     1      -7.777   1.627 -32.811  1.00  0.00    -0.304 N 
HETATM   20  C   UNL     1      -6.557   2.048 -33.246  1.00  0.00     0.325 C 
HETATM   21  N   UNL     1      -5.641   1.104 -33.601  1.00  0.00    -0.309 N 
HETATM   22  O   UNL     1      -6.180   3.220 -33.257  1.00  0.00    -0.247 OA
HETATM   23  H   UNL     1      -4.719   1.523 -33.638  1.00  0.00     0.170 HD
HETATM   24  H   UNL     1      -7.925   0.629 -32.717  1.00  0.00     0.171 HD
BRANCH  21  25
HETATM   25  C   UNL     1      -5.705  -0.267 -33.889  1.00  0.00     0.036 A 
HETATM   26  C   UNL     1      -6.765  -0.896 -34.544  1.00  0.00     0.030 A 
HETATM   27  C   UNL     1      -6.720  -2.275 -34.809  1.00  0.00     0.017 A 
HETATM   28  C   UNL     1      -5.605  -3.034 -34.433  1.00  0.00     0.009 A 
HETATM   29  C   UNL     1      -4.535  -2.400 -33.795  1.00  0.00     0.017 A 
HETATM   30  C   UNL     1      -4.581  -1.027 -33.541  1.00  0.00     0.030 A 
BRANCH  28  31
HETATM   31  C   UNL     1      -5.501  -4.500 -34.695  1.00  0.00     0.155 C 
HETATM   32  C   UNL     1      -4.380  -5.277 -34.057  1.00  0.00     0.096 C 
HETATM   33  O   UNL     1      -6.324  -5.050 -35.422  1.00  0.00    -0.293 OA
ENDBRANCH  28  31
ENDBRANCH  21  25
ENDBRANCH   1  19
BRANCH  12  34
HETATM   34  C   UNL     1     -11.357   9.762 -32.276  1.00  0.00     0.086 C 
HETATM   35  C   UNL     1     -11.391  10.659 -31.029  1.00  0.00     0.025 C 
HETATM   36  C   UNL     1     -10.190  10.433 -30.110  1.00  0.00     0.002 C 
HETATM   37  C   UNL     1      -8.869  10.572 -30.861  1.00  0.00     0.000 C 
HETATM   38  C   UNL     1      -8.813   9.663 -32.083  1.00  0.00     0.002 C 
HETATM   39  C   UNL     1     -10.012   9.880 -33.005  1.00  0.00     0.025 C 
ENDBRANCH  12  34
TORSDOF 4
ENDMDL
MODEL 9
REMARK VINA RESULT:      -8.5      2.201     10.873
REMARK  4 active torsions:
REMARK  status: ('A' for Active; 'I' for Inactive)
REMARK    1  A    between atoms: C_2  and  C_3 
REMARK    2  A    between atoms: C_6  and  N_7 
REMARK       I    between atoms: N_7  and  C_8 
REMARK       I    between atoms: C_8  and  N_9 
REMARK    3  A    between atoms: N_9  and  C_10 
REMARK       I    between atoms: N_19  and  C_20 
REMARK       I    between atoms: C_20  and  N_21 
REMARK    4  A    between atoms: N_21  and  C_22 
ROOT
HETATM    1  C   UNL     1      -5.925   4.306 -30.961  1.00  0.00     0.105 A 
HETATM    2  C   UNL     1      -5.852   3.605 -32.299  1.00  0.00     0.274 A 
HETATM    3  O   UNL     1      -5.095   4.059 -33.163  1.00  0.00    -0.265 OA
HETATM    4  N   UNL     1      -6.638   2.457 -32.465  1.00  0.00    -0.315 N 
HETATM    5  C   UNL     1      -7.435   1.952 -31.441  1.00  0.00     0.020 A 
HETATM    6  C   UNL     1      -8.180   0.645 -31.645  1.00  0.00     0.054 C 
HETATM    7  C   UNL     1      -7.433  -0.260 -32.616  1.00  0.00     0.020 C 
HETATM    8  C   UNL     1      -7.339   0.488 -33.936  1.00  0.00     0.023 C 
HETATM    9  C   UNL     1      -8.742   0.768 -34.492  1.00  0.00     0.134 C 
HETATM   10  N   UNL     1      -9.688   1.354 -33.543  1.00  0.00    -0.333 N 
HETATM   11  C   UNL     1     -10.830   1.926 -34.104  1.00  0.00     0.318 C 
HETATM   12  N   UNL     1     -11.820   2.262 -33.216  1.00  0.00    -0.338 N 
HETATM   13  O   UNL     1     -10.944   2.126 -35.312  1.00  0.00    -0.247 OA
HETATM   14  C   UNL     1      -9.609   0.899 -32.152  1.00  0.00     0.138 C 
HETATM   15  C   UNL     1      -6.512   1.769 -33.751  1.00  0.00     0.138 C 
HETATM   16  C   UNL     1      -7.509   2.606 -30.270  1.00  0.00     0.028 A 
HETATM   17  C   UNL     1      -6.761   3.812 -30.037  1.00  0.00     0.037 A 
HETATM   18  H   UNL     1     -11.847   1.753 -32.352  1.00  0.00     0.164 HD
ENDROOT
BRANCH   1  19
HETATM   19  N   UNL     1      -5.073   5.386 -30.807  1.00  0.00    -0.304 N 
HETATM   20  C   UNL     1      -5.163   6.621 -31.374  1.00  0.00     0.325 C 
HETATM   21  N   UNL     1      -4.305   7.589 -30.945  1.00  0.00    -0.309 N 
HETATM   22  O   UNL     1      -6.026   6.962 -32.183  1.00  0.00    -0.247 OA
HETATM   23  H   UNL     1      -4.648   8.498 -31.233  1.00  0.00     0.170 HD
HETATM   24  H   UNL     1      -4.410   5.261 -30.052  1.00  0.00     0.171 HD
BRANCH  21  25
HETATM   25  C   UNL     1      -3.116   7.587 -30.202  1.00  0.00     0.036 A 
HETATM   26  C   UNL     1      -3.018   7.927 -28.851  1.00  0.00     0.030 A 
HETATM   27  C   UNL     1      -1.780   7.866 -28.191  1.00  0.00     0.017 A 
HETATM   28  C   UNL     1      -0.631   7.451 -28.873  1.00  0.00     0.009 A 
HETATM   29  C   UNL     1      -0.733   7.091 -30.220  1.00  0.00     0.017 A 
HETATM   30  C   UNL     1      -1.967   7.145 -30.871  1.00  0.00     0.030 A 
BRANCH  28  31
HETATM   31  C   UNL     1       0.708   7.362 -28.220  1.00  0.00     0.155 C 
HETATM   32  C   UNL     1       1.474   8.630 -27.947  1.00  0.00     0.096 C 
HETATM   33  O   UNL     1       1.167   6.263 -27.914  1.00  0.00    -0.293 OA
ENDBRANCH  28  31
ENDBRANCH  21  25
ENDBRANCH   1  19
BRANCH  12  34
HETATM   34  C   UNL     1     -13.101   2.803 -33.666  1.00  0.00     0.086 C 
HETATM   35  C   UNL     1     -14.249   2.314 -32.771  1.00  0.00     0.025 C 
HETATM   36  C   UNL     1     -14.226   2.955 -31.382  1.00  0.00     0.002 C 
HETATM   37  C   UNL     1     -14.191   4.478 -31.463  1.00  0.00     0.000 C 
HETATM   38  C   UNL     1     -13.034   4.974 -32.325  1.00  0.00     0.002 C 
HETATM   39  C   UNL     1     -13.049   4.335 -33.713  1.00  0.00     0.025 C 
ENDBRANCH  12  34
TORSDOF 4
ENDMDL
MODEL 10
REMARK VINA RESULT:      -8.3      5.534      9.971
REMARK  4 active torsions:
REMARK  status: ('A' for Active; 'I' for Inactive)
REMARK    1  A    between atoms: C_2  and  C_3 
REMARK    2  A    between atoms: C_6  and  N_7 
REMARK       I    between atoms: N_7  and  C_8 
REMARK       I    between atoms: C_8  and  N_9 
REMARK    3  A    between atoms: N_9  and  C_10 
REMARK       I    between atoms: N_19  and  C_20 
REMARK       I    between atoms: C_20  and  N_21 
REMARK    4  A    between atoms: N_21  and  C_22 
ROOT
HETATM    1  C   UNL     1      -7.895   2.647 -32.663  1.00  0.00     0.105 A 
HETATM    2  C   UNL     1      -9.272   2.135 -33.023  1.00  0.00     0.274 A 
HETATM    3  O   UNL     1      -9.372   1.014 -33.530  1.00  0.00    -0.265 OA
HETATM    4  N   UNL     1     -10.362   2.967 -32.730  1.00  0.00    -0.315 N 
HETATM    5  C   UNL     1     -10.203   4.202 -32.107  1.00  0.00     0.020 A 
HETATM    6  C   UNL     1     -11.428   5.010 -31.718  1.00  0.00     0.054 C 
HETATM    7  C   UNL     1     -12.610   4.095 -31.423  1.00  0.00     0.020 C 
HETATM    8  C   UNL     1     -12.894   3.313 -32.695  1.00  0.00     0.023 C 
HETATM    9  C   UNL     1     -13.273   4.267 -33.836  1.00  0.00     0.134 C 
HETATM   10  N   UNL     1     -12.375   5.405 -34.027  1.00  0.00    -0.333 N 
HETATM   11  C   UNL     1     -12.499   6.074 -35.245  1.00  0.00     0.318 C 
HETATM   12  N   UNL     1     -11.833   7.271 -35.333  1.00  0.00    -0.338 N 
HETATM   13  O   UNL     1     -13.151   5.622 -36.184  1.00  0.00    -0.247 OA
HETATM   14  C   UNL     1     -11.799   6.013 -32.823  1.00  0.00     0.138 C 
HETATM   15  C   UNL     1     -11.687   2.429 -33.043  1.00  0.00     0.138 C 
HETATM   16  C   UNL     1      -8.969   4.651 -31.823  1.00  0.00     0.028 A 
HETATM   17  C   UNL     1      -7.800   3.871 -32.127  1.00  0.00     0.037 A 
HETATM   18  H   UNL     1     -11.656   7.755 -34.472  1.00  0.00     0.164 HD
ENDROOT
BRANCH   1  19
HETATM   19  N   UNL     1      -6.854   1.764 -32.890  1.00  0.00    -0.304 N 
HETATM   20  C   UNL     1      -5.515   1.998 -32.810  1.00  0.00     0.325 C 
HETATM   21  N   UNL     1      -4.670   0.934 -32.909  1.00  0.00    -0.309 N 
HETATM   22  O   UNL     1      -5.005   3.091 -32.560  1.00  0.00    -0.247 OA
HETATM   23  H   UNL     1      -3.753   1.196 -32.566  1.00  0.00     0.170 HD
HETATM   24  H   UNL     1      -7.161   0.801 -32.963  1.00  0.00     0.171 HD
BRANCH  21  25
HETATM   25  C   UNL     1      -4.808  -0.392 -33.343  1.00  0.00     0.036 A 
HETATM   26  C   UNL     1      -3.904  -1.420 -33.067  1.00  0.00     0.030 A 
HETATM   27  C   UNL     1      -4.149  -2.724 -33.528  1.00  0.00     0.017 A 
HETATM   28  C   UNL     1      -5.308  -3.014 -34.256  1.00  0.00     0.009 A 
HETATM   29  C   UNL     1      -6.222  -1.990 -34.515  1.00  0.00     0.017 A 
HETATM   30  C   UNL     1      -5.979  -0.696 -34.049  1.00  0.00     0.030 A 
BRANCH  28  31
HETATM   31  C   UNL     1      -5.622  -4.383 -34.764  1.00  0.00     0.155 C 
HETATM   32  C   UNL     1      -6.804  -4.569 -35.678  1.00  0.00     0.096 C 
HETATM   33  O   UNL     1      -4.917  -5.334 -34.432  1.00  0.00    -0.293 OA
ENDBRANCH  28  31
ENDBRANCH  21  25
ENDBRANCH   1  19
BRANCH  12  34
HETATM   34  C   UNL     1     -11.930   8.115 -36.520  1.00  0.00     0.086 C 
HETATM   35  C   UNL     1     -13.051   9.155 -36.367  1.00  0.00     0.025 C 
HETATM   36  C   UNL     1     -12.703  10.250 -35.357  1.00  0.00     0.002 C 
HETATM   37  C   UNL     1     -11.367  10.913 -35.681  1.00  0.00     0.000 C 
HETATM   38  C   UNL     1     -10.242   9.891 -35.804  1.00  0.00     0.002 C 
HETATM   39  C   UNL     1     -10.584   8.792 -36.809  1.00  0.00     0.025 C 
ENDBRANCH  12  34
TORSDOF 4
ENDMDL
