MODEL 1
REMARK VINA RESULT:      -7.8      0.000      0.000
REMARK  2 active torsions:
REMARK  status: ('A' for Active; 'I' for Inactive)
REMARK    1  A    between atoms: C_12  and  C_13 
REMARK    2  A    between atoms: C_16  and  O_17 
ROOT
HETATM    1  C   UNL     1      -4.346   3.604 -32.805  1.00  0.00     0.002 A 
HETATM    2  C   UNL     1      -5.120   2.697 -32.085  1.00  0.00     0.026 A 
HETATM    3  C   UNL     1      -6.511   2.637 -32.254  1.00  0.00     0.036 A 
HETATM    4  C   UNL     1      -7.140   3.508 -33.174  1.00  0.00     0.053 A 
HETATM    5  N   UNL     1      -8.529   3.500 -33.442  1.00  0.00    -0.356 N 
HETATM    6  C   UNL     1      -9.361   2.405 -33.383  1.00  0.00     0.041 A 
HETATM    7  C   UNL     1      -9.127   1.196 -32.849  1.00  0.00     0.056 A 
HETATM    8  C   UNL     1     -10.333   0.385 -33.066  1.00  0.00     0.251 A 
HETATM    9  O   UNL     1     -10.519  -0.752 -32.681  1.00  0.00    -0.268 OA
HETATM   10  N   UNL     1     -11.222   1.156 -33.768  1.00  0.00    -0.351 N 
HETATM   11  C   UNL     1     -10.727   2.469 -34.012  1.00  0.00     0.180 A 
HETATM   12  C   UNL     1      -7.973   0.662 -32.086  1.00  0.00     0.134 C 
HETATM   13  N   UNL     1      -7.219   1.743 -31.416  1.00  0.00    -0.278 NA
HETATM   14  C   UNL     1      -6.341   4.429 -33.877  1.00  0.00     0.031 A 
HETATM   15  C   UNL     1      -4.957   4.476 -33.698  1.00  0.00     0.002 A 
HETATM   16  H   UNL     1      -8.834   4.242 -34.064  1.00  0.00     0.166 HD
HETATM   17  H   UNL     1     -12.139   0.807 -34.011  1.00  0.00     0.163 HD
HETATM   18  H   UNL     1      -7.895   2.316 -30.912  1.00  0.00     0.128 HD
ENDROOT
BRANCH  12  19
HETATM   19  C   UNL     1      -7.047  -0.287 -32.840  1.00  0.00    -0.035 A 
HETATM   20  C   UNL     1      -7.276  -0.670 -34.173  1.00  0.00     0.012 A 
HETATM   21  C   UNL     1      -6.397  -1.534 -34.834  1.00  0.00     0.037 A 
HETATM   22  C   UNL     1      -5.277  -2.014 -34.167  1.00  0.00     0.065 A 
HETATM   23  C   UNL     1      -5.016  -1.639 -32.856  1.00  0.00     0.037 A 
HETATM   24  C   UNL     1      -5.893  -0.776 -32.198  1.00  0.00     0.012 A 
BRANCH  22  25
HETATM   25  O   UNL     1      -4.396  -2.860 -34.774  1.00  0.00    -0.361 OA
HETATM   26  H   UNL     1      -4.840  -3.710 -34.921  1.00  0.00     0.217 HD
ENDBRANCH  22  25
ENDBRANCH  12  19
TORSDOF 2
ENDMDL
MODEL 2
REMARK VINA RESULT:      -7.6      2.776      5.441
REMARK  2 active torsions:
REMARK  status: ('A' for Active; 'I' for Inactive)
REMARK    1  A    between atoms: C_12  and  C_13 
REMARK    2  A    between atoms: C_16  and  O_17 
ROOT
HETATM    1  C   UNL     1      -9.927   2.278 -32.478  1.00  0.00     0.002 A 
HETATM    2  C   UNL     1      -9.019   1.747 -31.563  1.00  0.00     0.026 A 
HETATM    3  C   UNL     1      -8.185   0.673 -31.910  1.00  0.00     0.036 A 
HETATM    4  C   UNL     1      -8.264   0.120 -33.208  1.00  0.00     0.053 A 
HETATM    5  N   UNL     1      -7.443  -0.938 -33.665  1.00  0.00    -0.356 N 
HETATM    6  C   UNL     1      -6.154  -1.198 -33.259  1.00  0.00     0.041 A 
HETATM    7  C   UNL     1      -5.481  -0.694 -32.212  1.00  0.00     0.056 A 
HETATM    8  C   UNL     1      -4.136  -1.284 -32.236  1.00  0.00     0.251 A 
HETATM    9  O   UNL     1      -3.254  -1.107 -31.420  1.00  0.00    -0.268 OA
HETATM   10  N   UNL     1      -4.064  -2.092 -33.341  1.00  0.00    -0.351 N 
HETATM   11  C   UNL     1      -5.292  -2.137 -34.061  1.00  0.00     0.180 A 
HETATM   12  C   UNL     1      -5.900   0.213 -31.116  1.00  0.00     0.134 C 
HETATM   13  N   UNL     1      -7.359   0.151 -30.887  1.00  0.00    -0.278 NA
HETATM   14  C   UNL     1      -9.201   0.659 -34.110  1.00  0.00     0.031 A 
HETATM   15  C   UNL     1     -10.023   1.729 -33.750  1.00  0.00     0.002 A 
HETATM   16  H   UNL     1      -7.681  -1.275 -34.592  1.00  0.00     0.166 HD
HETATM   17  H   UNL     1      -3.229  -2.624 -33.547  1.00  0.00     0.163 HD
HETATM   18  H   UNL     1      -7.610  -0.835 -30.807  1.00  0.00     0.128 HD
ENDROOT
BRANCH  12  19
HETATM   19  C   UNL     1      -5.406   1.654 -31.209  1.00  0.00    -0.035 A 
HETATM   20  C   UNL     1      -4.769   2.165 -32.354  1.00  0.00     0.012 A 
HETATM   21  C   UNL     1      -4.340   3.495 -32.404  1.00  0.00     0.037 A 
HETATM   22  C   UNL     1      -4.554   4.326 -31.310  1.00  0.00     0.065 A 
HETATM   23  C   UNL     1      -5.195   3.853 -30.174  1.00  0.00     0.037 A 
HETATM   24  C   UNL     1      -5.623   2.525 -30.125  1.00  0.00     0.012 A 
BRANCH  22  25
HETATM   25  O   UNL     1      -4.149   5.628 -31.318  1.00  0.00    -0.361 OA
HETATM   26  H   UNL     1      -3.882   5.861 -32.221  1.00  0.00     0.217 HD
ENDBRANCH  22  25
ENDBRANCH  12  19
TORSDOF 2
ENDMDL
MODEL 3
REMARK VINA RESULT:      -7.5     15.184     16.683
REMARK  2 active torsions:
REMARK  status: ('A' for Active; 'I' for Inactive)
REMARK    1  A    between atoms: C_12  and  C_13 
REMARK    2  A    between atoms: C_16  and  O_17 
ROOT
HETATM    1  C   UNL     1      -6.615 -12.095 -40.838  1.00  0.00     0.002 A 
HETATM    2  C   UNL     1      -5.357 -11.919 -40.266  1.00  0.00     0.026 A 
HETATM    3  C   UNL     1      -5.115 -12.264 -38.928  1.00  0.00     0.036 A 
HETATM    4  C   UNL     1      -6.162 -12.801 -38.146  1.00  0.00     0.053 A 
HETATM    5  N   UNL     1      -6.010 -13.212 -36.801  1.00  0.00    -0.356 N 
HETATM    6  C   UNL     1      -4.863 -13.717 -36.232  1.00  0.00     0.041 A 
HETATM    7  C   UNL     1      -3.610 -13.716 -36.714  1.00  0.00     0.056 A 
HETATM    8  C   UNL     1      -2.763 -14.396 -35.725  1.00  0.00     0.251 A 
HETATM    9  O   UNL     1      -1.560 -14.548 -35.786  1.00  0.00    -0.268 OA
HETATM   10  N   UNL     1      -3.579 -14.810 -34.705  1.00  0.00    -0.351 N 
HETATM   11  C   UNL     1      -4.934 -14.420 -34.902  1.00  0.00     0.180 A 
HETATM   12  C   UNL     1      -3.026 -13.114 -37.938  1.00  0.00     0.134 C 
HETATM   13  N   UNL     1      -3.829 -11.968 -38.415  1.00  0.00    -0.278 NA
HETATM   14  C   UNL     1      -7.430 -12.952 -38.738  1.00  0.00     0.031 A 
HETATM   15  C   UNL     1      -7.655 -12.605 -40.072  1.00  0.00     0.002 A 
HETATM   16  H   UNL     1      -6.876 -13.497 -36.355  1.00  0.00     0.166 HD
HETATM   17  H   UNL     1      -3.204 -15.285 -33.895  1.00  0.00     0.163 HD
HETATM   18  H   UNL     1      -3.986 -11.355 -37.616  1.00  0.00     0.128 HD
ENDROOT
BRANCH  12  19
HETATM   19  C   UNL     1      -2.694 -14.080 -39.071  1.00  0.00    -0.035 A 
HETATM   20  C   UNL     1      -3.482 -15.209 -39.361  1.00  0.00     0.012 A 
HETATM   21  C   UNL     1      -3.150 -16.065 -40.415  1.00  0.00     0.037 A 
HETATM   22  C   UNL     1      -2.032 -15.792 -41.194  1.00  0.00     0.065 A 
HETATM   23  C   UNL     1      -1.247 -14.676 -40.942  1.00  0.00     0.037 A 
HETATM   24  C   UNL     1      -1.579 -13.821 -39.890  1.00  0.00     0.012 A 
BRANCH  22  25
HETATM   25  O   UNL     1      -1.673 -16.603 -42.231  1.00  0.00    -0.361 OA
HETATM   26  H   UNL     1      -0.870 -17.085 -41.978  1.00  0.00     0.217 HD
ENDBRANCH  22  25
ENDBRANCH  12  19
TORSDOF 2
ENDMDL
MODEL 4
REMARK VINA RESULT:      -7.4      1.970      4.808
REMARK  2 active torsions:
REMARK  status: ('A' for Active; 'I' for Inactive)
REMARK    1  A    between atoms: C_12  and  C_13 
REMARK    2  A    between atoms: C_16  and  O_17 
ROOT
HETATM    1  C   UNL     1      -6.972   4.558 -30.937  1.00  0.00     0.002 A 
HETATM    2  C   UNL     1      -6.867   3.985 -32.202  1.00  0.00     0.026 A 
HETATM    3  C   UNL     1      -6.061   2.859 -32.423  1.00  0.00     0.036 A 
HETATM    4  C   UNL     1      -5.344   2.292 -31.345  1.00  0.00     0.053 A 
HETATM    5  N   UNL     1      -4.534   1.138 -31.458  1.00  0.00    -0.356 N 
HETATM    6  C   UNL     1      -4.733   0.088 -32.326  1.00  0.00     0.041 A 
HETATM    7  C   UNL     1      -5.551   0.016 -33.388  1.00  0.00     0.056 A 
HETATM    8  C   UNL     1      -5.399  -1.328 -33.961  1.00  0.00     0.251 A 
HETATM    9  O   UNL     1      -5.942  -1.753 -34.961  1.00  0.00    -0.268 OA
HETATM   10  N   UNL     1      -4.513  -2.012 -33.171  1.00  0.00    -0.351 N 
HETATM   11  C   UNL     1      -4.003  -1.211 -32.110  1.00  0.00     0.180 A 
HETATM   12  C   UNL     1      -6.425   1.028 -34.029  1.00  0.00     0.134 C 
HETATM   13  N   UNL     1      -5.954   2.402 -33.759  1.00  0.00    -0.278 NA
HETATM   14  C   UNL     1      -5.449   2.898 -30.079  1.00  0.00     0.031 A 
HETATM   15  C   UNL     1      -6.256   4.019 -29.875  1.00  0.00     0.002 A 
HETATM   16  H   UNL     1      -4.021   0.908 -30.612  1.00  0.00     0.166 HD
HETATM   17  H   UNL     1      -4.237  -2.959 -33.392  1.00  0.00     0.163 HD
HETATM   18  H   UNL     1      -4.958   2.429 -33.979  1.00  0.00     0.128 HD
ENDROOT
BRANCH  12  19
HETATM   19  C   UNL     1      -7.922   0.885 -33.772  1.00  0.00    -0.035 A 
HETATM   20  C   UNL     1      -8.445   0.015 -32.798  1.00  0.00     0.012 A 
HETATM   21  C   UNL     1      -9.823  -0.080 -32.585  1.00  0.00     0.037 A 
HETATM   22  C   UNL     1     -10.689   0.703 -33.339  1.00  0.00     0.065 A 
HETATM   23  C   UNL     1     -10.200   1.584 -34.294  1.00  0.00     0.037 A 
HETATM   24  C   UNL     1      -8.824   1.678 -34.507  1.00  0.00     0.012 A 
BRANCH  22  25
HETATM   25  O   UNL     1     -12.040   0.640 -33.164  1.00  0.00    -0.361 OA
HETATM   26  H   UNL     1     -12.389  -0.069 -33.727  1.00  0.00     0.217 HD
ENDBRANCH  22  25
ENDBRANCH  12  19
TORSDOF 2
ENDMDL
MODEL 5
REMARK VINA RESULT:      -7.4      2.147      2.927
REMARK  2 active torsions:
REMARK  status: ('A' for Active; 'I' for Inactive)
REMARK    1  A    between atoms: C_12  and  C_13 
REMARK    2  A    between atoms: C_16  and  O_17 
ROOT
HETATM    1  C   UNL     1      -1.950   4.542 -33.700  1.00  0.00     0.002 A 
HETATM    2  C   UNL     1      -2.753   4.220 -32.608  1.00  0.00     0.026 A 
HETATM    3  C   UNL     1      -4.144   4.389 -32.657  1.00  0.00     0.036 A 
HETATM    4  C   UNL     1      -4.745   4.891 -33.834  1.00  0.00     0.053 A 
HETATM    5  N   UNL     1      -6.140   5.064 -33.995  1.00  0.00    -0.356 N 
HETATM    6  C   UNL     1      -7.125   4.304 -33.405  1.00  0.00     0.041 A 
HETATM    7  C   UNL     1      -7.021   3.423 -32.398  1.00  0.00     0.056 A 
HETATM    8  C   UNL     1      -8.362   2.874 -32.162  1.00  0.00     0.251 A 
HETATM    9  O   UNL     1      -8.678   2.081 -31.297  1.00  0.00    -0.268 OA
HETATM   10  N   UNL     1      -9.203   3.437 -33.086  1.00  0.00    -0.351 N 
HETATM   11  C   UNL     1      -8.537   4.380 -33.921  1.00  0.00     0.180 A 
HETATM   12  C   UNL     1      -5.874   3.039 -31.540  1.00  0.00     0.134 C 
HETATM   13  N   UNL     1      -4.863   4.115 -31.469  1.00  0.00    -0.278 NA
HETATM   14  C   UNL     1      -3.913   5.228 -34.919  1.00  0.00     0.031 A 
HETATM   15  C   UNL     1      -2.529   5.053 -34.855  1.00  0.00     0.002 A 
HETATM   16  H   UNL     1      -6.403   5.512 -34.867  1.00  0.00     0.166 HD
HETATM   17  H   UNL     1     -10.190   3.220 -33.096  1.00  0.00     0.163 HD
HETATM   18  H   UNL     1      -5.356   4.979 -31.241  1.00  0.00     0.128 HD
ENDROOT
BRANCH  12  19
HETATM   19  C   UNL     1      -5.235   1.685 -31.835  1.00  0.00    -0.035 A 
HETATM   20  C   UNL     1      -5.473   0.978 -33.027  1.00  0.00     0.012 A 
HETATM   21  C   UNL     1      -4.860  -0.256 -33.265  1.00  0.00     0.037 A 
HETATM   22  C   UNL     1      -3.996  -0.787 -32.316  1.00  0.00     0.065 A 
HETATM   23  C   UNL     1      -3.729  -0.103 -31.138  1.00  0.00     0.037 A 
HETATM   24  C   UNL     1      -4.341   1.129 -30.901  1.00  0.00     0.012 A 
BRANCH  22  25
HETATM   25  O   UNL     1      -3.379  -1.988 -32.508  1.00  0.00    -0.361 OA
HETATM   26  H   UNL     1      -3.830  -2.450 -33.233  1.00  0.00     0.217 HD
ENDBRANCH  22  25
ENDBRANCH  12  19
TORSDOF 2
ENDMDL
MODEL 6
REMARK VINA RESULT:      -7.3      3.922      6.294
REMARK  2 active torsions:
REMARK  status: ('A' for Active; 'I' for Inactive)
REMARK    1  A    between atoms: C_12  and  C_13 
REMARK    2  A    between atoms: C_16  and  O_17 
ROOT
HETATM    1  C   UNL     1      -5.005   0.188 -32.745  1.00  0.00     0.002 A 
HETATM    2  C   UNL     1      -5.581   1.415 -33.067  1.00  0.00     0.026 A 
HETATM    3  C   UNL     1      -5.859   2.368 -32.075  1.00  0.00     0.036 A 
HETATM    4  C   UNL     1      -5.548   2.082 -30.727  1.00  0.00     0.053 A 
HETATM    5  N   UNL     1      -5.756   2.988 -29.661  1.00  0.00    -0.356 N 
HETATM    6  C   UNL     1      -5.701   4.362 -29.741  1.00  0.00     0.041 A 
HETATM    7  C   UNL     1      -5.684   5.143 -30.833  1.00  0.00     0.056 A 
HETATM    8  C   UNL     1      -5.603   6.534 -30.369  1.00  0.00     0.251 A 
HETATM    9  O   UNL     1      -5.614   7.530 -31.065  1.00  0.00    -0.268 OA
HETATM   10  N   UNL     1      -5.534   6.505 -29.001  1.00  0.00    -0.351 N 
HETATM   11  C   UNL     1      -5.609   5.182 -28.482  1.00  0.00     0.180 A 
HETATM   12  C   UNL     1      -5.803   4.822 -32.276  1.00  0.00     0.134 C 
HETATM   13  N   UNL     1      -6.521   3.548 -32.491  1.00  0.00    -0.278 NA
HETATM   14  C   UNL     1      -4.984   0.828 -30.421  1.00  0.00     0.031 A 
HETATM   15  C   UNL     1      -4.713  -0.109 -31.419  1.00  0.00     0.002 A 
HETATM   16  H   UNL     1      -5.559   2.600 -28.743  1.00  0.00     0.166 HD
HETATM   17  H   UNL     1      -5.496   7.359 -28.461  1.00  0.00     0.163 HD
HETATM   18  H   UNL     1      -7.380   3.588 -31.943  1.00  0.00     0.128 HD
ENDROOT
BRANCH  12  19
HETATM   19  C   UNL     1      -4.514   4.886 -33.090  1.00  0.00    -0.035 A 
HETATM   20  C   UNL     1      -3.249   4.641 -32.527  1.00  0.00     0.012 A 
HETATM   21  C   UNL     1      -2.091   4.699 -33.309  1.00  0.00     0.037 A 
HETATM   22  C   UNL     1      -2.193   4.995 -34.662  1.00  0.00     0.065 A 
HETATM   23  C   UNL     1      -3.430   5.225 -35.248  1.00  0.00     0.037 A 
HETATM   24  C   UNL     1      -4.585   5.166 -34.467  1.00  0.00     0.012 A 
BRANCH  22  25
HETATM   25  O   UNL     1      -1.088   5.064 -35.460  1.00  0.00    -0.361 OA
HETATM   26  H   UNL     1      -1.378   5.062 -36.385  1.00  0.00     0.217 HD
ENDBRANCH  22  25
ENDBRANCH  12  19
TORSDOF 2
ENDMDL
MODEL 7
REMARK VINA RESULT:      -7.3      2.734      4.656
REMARK  2 active torsions:
REMARK  status: ('A' for Active; 'I' for Inactive)
REMARK    1  A    between atoms: C_12  and  C_13 
REMARK    2  A    between atoms: C_16  and  O_17 
ROOT
HETATM    1  C   UNL     1     -10.027   0.776 -34.355  1.00  0.00     0.002 A 
HETATM    2  C   UNL     1      -8.684   0.792 -34.728  1.00  0.00     0.026 A 
HETATM    3  C   UNL     1      -7.672   1.011 -33.782  1.00  0.00     0.036 A 
HETATM    4  C   UNL     1      -8.016   1.215 -32.426  1.00  0.00     0.053 A 
HETATM    5  N   UNL     1      -7.069   1.407 -31.393  1.00  0.00    -0.356 N 
HETATM    6  C   UNL     1      -5.799   0.879 -31.348  1.00  0.00     0.041 A 
HETATM    7  C   UNL     1      -5.095   0.289 -32.328  1.00  0.00     0.056 A 
HETATM    8  C   UNL     1      -3.804  -0.112 -31.753  1.00  0.00     0.251 A 
HETATM    9  O   UNL     1      -2.880  -0.633 -32.345  1.00  0.00    -0.268 OA
HETATM   10  N   UNL     1      -3.824   0.229 -30.426  1.00  0.00    -0.351 N 
HETATM   11  C   UNL     1      -5.031   0.886 -30.053  1.00  0.00     0.180 A 
HETATM   12  C   UNL     1      -5.389   0.088 -33.767  1.00  0.00     0.134 C 
HETATM   13  N   UNL     1      -6.347   1.094 -34.272  1.00  0.00    -0.278 NA
HETATM   14  C   UNL     1      -9.379   1.213 -32.074  1.00  0.00     0.031 A 
HETATM   15  C   UNL     1     -10.376   0.993 -33.028  1.00  0.00     0.002 A 
HETATM   16  H   UNL     1      -7.480   1.623 -30.490  1.00  0.00     0.166 HD
HETATM   17  H   UNL     1      -3.022   0.066 -29.832  1.00  0.00     0.163 HD
HETATM   18  H   UNL     1      -6.004   2.010 -33.983  1.00  0.00     0.128 HD
ENDROOT
BRANCH  12  19
HETATM   19  C   UNL     1      -5.785  -1.326 -34.183  1.00  0.00    -0.035 A 
HETATM   20  C   UNL     1      -7.052  -1.870 -33.907  1.00  0.00     0.012 A 
HETATM   21  C   UNL     1      -7.381  -3.167 -34.314  1.00  0.00     0.037 A 
HETATM   22  C   UNL     1      -6.447  -3.925 -35.009  1.00  0.00     0.065 A 
HETATM   23  C   UNL     1      -5.195  -3.407 -35.312  1.00  0.00     0.037 A 
HETATM   24  C   UNL     1      -4.868  -2.112 -34.905  1.00  0.00     0.012 A 
BRANCH  22  25
HETATM   25  O   UNL     1      -6.728  -5.194 -35.423  1.00  0.00    -0.361 OA
HETATM   26  H   UNL     1      -6.922  -5.734 -34.641  1.00  0.00     0.217 HD
ENDBRANCH  22  25
ENDBRANCH  12  19
TORSDOF 2
ENDMDL
MODEL 8
REMARK VINA RESULT:      -7.3      3.009      5.337
REMARK  2 active torsions:
REMARK  status: ('A' for Active; 'I' for Inactive)
REMARK    1  A    between atoms: C_12  and  C_13 
REMARK    2  A    between atoms: C_16  and  O_17 
ROOT
HETATM    1  C   UNL     1      -7.319   5.479 -29.698  1.00  0.00     0.002 A 
HETATM    2  C   UNL     1      -6.118   4.774 -29.747  1.00  0.00     0.026 A 
HETATM    3  C   UNL     1      -6.088   3.417 -30.100  1.00  0.00     0.036 A 
HETATM    4  C   UNL     1      -7.295   2.751 -30.414  1.00  0.00     0.053 A 
HETATM    5  N   UNL     1      -7.366   1.396 -30.814  1.00  0.00    -0.356 N 
HETATM    6  C   UNL     1      -6.402   0.705 -31.512  1.00  0.00     0.041 A 
HETATM    7  C   UNL     1      -5.127   1.049 -31.756  1.00  0.00     0.056 A 
HETATM    8  C   UNL     1      -4.534  -0.029 -32.559  1.00  0.00     0.251 A 
HETATM    9  O   UNL     1      -3.381  -0.099 -32.935  1.00  0.00    -0.268 OA
HETATM   10  N   UNL     1      -5.516  -0.955 -32.790  1.00  0.00    -0.351 N 
HETATM   11  C   UNL     1      -6.745  -0.612 -32.158  1.00  0.00     0.180 A 
HETATM   12  C   UNL     1      -4.315   2.203 -31.303  1.00  0.00     0.134 C 
HETATM   13  N   UNL     1      -4.832   2.768 -30.038  1.00  0.00    -0.278 NA
HETATM   14  C   UNL     1      -8.499   3.477 -30.339  1.00  0.00     0.031 A 
HETATM   15  C   UNL     1      -8.512   4.828 -29.987  1.00  0.00     0.002 A 
HETATM   16  H   UNL     1      -8.313   1.046 -30.922  1.00  0.00     0.166 HD
HETATM   17  H   UNL     1      -5.325  -1.802 -33.308  1.00  0.00     0.163 HD
HETATM   18  H   UNL     1      -4.955   1.992 -29.388  1.00  0.00     0.128 HD
ENDROOT
BRANCH  12  19
HETATM   19  C   UNL     1      -4.052   3.291 -32.340  1.00  0.00    -0.035 A 
HETATM   20  C   UNL     1      -5.038   3.736 -33.238  1.00  0.00     0.012 A 
HETATM   21  C   UNL     1      -4.762   4.744 -34.167  1.00  0.00     0.037 A 
HETATM   22  C   UNL     1      -3.498   5.320 -34.198  1.00  0.00     0.065 A 
HETATM   23  C   UNL     1      -2.510   4.913 -33.311  1.00  0.00     0.037 A 
HETATM   24  C   UNL     1      -2.787   3.907 -32.383  1.00  0.00     0.012 A 
BRANCH  22  25
HETATM   25  O   UNL     1      -3.186   6.304 -35.090  1.00  0.00    -0.361 OA
HETATM   26  H   UNL     1      -2.372   6.740 -34.792  1.00  0.00     0.217 HD
ENDBRANCH  22  25
ENDBRANCH  12  19
TORSDOF 2
ENDMDL
MODEL 9
REMARK VINA RESULT:      -7.3     15.281     17.004
REMARK  2 active torsions:
REMARK  status: ('A' for Active; 'I' for Inactive)
REMARK    1  A    between atoms: C_12  and  C_13 
REMARK    2  A    between atoms: C_16  and  O_17 
ROOT
HETATM    1  C   UNL     1      -9.276 -12.978 -40.177  1.00  0.00     0.002 A 
HETATM    2  C   UNL     1      -8.010 -12.541 -40.561  1.00  0.00     0.026 A 
HETATM    3  C   UNL     1      -6.955 -12.476 -39.638  1.00  0.00     0.036 A 
HETATM    4  C   UNL     1      -7.177 -12.862 -38.297  1.00  0.00     0.053 A 
HETATM    5  N   UNL     1      -6.172 -12.866 -37.301  1.00  0.00    -0.356 N 
HETATM    6  C   UNL     1      -4.829 -13.092 -37.505  1.00  0.00     0.041 A 
HETATM    7  C   UNL     1      -4.143 -13.116 -38.659  1.00  0.00     0.056 A 
HETATM    8  C   UNL     1      -2.745 -13.416 -38.326  1.00  0.00     0.251 A 
HETATM    9  O   UNL     1      -1.813 -13.475 -39.103  1.00  0.00    -0.268 OA
HETATM   10  N   UNL     1      -2.678 -13.599 -36.969  1.00  0.00    -0.351 N 
HETATM   11  C   UNL     1      -3.936 -13.398 -36.332  1.00  0.00     0.180 A 
HETATM   12  C   UNL     1      -4.554 -12.832 -40.055  1.00  0.00     0.134 C 
HETATM   13  N   UNL     1      -5.731 -11.939 -40.104  1.00  0.00    -0.278 NA
HETATM   14  C   UNL     1      -8.468 -13.283 -37.926  1.00  0.00     0.031 A 
HETATM   15  C   UNL     1      -9.508 -13.343 -38.856  1.00  0.00     0.002 A 
HETATM   16  H   UNL     1      -6.512 -13.090 -36.371  1.00  0.00     0.166 HD
HETATM   17  H   UNL     1      -1.798 -13.794 -36.511  1.00  0.00     0.163 HD
HETATM   18  H   UNL     1      -5.532 -11.143 -39.498  1.00  0.00     0.128 HD
ENDROOT
BRANCH  12  19
HETATM   19  C   UNL     1      -4.728 -14.044 -40.966  1.00  0.00    -0.035 A 
HETATM   20  C   UNL     1      -4.845 -15.355 -40.471  1.00  0.00     0.012 A 
HETATM   21  C   UNL     1      -5.014 -16.438 -41.338  1.00  0.00     0.037 A 
HETATM   22  C   UNL     1      -5.077 -16.216 -42.708  1.00  0.00     0.065 A 
HETATM   23  C   UNL     1      -4.983 -14.931 -43.224  1.00  0.00     0.037 A 
HETATM   24  C   UNL     1      -4.814 -13.850 -42.358  1.00  0.00     0.012 A 
BRANCH  22  25
HETATM   25  O   UNL     1      -5.239 -17.245 -43.588  1.00  0.00    -0.361 OA
HETATM   26  H   UNL     1      -4.364 -17.604 -43.805  1.00  0.00     0.217 HD
ENDBRANCH  22  25
ENDBRANCH  12  19
TORSDOF 2
ENDMDL
MODEL 10
REMARK VINA RESULT:      -7.2     14.880     16.278
REMARK  2 active torsions:
REMARK  status: ('A' for Active; 'I' for Inactive)
REMARK    1  A    between atoms: C_12  and  C_13 
REMARK    2  A    between atoms: C_16  and  O_17 
ROOT
HETATM    1  C   UNL     1      -0.447 -14.144 -38.346  1.00  0.00     0.002 A 
HETATM    2  C   UNL     1      -1.434 -13.262 -37.911  1.00  0.00     0.026 A 
HETATM    3  C   UNL     1      -2.536 -12.950 -38.721  1.00  0.00     0.036 A 
HETATM    4  C   UNL     1      -2.652 -13.542 -39.999  1.00  0.00     0.053 A 
HETATM    5  N   UNL     1      -3.741 -13.320 -40.874  1.00  0.00    -0.356 N 
HETATM    6  C   UNL     1      -5.039 -13.051 -40.503  1.00  0.00     0.041 A 
HETATM    7  C   UNL     1      -5.517 -12.708 -39.296  1.00  0.00     0.056 A 
HETATM    8  C   UNL     1      -6.971 -12.552 -39.434  1.00  0.00     0.251 A 
HETATM    9  O   UNL     1      -7.746 -12.201 -38.567  1.00  0.00    -0.268 OA
HETATM   10  N   UNL     1      -7.293 -12.858 -40.731  1.00  0.00    -0.351 N 
HETATM   11  C   UNL     1      -6.147 -13.170 -41.515  1.00  0.00     0.180 A 
HETATM   12  C   UNL     1      -4.834 -12.420 -38.011  1.00  0.00     0.134 C 
HETATM   13  N   UNL     1      -3.439 -11.980 -38.225  1.00  0.00    -0.278 NA
HETATM   14  C   UNL     1      -1.634 -14.415 -40.427  1.00  0.00     0.031 A 
HETATM   15  C   UNL     1      -0.543 -14.716 -39.609  1.00  0.00     0.002 A 
HETATM   16  H   UNL     1      -3.633 -13.752 -41.787  1.00  0.00     0.166 HD
HETATM   17  H   UNL     1      -8.246 -12.795 -41.061  1.00  0.00     0.163 HD
HETATM   18  H   UNL     1      -3.459 -11.240 -38.926  1.00  0.00     0.128 HD
ENDROOT
BRANCH  12  19
HETATM   19  C   UNL     1      -4.926 -13.504 -36.942  1.00  0.00    -0.035 A 
HETATM   20  C   UNL     1      -5.242 -14.841 -37.243  1.00  0.00     0.012 A 
HETATM   21  C   UNL     1      -5.305 -15.808 -36.235  1.00  0.00     0.037 A 
HETATM   22  C   UNL     1      -5.044 -15.446 -34.919  1.00  0.00     0.065 A 
HETATM   23  C   UNL     1      -4.711 -14.138 -34.596  1.00  0.00     0.037 A 
HETATM   24  C   UNL     1      -4.648 -13.173 -35.602  1.00  0.00     0.012 A 
BRANCH  22  25
HETATM   25  O   UNL     1      -5.097 -16.358 -33.907  1.00  0.00    -0.361 OA
HETATM   26  H   UNL     1      -5.957 -16.276 -33.466  1.00  0.00     0.217 HD
ENDBRANCH  22  25
ENDBRANCH  12  19
TORSDOF 2
ENDMDL
