MODEL 1
REMARK VINA RESULT:      -9.4      0.000      0.000
REMARK  6 active torsions:
REMARK  status: ('A' for Active; 'I' for Inactive)
REMARK    1  A    between atoms: C_5  and  C_6 
REMARK    2  A    between atoms: C_6  and  S_7 
REMARK    3  A    between atoms: S_7  and  C_8 
REMARK    4  A    between atoms: C_10  and  N_11 
REMARK    5  A    between atoms: C_12  and  N_13 
REMARK       I    between atoms: N_13  and  C_14 
REMARK    6  A    between atoms: C_14  and  C_15 
ROOT
HETATM    1  C   UNL     1      -6.855   2.945 -32.901  1.00  0.00     0.171 C 
HETATM    2  N   UNL     1      -6.642   3.210 -31.657  1.00  0.00    -0.210 NA
HETATM    3  C   UNL     1      -5.530   3.966 -31.353  1.00  0.00     0.136 C 
HETATM    4  C   UNL     1      -4.747   4.535 -32.303  1.00  0.00     0.144 C 
HETATM    5  C   UNL     1      -5.277   4.470 -33.696  1.00  0.00     0.277 C 
HETATM    6  O   UNL     1      -5.112   5.351 -34.532  1.00  0.00    -0.266 OA
HETATM    7  N   UNL     1      -6.115   3.426 -33.928  1.00  0.00    -0.300 N 
HETATM    8  H   UNL     1      -6.498   3.348 -34.858  1.00  0.00     0.171 HD
ENDROOT
BRANCH   1   9
HETATM    9  S   UNL     1      -8.146   1.946 -33.480  1.00  0.00    -0.087 SA
BRANCH   9  10
HETATM   10  C   UNL     1      -7.972   0.485 -32.421  1.00  0.00     0.121 C 
BRANCH  10  11
HETATM   11  C   UNL     1      -6.955  -0.480 -33.001  1.00  0.00    -0.037 A 
HETATM   12  C   UNL     1      -5.625  -0.596 -32.500  1.00  0.00    -0.019 A 
HETATM   13  C   UNL     1      -4.739  -1.511 -33.128  1.00  0.00    -0.025 A 
HETATM   14  C   UNL     1      -5.119   0.152 -31.410  1.00  0.00     0.013 A 
HETATM   15  C   UNL     1      -3.423  -1.657 -32.657  1.00  0.00     0.012 A 
HETATM   16  C   UNL     1      -5.171  -2.267 -34.226  1.00  0.00     0.012 A 
HETATM   17  C   UNL     1      -2.960  -0.911 -31.575  1.00  0.00     0.001 A 
HETATM   18  C   UNL     1      -3.807  -0.005 -30.954  1.00  0.00     0.001 A 
HETATM   19  C   UNL     1      -6.465  -2.138 -34.718  1.00  0.00     0.001 A 
HETATM   20  C   UNL     1      -7.349  -1.252 -34.112  1.00  0.00     0.009 A 
ENDBRANCH  10  11
ENDBRANCH   9  10
ENDBRANCH   1   9
BRANCH   3  21
HETATM   21  N   UNL     1      -5.206   4.098 -30.008  1.00  0.00    -0.285 NA
HETATM   22  H   UNL     1      -5.276   3.172 -29.586  1.00  0.00     0.125 HD
HETATM   23  H   UNL     1      -5.865   4.719 -29.541  1.00  0.00     0.125 HD
ENDBRANCH   3  21
BRANCH   4  24
HETATM   24  N   UNL     1      -3.553   5.155 -31.981  1.00  0.00    -0.314 N 
HETATM   25  C   UNL     1      -2.387   4.531 -31.578  1.00  0.00     0.280 C 
HETATM   26  O   UNL     1      -2.263   3.323 -31.406  1.00  0.00    -0.265 OA
HETATM   27  H   UNL     1      -3.599   6.153 -31.802  1.00  0.00     0.169 HD
BRANCH  25  28
HETATM   28  C   UNL     1      -1.310   5.455 -31.280  1.00  0.00     0.144 A 
HETATM   29  O   UNL     1      -1.187   5.977 -30.018  1.00  0.00    -0.298 OA
HETATM   30  C   UNL     1      -0.077   6.765 -30.019  1.00  0.00     0.122 A 
HETATM   31 BR   UNL     1       0.555   7.684 -28.524  1.00  0.00    -0.023 Br
HETATM   32  C   UNL     1       0.506   6.777 -31.265  1.00  0.00     0.048 A 
HETATM   33  C   UNL     1      -0.286   5.931 -32.078  1.00  0.00     0.046 A 
ENDBRANCH  25  28
ENDBRANCH   4  24
TORSDOF 6
ENDMDL
MODEL 2
REMARK VINA RESULT:      -9.2      1.113      2.327
REMARK  6 active torsions:
REMARK  status: ('A' for Active; 'I' for Inactive)
REMARK    1  A    between atoms: C_5  and  C_6 
REMARK    2  A    between atoms: C_6  and  S_7 
REMARK    3  A    between atoms: S_7  and  C_8 
REMARK    4  A    between atoms: C_10  and  N_11 
REMARK    5  A    between atoms: C_12  and  N_13 
REMARK       I    between atoms: N_13  and  C_14 
REMARK    6  A    between atoms: C_14  and  C_15 
ROOT
HETATM    1  C   UNL     1      -6.269   3.107 -31.995  1.00  0.00     0.171 C 
HETATM    2  N   UNL     1      -6.274   3.412 -30.742  1.00  0.00    -0.210 NA
HETATM    3  C   UNL     1      -5.290   4.265 -30.294  1.00  0.00     0.136 C 
HETATM    4  C   UNL     1      -4.417   4.882 -31.129  1.00  0.00     0.144 C 
HETATM    5  C   UNL     1      -4.716   4.746 -32.584  1.00  0.00     0.277 C 
HETATM    6  O   UNL     1      -4.495   5.623 -33.413  1.00  0.00    -0.266 OA
HETATM    7  N   UNL     1      -5.419   3.630 -32.910  1.00  0.00    -0.300 N 
HETATM    8  H   UNL     1      -5.645   3.503 -33.885  1.00  0.00     0.171 HD
ENDROOT
BRANCH   1   9
HETATM    9  S   UNL     1      -7.368   1.990 -32.734  1.00  0.00    -0.087 SA
BRANCH   9  10
HETATM   10  C   UNL     1      -7.180   0.539 -31.663  1.00  0.00     0.121 C 
BRANCH  10  11
HETATM   11  C   UNL     1      -5.885  -0.188 -31.968  1.00  0.00    -0.037 A 
HETATM   12  C   UNL     1      -5.772  -1.169 -32.997  1.00  0.00    -0.019 A 
HETATM   13  C   UNL     1      -4.521  -1.814 -33.188  1.00  0.00    -0.025 A 
HETATM   14  C   UNL     1      -6.836  -1.554 -33.848  1.00  0.00     0.013 A 
HETATM   15  C   UNL     1      -4.371  -2.780 -34.198  1.00  0.00     0.012 A 
HETATM   16  C   UNL     1      -3.433  -1.494 -32.366  1.00  0.00     0.012 A 
HETATM   17  C   UNL     1      -5.438  -3.128 -35.024  1.00  0.00     0.001 A 
HETATM   18  C   UNL     1      -6.670  -2.516 -34.847  1.00  0.00     0.001 A 
HETATM   19  C   UNL     1      -3.554  -0.547 -31.354  1.00  0.00     0.001 A 
HETATM   20  C   UNL     1      -4.769   0.099 -31.157  1.00  0.00     0.009 A 
ENDBRANCH  10  11
ENDBRANCH   9  10
ENDBRANCH   1   9
BRANCH   3  21
HETATM   21  N   UNL     1      -5.191   4.449 -28.920  1.00  0.00    -0.285 NA
HETATM   22  H   UNL     1      -4.415   5.090 -28.754  1.00  0.00     0.125 HD
HETATM   23  H   UNL     1      -4.990   3.566 -28.454  1.00  0.00     0.125 HD
ENDBRANCH   3  21
BRANCH   4  24
HETATM   24  N   UNL     1      -3.342   5.607 -30.647  1.00  0.00    -0.314 N 
HETATM   25  C   UNL     1      -2.004   5.339 -30.871  1.00  0.00     0.280 C 
HETATM   26  O   UNL     1      -1.579   4.379 -31.505  1.00  0.00    -0.265 OA
HETATM   27  H   UNL     1      -3.538   6.245 -29.883  1.00  0.00     0.169 HD
BRANCH  25  28
HETATM   28  C   UNL     1      -1.109   6.265 -30.204  1.00  0.00     0.144 A 
HETATM   29  O   UNL     1      -1.619   7.228 -29.373  1.00  0.00    -0.298 OA
HETATM   30  C   UNL     1      -0.560   7.912 -28.859  1.00  0.00     0.122 A 
HETATM   31 BR   UNL     1      -0.712   9.312 -27.636  1.00  0.00    -0.023 Br
HETATM   32  C   UNL     1       0.623   7.420 -29.361  1.00  0.00     0.048 A 
HETATM   33  C   UNL     1       0.270   6.357 -30.227  1.00  0.00     0.046 A 
ENDBRANCH  25  28
ENDBRANCH   4  24
TORSDOF 6
ENDMDL
MODEL 3
REMARK VINA RESULT:      -8.9      2.448      3.857
REMARK  6 active torsions:
REMARK  status: ('A' for Active; 'I' for Inactive)
REMARK    1  A    between atoms: C_5  and  C_6 
REMARK    2  A    between atoms: C_6  and  S_7 
REMARK    3  A    between atoms: S_7  and  C_8 
REMARK    4  A    between atoms: C_10  and  N_11 
REMARK    5  A    between atoms: C_12  and  N_13 
REMARK       I    between atoms: N_13  and  C_14 
REMARK    6  A    between atoms: C_14  and  C_15 
ROOT
HETATM    1  C   UNL     1      -3.503   5.505 -33.037  1.00  0.00     0.171 C 
HETATM    2  N   UNL     1      -3.057   6.685 -33.308  1.00  0.00    -0.210 NA
HETATM    3  C   UNL     1      -2.148   7.234 -32.430  1.00  0.00     0.136 C 
HETATM    4  C   UNL     1      -1.622   6.541 -31.388  1.00  0.00     0.144 C 
HETATM    5  C   UNL     1      -1.927   5.081 -31.369  1.00  0.00     0.277 C 
HETATM    6  O   UNL     1      -1.149   4.225 -30.961  1.00  0.00    -0.266 OA
HETATM    7  N   UNL     1      -3.080   4.741 -32.002  1.00  0.00    -0.300 N 
HETATM    8  H   UNL     1      -3.321   3.762 -32.015  1.00  0.00     0.171 HD
ENDROOT
BRANCH   1   9
HETATM    9  S   UNL     1      -4.709   4.679 -33.967  1.00  0.00    -0.087 SA
BRANCH   9  10
HETATM   10  C   UNL     1      -5.499   3.651 -32.699  1.00  0.00     0.121 C 
BRANCH  10  11
HETATM   11  C   UNL     1      -5.692   2.233 -33.203  1.00  0.00    -0.037 A 
HETATM   12  C   UNL     1      -4.941   1.127 -32.705  1.00  0.00    -0.019 A 
HETATM   13  C   UNL     1      -5.176  -0.159 -33.259  1.00  0.00    -0.025 A 
HETATM   14  C   UNL     1      -3.960   1.226 -31.689  1.00  0.00     0.013 A 
HETATM   15  C   UNL     1      -4.460  -1.273 -32.788  1.00  0.00     0.012 A 
HETATM   16  C   UNL     1      -6.119  -0.322 -34.282  1.00  0.00     0.012 A 
HETATM   17  C   UNL     1      -3.508  -1.142 -31.780  1.00  0.00     0.001 A 
HETATM   18  C   UNL     1      -3.257   0.108 -31.232  1.00  0.00     0.001 A 
HETATM   19  C   UNL     1      -6.837   0.764 -34.773  1.00  0.00     0.001 A 
HETATM   20  C   UNL     1      -6.625   2.029 -34.238  1.00  0.00     0.009 A 
ENDBRANCH  10  11
ENDBRANCH   9  10
ENDBRANCH   1   9
BRANCH   3  21
HETATM   21  N   UNL     1      -1.806   8.566 -32.627  1.00  0.00    -0.285 NA
HETATM   22  H   UNL     1      -2.146   9.090 -31.820  1.00  0.00     0.125 HD
HETATM   23  H   UNL     1      -2.256   8.931 -33.465  1.00  0.00     0.125 HD
ENDBRANCH   3  21
BRANCH   4  24
HETATM   24  N   UNL     1      -0.835   7.157 -30.432  1.00  0.00    -0.314 N 
HETATM   25  C   UNL     1      -1.258   7.639 -29.207  1.00  0.00     0.280 C 
HETATM   26  O   UNL     1      -2.419   7.622 -28.811  1.00  0.00    -0.265 OA
HETATM   27  H   UNL     1       0.070   7.493 -30.744  1.00  0.00     0.169 HD
BRANCH  25  28
HETATM   28  C   UNL     1      -0.202   8.264 -28.435  1.00  0.00     0.144 A 
HETATM   29  O   UNL     1      -0.466   9.396 -27.707  1.00  0.00    -0.298 OA
HETATM   30  C   UNL     1       0.683   9.729 -27.057  1.00  0.00     0.122 A 
HETATM   31 BR   UNL     1       0.847  11.182 -25.900  1.00  0.00    -0.023 Br
HETATM   32  C   UNL     1       1.689   8.844 -27.370  1.00  0.00     0.048 A 
HETATM   33  C   UNL     1       1.119   7.897 -28.255  1.00  0.00     0.046 A 
ENDBRANCH  25  28
ENDBRANCH   4  24
TORSDOF 6
ENDMDL
MODEL 4
REMARK VINA RESULT:      -8.8      5.504      8.610
REMARK  6 active torsions:
REMARK  status: ('A' for Active; 'I' for Inactive)
REMARK    1  A    between atoms: C_5  and  C_6 
REMARK    2  A    between atoms: C_6  and  S_7 
REMARK    3  A    between atoms: S_7  and  C_8 
REMARK    4  A    between atoms: C_10  and  N_11 
REMARK    5  A    between atoms: C_12  and  N_13 
REMARK       I    between atoms: N_13  and  C_14 
REMARK    6  A    between atoms: C_14  and  C_15 
ROOT
HETATM    1  C   UNL     1      -8.681   2.615 -31.367  1.00  0.00     0.171 C 
HETATM    2  N   UNL     1      -7.617   2.723 -32.088  1.00  0.00    -0.210 NA
HETATM    3  C   UNL     1      -7.126   1.573 -32.666  1.00  0.00     0.136 C 
HETATM    4  C   UNL     1      -7.781   0.386 -32.612  1.00  0.00     0.144 C 
HETATM    5  C   UNL     1      -9.168   0.443 -32.067  1.00  0.00     0.277 C 
HETATM    6  O   UNL     1     -10.086  -0.270 -32.457  1.00  0.00    -0.266 OA
HETATM    7  N   UNL     1      -9.392   1.473 -31.210  1.00  0.00    -0.300 N 
HETATM    8  H   UNL     1     -10.319   1.550 -30.821  1.00  0.00     0.171 HD
ENDROOT
BRANCH   1   9
HETATM    9  S   UNL     1      -9.405   3.923 -30.491  1.00  0.00    -0.087 SA
BRANCH   9  10
HETATM   10  C   UNL     1     -10.398   4.715 -31.785  1.00  0.00     0.121 C 
BRANCH  10  11
HETATM   11  C   UNL     1     -11.781   4.096 -31.853  1.00  0.00    -0.037 A 
HETATM   12  C   UNL     1     -12.173   3.189 -32.882  1.00  0.00    -0.019 A 
HETATM   13  C   UNL     1     -13.499   2.683 -32.874  1.00  0.00    -0.025 A 
HETATM   14  C   UNL     1     -11.321   2.759 -33.928  1.00  0.00     0.013 A 
HETATM   15  C   UNL     1     -13.918   1.782 -33.868  1.00  0.00     0.012 A 
HETATM   16  C   UNL     1     -14.399   3.086 -31.879  1.00  0.00     0.012 A 
HETATM   17  C   UNL     1     -13.050   1.371 -34.878  1.00  0.00     0.001 A 
HETATM   18  C   UNL     1     -11.753   1.862 -34.909  1.00  0.00     0.001 A 
HETATM   19  C   UNL     1     -14.015   3.982 -30.887  1.00  0.00     0.001 A 
HETATM   20  C   UNL     1     -12.718   4.483 -30.875  1.00  0.00     0.009 A 
ENDBRANCH  10  11
ENDBRANCH   9  10
ENDBRANCH   1   9
BRANCH   3  21
HETATM   21  N   UNL     1      -5.887   1.660 -33.291  1.00  0.00    -0.285 NA
HETATM   22  H   UNL     1      -5.180   1.700 -32.558  1.00  0.00     0.125 HD
HETATM   23  H   UNL     1      -5.827   2.510 -33.849  1.00  0.00     0.125 HD
ENDBRANCH   3  21
BRANCH   4  24
HETATM   24  N   UNL     1      -7.197  -0.784 -33.062  1.00  0.00    -0.314 N 
HETATM   25  C   UNL     1      -7.064  -1.181 -34.380  1.00  0.00     0.280 C 
HETATM   26  O   UNL     1      -7.490  -0.556 -35.345  1.00  0.00    -0.265 OA
HETATM   27  H   UNL     1      -7.066  -1.515 -32.371  1.00  0.00     0.169 HD
BRANCH  25  28
HETATM   28  C   UNL     1      -6.435  -2.478 -34.534  1.00  0.00     0.144 A 
HETATM   29  O   UNL     1      -5.197  -2.705 -33.990  1.00  0.00    -0.298 OA
HETATM   30  C   UNL     1      -4.880  -4.004 -34.248  1.00  0.00     0.122 A 
HETATM   31 BR   UNL     1      -3.304  -4.829 -33.686  1.00  0.00    -0.023 Br
HETATM   32  C   UNL     1      -5.883  -4.611 -34.968  1.00  0.00     0.048 A 
HETATM   33  C   UNL     1      -6.886  -3.630 -35.151  1.00  0.00     0.046 A 
ENDBRANCH  25  28
ENDBRANCH   4  24
TORSDOF 6
ENDMDL
MODEL 5
REMARK VINA RESULT:      -8.8      6.869      9.695
REMARK  6 active torsions:
REMARK  status: ('A' for Active; 'I' for Inactive)
REMARK    1  A    between atoms: C_5  and  C_6 
REMARK    2  A    between atoms: C_6  and  S_7 
REMARK    3  A    between atoms: S_7  and  C_8 
REMARK    4  A    between atoms: C_10  and  N_11 
REMARK    5  A    between atoms: C_12  and  N_13 
REMARK       I    between atoms: N_13  and  C_14 
REMARK    6  A    between atoms: C_14  and  C_15 
ROOT
HETATM    1  C   UNL     1     -10.215   1.703 -34.088  1.00  0.00     0.171 C 
HETATM    2  N   UNL     1     -11.037   0.736 -33.857  1.00  0.00    -0.210 NA
HETATM    3  C   UNL     1     -12.356   1.068 -33.633  1.00  0.00     0.136 C 
HETATM    4  C   UNL     1     -12.830   2.331 -33.773  1.00  0.00     0.144 C 
HETATM    5  C   UNL     1     -11.883   3.307 -34.386  1.00  0.00     0.277 C 
HETATM    6  O   UNL     1     -12.229   4.225 -35.123  1.00  0.00    -0.266 OA
HETATM    7  N   UNL     1     -10.571   3.004 -34.207  1.00  0.00    -0.300 N 
HETATM    8  H   UNL     1      -9.898   3.638 -34.610  1.00  0.00     0.171 HD
ENDROOT
BRANCH   1   9
HETATM    9  S   UNL     1      -8.509   1.503 -34.311  1.00  0.00    -0.087 SA
BRANCH   9  10
HETATM   10  C   UNL     1      -8.152   0.150 -33.157  1.00  0.00     0.121 C 
BRANCH  10  11
HETATM   11  C   UNL     1      -6.700  -0.277 -33.264  1.00  0.00    -0.037 A 
HETATM   12  C   UNL     1      -6.301  -1.532 -33.809  1.00  0.00    -0.019 A 
HETATM   13  C   UNL     1      -4.918  -1.851 -33.842  1.00  0.00    -0.025 A 
HETATM   14  C   UNL     1      -7.201  -2.498 -34.321  1.00  0.00     0.013 A 
HETATM   15  C   UNL     1      -4.487  -3.077 -34.379  1.00  0.00     0.012 A 
HETATM   16  C   UNL     1      -3.976  -0.948 -33.332  1.00  0.00     0.012 A 
HETATM   17  C   UNL     1      -5.399  -4.001 -34.883  1.00  0.00     0.001 A 
HETATM   18  C   UNL     1      -6.756  -3.712 -34.852  1.00  0.00     0.001 A 
HETATM   19  C   UNL     1      -4.374   0.269 -32.788  1.00  0.00     0.001 A 
HETATM   20  C   UNL     1      -5.724   0.601 -32.754  1.00  0.00     0.009 A 
ENDBRANCH  10  11
ENDBRANCH   9  10
ENDBRANCH   1   9
BRANCH   3  21
HETATM   21  N   UNL     1     -13.200   0.047 -33.212  1.00  0.00    -0.285 NA
HETATM   22  H   UNL     1     -13.807  -0.189 -33.997  1.00  0.00     0.125 HD
HETATM   23  H   UNL     1     -13.779   0.360 -32.435  1.00  0.00     0.125 HD
ENDBRANCH   3  21
BRANCH   4  24
HETATM   24  N   UNL     1     -14.116   2.668 -33.393  1.00  0.00    -0.314 N 
HETATM   25  C   UNL     1     -14.495   3.226 -32.186  1.00  0.00     0.280 C 
HETATM   26  O   UNL     1     -13.733   3.464 -31.254  1.00  0.00    -0.265 OA
HETATM   27  H   UNL     1     -14.867   2.265 -33.942  1.00  0.00     0.169 HD
BRANCH  25  28
HETATM   28  C   UNL     1     -15.925   3.438 -32.070  1.00  0.00     0.144 A 
HETATM   29  O   UNL     1     -16.413   4.700 -31.847  1.00  0.00    -0.298 OA
HETATM   30  C   UNL     1     -17.771   4.604 -31.829  1.00  0.00     0.122 A 
HETATM   31 BR   UNL     1     -18.920   6.055 -31.594  1.00  0.00    -0.023 Br
HETATM   32  C   UNL     1     -18.166   3.299 -32.013  1.00  0.00     0.048 A 
HETATM   33  C   UNL     1     -16.978   2.547 -32.171  1.00  0.00     0.046 A 
ENDBRANCH  25  28
ENDBRANCH   4  24
TORSDOF 6
ENDMDL
MODEL 6
REMARK VINA RESULT:      -8.7      1.873      2.720
REMARK  6 active torsions:
REMARK  status: ('A' for Active; 'I' for Inactive)
REMARK    1  A    between atoms: C_5  and  C_6 
REMARK    2  A    between atoms: C_6  and  S_7 
REMARK    3  A    between atoms: S_7  and  C_8 
REMARK    4  A    between atoms: C_10  and  N_11 
REMARK    5  A    between atoms: C_12  and  N_13 
REMARK       I    between atoms: N_13  and  C_14 
REMARK    6  A    between atoms: C_14  and  C_15 
ROOT
HETATM    1  C   UNL     1      -5.110   3.351 -32.301  1.00  0.00     0.171 C 
HETATM    2  N   UNL     1      -5.681   4.455 -31.955  1.00  0.00    -0.210 NA
HETATM    3  C   UNL     1      -4.922   5.369 -31.257  1.00  0.00     0.136 C 
HETATM    4  C   UNL     1      -3.593   5.207 -31.042  1.00  0.00     0.144 C 
HETATM    5  C   UNL     1      -2.955   4.081 -31.784  1.00  0.00     0.277 C 
HETATM    6  O   UNL     1      -1.808   4.111 -32.218  1.00  0.00    -0.266 OA
HETATM    7  N   UNL     1      -3.802   3.067 -32.100  1.00  0.00    -0.300 N 
HETATM    8  H   UNL     1      -3.410   2.287 -32.606  1.00  0.00     0.171 HD
ENDROOT
BRANCH   1   9
HETATM    9  S   UNL     1      -5.914   2.046 -33.108  1.00  0.00    -0.087 SA
BRANCH   9  10
HETATM   10  C   UNL     1      -5.012   0.613 -32.458  1.00  0.00     0.121 C 
BRANCH  10  11
HETATM   11  C   UNL     1      -5.267  -0.614 -33.314  1.00  0.00    -0.037 A 
HETATM   12  C   UNL     1      -4.569  -1.844 -33.130  1.00  0.00    -0.019 A 
HETATM   13  C   UNL     1      -4.860  -2.928 -33.999  1.00  0.00    -0.025 A 
HETATM   14  C   UNL     1      -3.588  -2.059 -32.132  1.00  0.00     0.013 A 
HETATM   15  C   UNL     1      -4.197  -4.157 -33.844  1.00  0.00     0.012 A 
HETATM   16  C   UNL     1      -5.806  -2.774 -35.022  1.00  0.00     0.012 A 
HETATM   17  C   UNL     1      -3.243  -4.338 -32.844  1.00  0.00     0.001 A 
HETATM   18  C   UNL     1      -2.938  -3.288 -31.990  1.00  0.00     0.001 A 
HETATM   19  C   UNL     1      -6.472  -1.567 -35.205  1.00  0.00     0.001 A 
HETATM   20  C   UNL     1      -6.205  -0.497 -34.359  1.00  0.00     0.009 A 
ENDBRANCH  10  11
ENDBRANCH   9  10
ENDBRANCH   1   9
BRANCH   3  21
HETATM   21  N   UNL     1      -5.586   6.472 -30.734  1.00  0.00    -0.285 NA
HETATM   22  H   UNL     1      -6.508   6.157 -30.433  1.00  0.00     0.125 HD
HETATM   23  H   UNL     1      -5.704   7.190 -31.447  1.00  0.00     0.125 HD
ENDBRANCH   3  21
BRANCH   4  24
HETATM   24  N   UNL     1      -2.885   6.054 -30.208  1.00  0.00    -0.314 N 
HETATM   25  C   UNL     1      -2.083   7.109 -30.601  1.00  0.00     0.280 C 
HETATM   26  O   UNL     1      -1.851   7.417 -31.766  1.00  0.00    -0.265 OA
HETATM   27  H   UNL     1      -2.756   5.739 -29.253  1.00  0.00     0.169 HD
BRANCH  25  28
HETATM   28  C   UNL     1      -1.446   7.795 -29.494  1.00  0.00     0.144 A 
HETATM   29  O   UNL     1      -0.378   7.218 -28.856  1.00  0.00    -0.298 OA
HETATM   30  C   UNL     1       0.038   8.095 -27.902  1.00  0.00     0.122 A 
HETATM   31 BR   UNL     1       1.493   7.800 -26.772  1.00  0.00    -0.023 Br
HETATM   32  C   UNL     1      -0.757   9.218 -27.898  1.00  0.00     0.048 A 
HETATM   33  C   UNL     1      -1.712   9.027 -28.925  1.00  0.00     0.046 A 
ENDBRANCH  25  28
ENDBRANCH   4  24
TORSDOF 6
ENDMDL
MODEL 7
REMARK VINA RESULT:      -8.7      5.825      7.614
REMARK  6 active torsions:
REMARK  status: ('A' for Active; 'I' for Inactive)
REMARK    1  A    between atoms: C_5  and  C_6 
REMARK    2  A    between atoms: C_6  and  S_7 
REMARK    3  A    between atoms: S_7  and  C_8 
REMARK    4  A    between atoms: C_10  and  N_11 
REMARK    5  A    between atoms: C_12  and  N_13 
REMARK       I    between atoms: N_13  and  C_14 
REMARK    6  A    between atoms: C_14  and  C_15 
ROOT
HETATM    1  C   UNL     1      -9.100   1.963 -33.921  1.00  0.00     0.171 C 
HETATM    2  N   UNL     1      -8.355   2.992 -33.691  1.00  0.00    -0.210 NA
HETATM    3  C   UNL     1      -8.747   4.192 -34.244  1.00  0.00     0.136 C 
HETATM    4  C   UNL     1      -9.927   4.350 -34.893  1.00  0.00     0.144 C 
HETATM    5  C   UNL     1     -10.873   3.202 -34.795  1.00  0.00     0.277 C 
HETATM    6  O   UNL     1     -12.093   3.322 -34.746  1.00  0.00    -0.266 OA
HETATM    7  N   UNL     1     -10.275   1.999 -34.591  1.00  0.00    -0.300 N 
HETATM    8  H   UNL     1     -10.881   1.196 -34.515  1.00  0.00     0.171 HD
ENDROOT
BRANCH   1   9
HETATM    9  S   UNL     1      -8.737   0.355 -33.387  1.00  0.00    -0.087 SA
BRANCH   9  10
HETATM   10  C   UNL     1      -7.740  -0.265 -34.768  1.00  0.00     0.121 C 
BRANCH  10  11
HETATM   11  C   UNL     1      -6.394  -0.765 -34.276  1.00  0.00    -0.037 A 
HETATM   12  C   UNL     1      -5.990  -2.128 -34.383  1.00  0.00    -0.019 A 
HETATM   13  C   UNL     1      -4.720  -2.503 -33.869  1.00  0.00    -0.025 A 
HETATM   14  C   UNL     1      -6.779  -3.148 -34.967  1.00  0.00     0.013 A 
HETATM   15  C   UNL     1      -4.285  -3.837 -33.963  1.00  0.00     0.012 A 
HETATM   16  C   UNL     1      -3.898  -1.546 -33.260  1.00  0.00     0.012 A 
HETATM   17  C   UNL     1      -5.084  -4.813 -34.553  1.00  0.00     0.001 A 
HETATM   18  C   UNL     1      -6.332  -4.469 -35.053  1.00  0.00     0.001 A 
HETATM   19  C   UNL     1      -4.306  -0.222 -33.146  1.00  0.00     0.001 A 
HETATM   20  C   UNL     1      -5.542   0.166 -33.649  1.00  0.00     0.009 A 
ENDBRANCH  10  11
ENDBRANCH   9  10
ENDBRANCH   1   9
BRANCH   3  21
HETATM   21  N   UNL     1      -7.854   5.252 -34.145  1.00  0.00    -0.285 NA
HETATM   22  H   UNL     1      -7.881   5.755 -35.032  1.00  0.00     0.125 HD
HETATM   23  H   UNL     1      -6.907   4.910 -33.993  1.00  0.00     0.125 HD
ENDBRANCH   3  21
BRANCH   4  24
HETATM   24  N   UNL     1     -10.228   5.517 -35.573  1.00  0.00    -0.314 N 
HETATM   25  C   UNL     1     -10.951   6.589 -35.082  1.00  0.00     0.280 C 
HETATM   26  O   UNL     1     -11.469   6.634 -33.971  1.00  0.00    -0.265 OA
HETATM   27  H   UNL     1     -10.114   5.492 -36.580  1.00  0.00     0.169 HD
BRANCH  25  28
HETATM   28  C   UNL     1     -11.129   7.657 -36.046  1.00  0.00     0.144 A 
HETATM   29  O   UNL     1     -12.348   8.273 -36.166  1.00  0.00    -0.298 OA
HETATM   30  C   UNL     1     -12.209   9.252 -37.102  1.00  0.00     0.122 A 
HETATM   31 BR   UNL     1     -13.576  10.414 -37.613  1.00  0.00    -0.023 Br
HETATM   32  C   UNL     1     -10.928   9.263 -37.604  1.00  0.00     0.048 A 
HETATM   33  C   UNL     1     -10.230   8.237 -36.922  1.00  0.00     0.046 A 
ENDBRANCH  25  28
ENDBRANCH   4  24
TORSDOF 6
ENDMDL
MODEL 8
REMARK VINA RESULT:      -8.5      5.952      8.872
REMARK  6 active torsions:
REMARK  status: ('A' for Active; 'I' for Inactive)
REMARK    1  A    between atoms: C_5  and  C_6 
REMARK    2  A    between atoms: C_6  and  S_7 
REMARK    3  A    between atoms: S_7  and  C_8 
REMARK    4  A    between atoms: C_10  and  N_11 
REMARK    5  A    between atoms: C_12  and  N_13 
REMARK       I    between atoms: N_13  and  C_14 
REMARK    6  A    between atoms: C_14  and  C_15 
ROOT
HETATM    1  C   UNL     1      -8.241   2.408 -32.975  1.00  0.00     0.171 C 
HETATM    2  N   UNL     1      -8.939   2.516 -34.055  1.00  0.00    -0.210 NA
HETATM    3  C   UNL     1     -10.306   2.615 -33.917  1.00  0.00     0.136 C 
HETATM    4  C   UNL     1     -10.916   2.733 -32.711  1.00  0.00     0.144 C 
HETATM    5  C   UNL     1     -10.006   2.958 -31.551  1.00  0.00     0.277 C 
HETATM    6  O   UNL     1     -10.293   3.651 -30.581  1.00  0.00    -0.266 OA
HETATM    7  N   UNL     1      -8.749   2.471 -31.722  1.00  0.00    -0.300 N 
HETATM    8  H   UNL     1      -8.101   2.606 -30.961  1.00  0.00     0.171 HD
ENDROOT
BRANCH   1   9
HETATM    9  S   UNL     1      -6.523   2.190 -32.940  1.00  0.00    -0.087 SA
BRANCH   9  10
HETATM   10  C   UNL     1      -6.348   0.928 -31.650  1.00  0.00     0.121 C 
BRANCH  10  11
HETATM   11  C   UNL     1      -5.262  -0.066 -32.017  1.00  0.00    -0.037 A 
HETATM   12  C   UNL     1      -5.453  -1.103 -32.977  1.00  0.00    -0.019 A 
HETATM   13  C   UNL     1      -4.383  -2.000 -33.233  1.00  0.00    -0.025 A 
HETATM   14  C   UNL     1      -6.655  -1.307 -33.697  1.00  0.00     0.013 A 
HETATM   15  C   UNL     1      -4.534  -3.030 -34.177  1.00  0.00     0.012 A 
HETATM   16  C   UNL     1      -3.173  -1.867 -32.538  1.00  0.00     0.012 A 
HETATM   17  C   UNL     1      -5.728  -3.196 -34.875  1.00  0.00     0.001 A 
HETATM   18  C   UNL     1      -6.789  -2.335 -34.633  1.00  0.00     0.001 A 
HETATM   19  C   UNL     1      -2.998  -0.862 -31.593  1.00  0.00     0.001 A 
HETATM   20  C   UNL     1      -4.033   0.030 -31.334  1.00  0.00     0.009 A 
ENDBRANCH  10  11
ENDBRANCH   9  10
ENDBRANCH   1   9
BRANCH   3  21
HETATM   21  N   UNL     1     -11.064   2.551 -35.080  1.00  0.00    -0.285 NA
HETATM   22  H   UNL     1     -10.729   1.752 -35.618  1.00  0.00     0.125 HD
HETATM   23  H   UNL     1     -10.937   3.394 -35.637  1.00  0.00     0.125 HD
ENDBRANCH   3  21
BRANCH   4  24
HETATM   24  N   UNL     1     -12.292   2.673 -32.586  1.00  0.00    -0.314 N 
HETATM   25  C   UNL     1     -13.160   3.750 -32.543  1.00  0.00     0.280 C 
HETATM   26  O   UNL     1     -12.816   4.926 -32.568  1.00  0.00    -0.265 OA
HETATM   27  H   UNL     1     -12.677   1.790 -32.269  1.00  0.00     0.169 HD
BRANCH  25  28
HETATM   28  C   UNL     1     -14.548   3.367 -32.375  1.00  0.00     0.144 A 
HETATM   29  O   UNL     1     -15.469   4.300 -31.973  1.00  0.00    -0.298 OA
HETATM   30  C   UNL     1     -16.680   3.678 -31.945  1.00  0.00     0.122 A 
HETATM   31 BR   UNL     1     -18.281   4.523 -31.493  1.00  0.00    -0.023 Br
HETATM   32  C   UNL     1     -16.552   2.355 -32.299  1.00  0.00     0.048 A 
HETATM   33  C   UNL     1     -15.179   2.154 -32.580  1.00  0.00     0.046 A 
ENDBRANCH  25  28
ENDBRANCH   4  24
TORSDOF 6
ENDMDL
MODEL 9
REMARK VINA RESULT:      -8.4      3.657      8.204
REMARK  6 active torsions:
REMARK  status: ('A' for Active; 'I' for Inactive)
REMARK    1  A    between atoms: C_5  and  C_6 
REMARK    2  A    between atoms: C_6  and  S_7 
REMARK    3  A    between atoms: S_7  and  C_8 
REMARK    4  A    between atoms: C_10  and  N_11 
REMARK    5  A    between atoms: C_12  and  N_13 
REMARK       I    between atoms: N_13  and  C_14 
REMARK    6  A    between atoms: C_14  and  C_15 
ROOT
HETATM    1  C   UNL     1      -5.381   3.838 -30.264  1.00  0.00     0.171 C 
HETATM    2  N   UNL     1      -6.004   2.828 -29.759  1.00  0.00    -0.210 NA
HETATM    3  C   UNL     1      -5.882   1.619 -30.409  1.00  0.00     0.136 C 
HETATM    4  C   UNL     1      -5.044   1.433 -31.460  1.00  0.00     0.144 C 
HETATM    5  C   UNL     1      -4.106   2.558 -31.741  1.00  0.00     0.277 C 
HETATM    6  O   UNL     1      -2.964   2.408 -32.161  1.00  0.00    -0.266 OA
HETATM    7  N   UNL     1      -4.552   3.775 -31.333  1.00  0.00    -0.300 N 
HETATM    8  H   UNL     1      -3.945   4.563 -31.501  1.00  0.00     0.171 HD
ENDROOT
BRANCH   1   9
HETATM    9  S   UNL     1      -5.474   5.453 -29.644  1.00  0.00    -0.087 SA
BRANCH   9  10
HETATM   10  C   UNL     1      -4.554   6.375 -30.906  1.00  0.00     0.121 C 
BRANCH  10  11
HETATM   11  C   UNL     1      -3.363   7.085 -30.289  1.00  0.00    -0.037 A 
HETATM   12  C   UNL     1      -2.015   6.687 -30.530  1.00  0.00    -0.019 A 
HETATM   13  C   UNL     1      -0.970   7.398 -29.886  1.00  0.00    -0.025 A 
HETATM   14  C   UNL     1      -1.644   5.612 -31.374  1.00  0.00     0.013 A 
HETATM   15  C   UNL     1       0.371   7.039 -30.106  1.00  0.00     0.012 A 
HETATM   16  C   UNL     1      -1.271   8.459 -29.021  1.00  0.00     0.012 A 
HETATM   17  C   UNL     1       0.702   5.982 -30.951  1.00  0.00     0.001 A 
HETATM   18  C   UNL     1      -0.306   5.267 -31.583  1.00  0.00     0.001 A 
HETATM   19  C   UNL     1      -2.588   8.833 -28.779  1.00  0.00     0.001 A 
HETATM   20  C   UNL     1      -3.625   8.152 -29.406  1.00  0.00     0.009 A 
ENDBRANCH  10  11
ENDBRANCH   9  10
ENDBRANCH   1   9
BRANCH   3  21
HETATM   21  N   UNL     1      -6.692   0.581 -29.968  1.00  0.00    -0.285 NA
HETATM   22  H   UNL     1      -6.418  -0.258 -30.480  1.00  0.00     0.125 HD
HETATM   23  H   UNL     1      -7.671   0.780 -30.170  1.00  0.00     0.125 HD
ENDBRANCH   3  21
BRANCH   4  24
HETATM   24  N   UNL     1      -5.053   0.261 -32.194  1.00  0.00    -0.314 N 
HETATM   25  C   UNL     1      -5.592   0.086 -33.456  1.00  0.00     0.280 C 
HETATM   26  O   UNL     1      -6.184   0.953 -34.090  1.00  0.00    -0.265 OA
HETATM   27  H   UNL     1      -4.860  -0.592 -31.680  1.00  0.00     0.169 HD
BRANCH  25  28
HETATM   28  C   UNL     1      -5.475  -1.271 -33.953  1.00  0.00     0.144 A 
HETATM   29  O   UNL     1      -4.454  -2.073 -33.512  1.00  0.00    -0.298 OA
HETATM   30  C   UNL     1      -4.618  -3.288 -34.104  1.00  0.00     0.122 A 
HETATM   31 BR   UNL     1      -3.506  -4.756 -33.809  1.00  0.00    -0.023 Br
HETATM   32  C   UNL     1      -5.715  -3.276 -34.935  1.00  0.00     0.048 A 
HETATM   33  C   UNL     1      -6.269  -1.978 -34.837  1.00  0.00     0.046 A 
ENDBRANCH  25  28
ENDBRANCH   4  24
TORSDOF 6
ENDMDL
MODEL 10
REMARK VINA RESULT:      -8.4      2.846      4.574
REMARK  6 active torsions:
REMARK  status: ('A' for Active; 'I' for Inactive)
REMARK    1  A    between atoms: C_5  and  C_6 
REMARK    2  A    between atoms: C_6  and  S_7 
REMARK    3  A    between atoms: S_7  and  C_8 
REMARK    4  A    between atoms: C_10  and  N_11 
REMARK    5  A    between atoms: C_12  and  N_13 
REMARK       I    between atoms: N_13  and  C_14 
REMARK    6  A    between atoms: C_14  and  C_15 
ROOT
HETATM    1  C   UNL     1      -2.514   4.850 -31.817  1.00  0.00     0.171 C 
HETATM    2  N   UNL     1      -3.243   5.425 -30.921  1.00  0.00    -0.210 NA
HETATM    3  C   UNL     1      -2.612   6.288 -30.052  1.00  0.00     0.136 C 
HETATM    4  C   UNL     1      -1.310   6.645 -30.187  1.00  0.00     0.144 C 
HETATM    5  C   UNL     1      -0.653   6.210 -31.453  1.00  0.00     0.277 C 
HETATM    6  O   UNL     1       0.203   6.864 -32.039  1.00  0.00    -0.266 OA
HETATM    7  N   UNL     1      -1.198   5.099 -32.015  1.00  0.00    -0.300 N 
HETATM    8  H   UNL     1      -0.785   4.774 -32.875  1.00  0.00     0.171 HD
ENDROOT
BRANCH   1   9
HETATM    9  S   UNL     1      -3.100   3.673 -32.946  1.00  0.00    -0.087 SA
BRANCH   9  10
HETATM   10  C   UNL     1      -4.369   2.832 -31.961  1.00  0.00     0.121 C 
BRANCH  10  11
HETATM   11  C   UNL     1      -4.330   1.335 -32.203  1.00  0.00    -0.037 A 
HETATM   12  C   UNL     1      -5.211   0.675 -33.110  1.00  0.00    -0.019 A 
HETATM   13  C   UNL     1      -5.114  -0.735 -33.249  1.00  0.00    -0.025 A 
HETATM   14  C   UNL     1      -6.192   1.336 -33.887  1.00  0.00     0.013 A 
HETATM   15  C   UNL     1      -5.961  -1.418 -34.139  1.00  0.00     0.012 A 
HETATM   16  C   UNL     1      -4.177  -1.452 -32.493  1.00  0.00     0.012 A 
HETATM   17  C   UNL     1      -6.910  -0.734 -34.896  1.00  0.00     0.001 A 
HETATM   18  C   UNL     1      -7.027   0.642 -34.767  1.00  0.00     0.001 A 
HETATM   19  C   UNL     1      -3.331  -0.804 -31.600  1.00  0.00     0.001 A 
HETATM   20  C   UNL     1      -3.407   0.577 -31.456  1.00  0.00     0.009 A 
ENDBRANCH  10  11
ENDBRANCH   9  10
ENDBRANCH   1   9
BRANCH   3  21
HETATM   21  N   UNL     1      -3.361   6.765 -28.983  1.00  0.00    -0.285 NA
HETATM   22  H   UNL     1      -4.342   6.727 -29.259  1.00  0.00     0.125 HD
HETATM   23  H   UNL     1      -3.117   7.733 -28.779  1.00  0.00     0.125 HD
ENDBRANCH   3  21
BRANCH   4  24
HETATM   24  N   UNL     1      -0.658   7.385 -29.217  1.00  0.00    -0.314 N 
HETATM   25  C   UNL     1       0.276   6.913 -28.314  1.00  0.00     0.280 C 
HETATM   26  O   UNL     1       0.630   5.742 -28.220  1.00  0.00    -0.265 OA
HETATM   27  H   UNL     1      -1.062   8.289 -28.996  1.00  0.00     0.169 HD
BRANCH  25  28
HETATM   28  C   UNL     1       0.760   7.928 -27.398  1.00  0.00     0.144 A 
HETATM   29  O   UNL     1       1.606   7.579 -26.377  1.00  0.00    -0.298 OA
HETATM   30  C   UNL     1       1.927   8.725 -25.716  1.00  0.00     0.122 A 
HETATM   31 BR   UNL     1       3.087   8.803 -24.257  1.00  0.00    -0.023 Br
HETATM   32  C   UNL     1       1.285   9.804 -26.279  1.00  0.00     0.048 A 
HETATM   33  C   UNL     1       0.534   9.291 -27.365  1.00  0.00     0.046 A 
ENDBRANCH  25  28
ENDBRANCH   4  24
TORSDOF 6
ENDMDL
