MODEL 1
REMARK VINA RESULT:     -10.0      0.000      0.000
REMARK  8 active torsions:
REMARK  status: ('A' for Active; 'I' for Inactive)
REMARK    1  A    between atoms: C_2  and  O_3 
REMARK    2  A    between atoms: C_2  and  C_14 
REMARK    3  A    between atoms: O_3  and  C_4 
REMARK       I    between atoms: C_14  and  N_15 
REMARK    4  A    between atoms: N_15  and  N_16 
REMARK       I    between atoms: N_16  and  C_17 
REMARK    5  A    between atoms: C_17  and  C_18 
REMARK    6  A    between atoms: C_18  and  C_19 
REMARK    7  A    between atoms: C_19  and  C_20 
REMARK    8  A    between atoms: C_20  and  C_21 
ROOT
HETATM    1  N   UNL     1      -2.344   3.786 -31.274  1.00  0.00    -0.267 N 
HETATM    2  C   UNL     1      -1.934   4.537 -32.364  1.00  0.00     0.236 C 
HETATM    3  O   UNL     1      -2.103   4.188 -33.529  1.00  0.00    -0.272 OA
HETATM    4  H   UNL     1      -2.509   4.266 -30.389  1.00  0.00     0.190 HD
ENDROOT
BRANCH   1   5
HETATM    5  N   UNL     1      -3.225   2.716 -31.515  1.00  0.00    -0.265 N 
HETATM    6  C   UNL     1      -4.569   2.942 -31.254  1.00  0.00     0.265 C 
HETATM    7  O   UNL     1      -4.961   3.986 -30.729  1.00  0.00    -0.269 OA
HETATM    8  H   UNL     1      -2.935   2.048 -32.226  1.00  0.00     0.190 HD
BRANCH   6   9
HETATM    9  C   UNL     1      -5.481   1.761 -31.610  1.00  0.00     0.218 C 
HETATM   10  C   UNL     1      -5.670   0.861 -30.396  1.00  0.00     0.050 C 
BRANCH   9  11
HETATM   11  O   UNL     1      -4.760   1.074 -32.638  1.00  0.00    -0.337 OA
BRANCH  11  12
HETATM   12  C   UNL     1      -5.327  -0.001 -33.256  1.00  0.00     0.070 A 
HETATM   13  C   UNL     1      -4.534  -1.153 -33.244  1.00  0.00     0.049 A 
HETATM   14  C   UNL     1      -4.974  -2.351 -33.828  1.00  0.00    -0.023 A 
HETATM   15  C   UNL     1      -6.252  -2.395 -34.426  1.00  0.00    -0.026 A 
HETATM   16  C   UNL     1      -4.173  -3.505 -33.831  1.00  0.00     0.012 A 
HETATM   17  C   UNL     1      -7.047  -1.236 -34.422  1.00  0.00     0.015 A 
HETATM   18  C   UNL     1      -6.698  -3.594 -35.005  1.00  0.00     0.012 A 
HETATM   19  C   UNL     1      -6.588  -0.047 -33.843  1.00  0.00     0.037 A 
HETATM   20  C   UNL     1      -5.889  -4.733 -35.001  1.00  0.00     0.001 A 
HETATM   21  C   UNL     1      -4.627  -4.688 -34.416  1.00  0.00     0.001 A 
ENDBRANCH  11  12
ENDBRANCH   9  11
ENDBRANCH   6   9
ENDBRANCH   1   5
BRANCH   2  22
HETATM   22  C   UNL     1      -1.213   5.803 -31.940  1.00  0.00     0.105 C 
BRANCH  22  23
HETATM   23  C   UNL     1      -0.046   5.562 -30.986  1.00  0.00     0.014 C 
BRANCH  23  24
HETATM   24  C   UNL     1       0.292   6.804 -30.156  1.00  0.00     0.039 C 
BRANCH  24  25
HETATM   25  C   UNL     1      -0.468   6.808 -28.849  1.00  0.00    -0.056 A 
HETATM   26  C   UNL     1      -1.702   7.474 -28.763  1.00  0.00     0.039 A 
HETATM   27  C   UNL     1      -2.329   7.472 -27.539  1.00  0.00     0.063 A 
HETATM   28  C   UNL     1      -1.780   6.848 -26.422  1.00  0.00     0.063 A 
HETATM   29  N   UNL     1      -3.539   8.043 -27.159  1.00  0.00    -0.306 N 
HETATM   30  N   UNL     1      -2.650   7.036 -25.354  1.00  0.00    -0.307 N 
HETATM   31  C   UNL     1      -0.575   6.191 -26.468  1.00  0.00     0.032 A 
HETATM   32  C   UNL     1      -3.752   7.781 -25.798  1.00  0.00     0.325 A 
HETATM   33  H   UNL     1      -2.538   6.711 -24.409  1.00  0.00     0.170 HD
HETATM   34  O   UNL     1      -4.709   8.131 -25.131  1.00  0.00    -0.247 OA
HETATM   35  C   UNL     1       0.086   6.176 -27.703  1.00  0.00     0.009 A 
HETATM   36  H   UNL     1      -4.174   8.565 -27.738  1.00  0.00     0.170 HD
ENDBRANCH  24  25
ENDBRANCH  23  24
ENDBRANCH  22  23
ENDBRANCH   2  22
TORSDOF 8
ENDMDL
MODEL 2
REMARK VINA RESULT:      -9.9      1.709      2.196
REMARK  8 active torsions:
REMARK  status: ('A' for Active; 'I' for Inactive)
REMARK    1  A    between atoms: C_2  and  O_3 
REMARK    2  A    between atoms: C_2  and  C_14 
REMARK    3  A    between atoms: O_3  and  C_4 
REMARK       I    between atoms: C_14  and  N_15 
REMARK    4  A    between atoms: N_15  and  N_16 
REMARK       I    between atoms: N_16  and  C_17 
REMARK    5  A    between atoms: C_17  and  C_18 
REMARK    6  A    between atoms: C_18  and  C_19 
REMARK    7  A    between atoms: C_19  and  C_20 
REMARK    8  A    between atoms: C_20  and  C_21 
ROOT
HETATM    1  N   UNL     1      -4.190   5.112 -33.035  1.00  0.00    -0.267 N 
HETATM    2  C   UNL     1      -2.914   5.069 -33.576  1.00  0.00     0.236 C 
HETATM    3  O   UNL     1      -2.175   4.094 -33.488  1.00  0.00    -0.272 OA
HETATM    4  H   UNL     1      -4.865   5.764 -33.436  1.00  0.00     0.190 HD
ENDROOT
BRANCH   1   5
HETATM    5  N   UNL     1      -4.756   3.898 -32.605  1.00  0.00    -0.265 N 
HETATM    6  C   UNL     1      -5.872   3.450 -33.297  1.00  0.00     0.265 C 
HETATM    7  O   UNL     1      -6.412   4.132 -34.169  1.00  0.00    -0.269 OA
HETATM    8  H   UNL     1      -4.122   3.242 -32.154  1.00  0.00     0.190 HD
BRANCH   6   9
HETATM    9  C   UNL     1      -6.391   2.085 -32.826  1.00  0.00     0.218 C 
HETATM   10  C   UNL     1      -6.570   2.087 -31.314  1.00  0.00     0.050 C 
BRANCH   9  11
HETATM   11  O   UNL     1      -5.354   1.177 -33.209  1.00  0.00    -0.337 OA
BRANCH  11  12
HETATM   12  C   UNL     1      -5.681  -0.055 -33.692  1.00  0.00     0.070 A 
HETATM   13  C   UNL     1      -4.717  -1.040 -33.450  1.00  0.00     0.049 A 
HETATM   14  C   UNL     1      -4.903  -2.366 -33.873  1.00  0.00    -0.023 A 
HETATM   15  C   UNL     1      -6.096  -2.712 -34.542  1.00  0.00    -0.026 A 
HETATM   16  C   UNL     1      -3.930  -3.353 -33.643  1.00  0.00     0.012 A 
HETATM   17  C   UNL     1      -7.064  -1.720 -34.769  1.00  0.00     0.015 A 
HETATM   18  C   UNL     1      -6.288  -4.040 -34.960  1.00  0.00     0.012 A 
HETATM   19  C   UNL     1      -6.858  -0.400 -34.350  1.00  0.00     0.037 A 
HETATM   20  C   UNL     1      -5.310  -5.010 -34.726  1.00  0.00     0.001 A 
HETATM   21  C   UNL     1      -4.132  -4.667 -34.070  1.00  0.00     0.001 A 
ENDBRANCH  11  12
ENDBRANCH   9  11
ENDBRANCH   6   9
ENDBRANCH   1   5
BRANCH   2  22
HETATM   22  C   UNL     1      -2.535   6.382 -34.236  1.00  0.00     0.105 C 
BRANCH  22  23
HETATM   23  C   UNL     1      -1.923   7.402 -33.281  1.00  0.00     0.014 C 
BRANCH  23  24
HETATM   24  C   UNL     1      -0.493   7.034 -32.874  1.00  0.00     0.039 C 
BRANCH  24  25
HETATM   25  C   UNL     1      -0.423   6.660 -31.411  1.00  0.00    -0.056 A 
HETATM   26  C   UNL     1      -1.192   7.370 -30.472  1.00  0.00     0.039 A 
HETATM   27  C   UNL     1      -1.060   7.006 -29.153  1.00  0.00     0.063 A 
HETATM   28  C   UNL     1      -0.205   5.986 -28.744  1.00  0.00     0.063 A 
HETATM   29  N   UNL     1      -1.681   7.524 -28.021  1.00  0.00    -0.306 N 
HETATM   30  N   UNL     1      -0.298   5.876 -27.361  1.00  0.00    -0.307 N 
HETATM   31  C   UNL     1       0.563   5.274 -29.632  1.00  0.00     0.032 A 
HETATM   32  C   UNL     1      -1.215   6.830 -26.896  1.00  0.00     0.325 A 
HETATM   33  H   UNL     1       0.197   5.237 -26.763  1.00  0.00     0.170 HD
HETATM   34  O   UNL     1      -1.542   7.019 -25.737  1.00  0.00    -0.247 OA
HETATM   35  C   UNL     1       0.447   5.623 -30.983  1.00  0.00     0.009 A 
HETATM   36  H   UNL     1      -2.352   8.272 -27.984  1.00  0.00     0.170 HD
ENDBRANCH  24  25
ENDBRANCH  23  24
ENDBRANCH  22  23
ENDBRANCH   2  22
TORSDOF 8
ENDMDL
MODEL 3
REMARK VINA RESULT:      -9.8      1.378      1.729
REMARK  8 active torsions:
REMARK  status: ('A' for Active; 'I' for Inactive)
REMARK    1  A    between atoms: C_2  and  O_3 
REMARK    2  A    between atoms: C_2  and  C_14 
REMARK    3  A    between atoms: O_3  and  C_4 
REMARK       I    between atoms: C_14  and  N_15 
REMARK    4  A    between atoms: N_15  and  N_16 
REMARK       I    between atoms: N_16  and  C_17 
REMARK    5  A    between atoms: C_17  and  C_18 
REMARK    6  A    between atoms: C_18  and  C_19 
REMARK    7  A    between atoms: C_19  and  C_20 
REMARK    8  A    between atoms: C_20  and  C_21 
ROOT
HETATM    1  N   UNL     1      -2.263   4.356 -33.448  1.00  0.00    -0.267 N 
HETATM    2  C   UNL     1      -2.674   5.357 -34.314  1.00  0.00     0.236 C 
HETATM    3  O   UNL     1      -3.627   5.242 -35.078  1.00  0.00    -0.272 OA
HETATM    4  H   UNL     1      -1.733   4.622 -32.617  1.00  0.00     0.190 HD
ENDROOT
BRANCH   1   5
HETATM    5  N   UNL     1      -3.135   3.272 -33.245  1.00  0.00    -0.265 N 
HETATM    6  C   UNL     1      -3.895   3.289 -32.084  1.00  0.00     0.265 C 
HETATM    7  O   UNL     1      -3.732   4.148 -31.216  1.00  0.00    -0.269 OA
HETATM    8  H   UNL     1      -3.474   2.806 -34.085  1.00  0.00     0.190 HD
BRANCH   6   9
HETATM    9  C   UNL     1      -4.878   2.118 -31.964  1.00  0.00     0.218 C 
HETATM   10  C   UNL     1      -5.142   1.804 -30.497  1.00  0.00     0.050 C 
BRANCH   9  11
HETATM   11  O   UNL     1      -4.191   1.032 -32.595  1.00  0.00    -0.337 OA
BRANCH  11  12
HETATM   12  C   UNL     1      -4.907   0.030 -33.179  1.00  0.00     0.070 A 
HETATM   13  C   UNL     1      -4.228  -1.191 -33.255  1.00  0.00     0.049 A 
HETATM   14  C   UNL     1      -4.827  -2.329 -33.818  1.00  0.00    -0.023 A 
HETATM   15  C   UNL     1      -6.149  -2.239 -34.304  1.00  0.00    -0.026 A 
HETATM   16  C   UNL     1      -4.141  -3.551 -33.908  1.00  0.00     0.012 A 
HETATM   17  C   UNL     1      -6.827  -1.013 -34.212  1.00  0.00     0.015 A 
HETATM   18  C   UNL     1      -6.753  -3.378 -34.862  1.00  0.00     0.012 A 
HETATM   19  C   UNL     1      -6.211   0.114 -33.656  1.00  0.00     0.037 A 
HETATM   20  C   UNL     1      -6.057  -4.587 -34.946  1.00  0.00     0.001 A 
HETATM   21  C   UNL     1      -4.752  -4.673 -34.471  1.00  0.00     0.001 A 
ENDBRANCH  11  12
ENDBRANCH   9  11
ENDBRANCH   6   9
ENDBRANCH   1   5
BRANCH   2  22
HETATM   22  C   UNL     1      -1.774   6.577 -34.236  1.00  0.00     0.105 C 
BRANCH  22  23
HETATM   23  C   UNL     1      -1.687   7.196 -32.844  1.00  0.00     0.014 C 
BRANCH  23  24
HETATM   24  C   UNL     1      -0.280   7.092 -32.248  1.00  0.00     0.039 C 
BRANCH  24  25
HETATM   25  C   UNL     1      -0.336   6.735 -30.780  1.00  0.00    -0.056 A 
HETATM   26  C   UNL     1      -1.336   7.292 -29.965  1.00  0.00     0.039 A 
HETATM   27  C   UNL     1      -1.314   6.957 -28.631  1.00  0.00     0.063 A 
HETATM   28  C   UNL     1      -0.350   6.109 -28.092  1.00  0.00     0.063 A 
HETATM   29  N   UNL     1      -2.161   7.352 -27.601  1.00  0.00    -0.306 N 
HETATM   30  N   UNL     1      -0.602   5.982 -26.731  1.00  0.00    -0.307 N 
HETATM   31  C   UNL     1       0.643   5.548 -28.858  1.00  0.00     0.032 A 
HETATM   32  C   UNL     1      -1.729   6.753 -26.409  1.00  0.00     0.325 A 
HETATM   33  H   UNL     1      -0.083   5.442 -26.060  1.00  0.00     0.170 HD
HETATM   34  O   UNL     1      -2.234   6.877 -25.308  1.00  0.00    -0.247 OA
HETATM   35  C   UNL     1       0.644   5.872 -30.221  1.00  0.00     0.009 A 
HETATM   36  H   UNL     1      -2.955   7.965 -27.668  1.00  0.00     0.170 HD
ENDBRANCH  24  25
ENDBRANCH  23  24
ENDBRANCH  22  23
ENDBRANCH   2  22
TORSDOF 8
ENDMDL
MODEL 4
REMARK VINA RESULT:      -9.6      2.019      2.369
REMARK  8 active torsions:
REMARK  status: ('A' for Active; 'I' for Inactive)
REMARK    1  A    between atoms: C_2  and  O_3 
REMARK    2  A    between atoms: C_2  and  C_14 
REMARK    3  A    between atoms: O_3  and  C_4 
REMARK       I    between atoms: C_14  and  N_15 
REMARK    4  A    between atoms: N_15  and  N_16 
REMARK       I    between atoms: N_16  and  C_17 
REMARK    5  A    between atoms: C_17  and  C_18 
REMARK    6  A    between atoms: C_18  and  C_19 
REMARK    7  A    between atoms: C_19  and  C_20 
REMARK    8  A    between atoms: C_20  and  C_21 
ROOT
HETATM    1  N   UNL     1      -2.055   4.518 -33.698  1.00  0.00    -0.267 N 
HETATM    2  C   UNL     1      -2.489   5.816 -33.915  1.00  0.00     0.236 C 
HETATM    3  O   UNL     1      -3.650   6.106 -34.188  1.00  0.00    -0.272 OA
HETATM    4  H   UNL     1      -1.214   4.376 -33.138  1.00  0.00     0.190 HD
ENDROOT
BRANCH   1   5
HETATM    5  N   UNL     1      -3.035   3.525 -33.519  1.00  0.00    -0.265 N 
HETATM    6  C   UNL     1      -3.188   3.024 -32.234  1.00  0.00     0.265 C 
HETATM    7  O   UNL     1      -2.429   3.345 -31.318  1.00  0.00    -0.269 OA
HETATM    8  H   UNL     1      -3.817   3.545 -34.170  1.00  0.00     0.190 HD
BRANCH   6   9
HETATM    9  C   UNL     1      -4.323   2.003 -32.094  1.00  0.00     0.218 C 
HETATM   10  C   UNL     1      -4.667   1.799 -30.624  1.00  0.00     0.050 C 
BRANCH   9  11
HETATM   11  O   UNL     1      -3.773   0.805 -32.652  1.00  0.00    -0.337 OA
BRANCH  11  12
HETATM   12  C   UNL     1      -4.602  -0.124 -33.207  1.00  0.00     0.070 A 
HETATM   13  C   UNL     1      -4.041  -1.401 -33.316  1.00  0.00     0.049 A 
HETATM   14  C   UNL     1      -4.766  -2.475 -33.856  1.00  0.00    -0.023 A 
HETATM   15  C   UNL     1      -6.093  -2.262 -34.283  1.00  0.00    -0.026 A 
HETATM   16  C   UNL     1      -4.199  -3.755 -33.979  1.00  0.00     0.012 A 
HETATM   17  C   UNL     1      -6.652  -0.979 -34.159  1.00  0.00     0.015 A 
HETATM   18  C   UNL     1      -6.823  -3.337 -34.818  1.00  0.00     0.012 A 
HETATM   19  C   UNL     1      -5.912   0.083 -33.626  1.00  0.00     0.037 A 
HETATM   20  C   UNL     1      -6.245  -4.603 -34.936  1.00  0.00     0.001 A 
HETATM   21  C   UNL     1      -4.934  -4.811 -34.518  1.00  0.00     0.001 A 
ENDBRANCH  11  12
ENDBRANCH   9  11
ENDBRANCH   6   9
ENDBRANCH   1   5
BRANCH   2  22
HETATM   22  C   UNL     1      -1.350   6.816 -33.826  1.00  0.00     0.105 C 
BRANCH  22  23
HETATM   23  C   UNL     1      -1.192   7.455 -32.449  1.00  0.00     0.014 C 
BRANCH  23  24
HETATM   24  C   UNL     1      -0.204   6.690 -31.563  1.00  0.00     0.039 C 
BRANCH  24  25
HETATM   25  C   UNL     1      -0.332   7.111 -30.117  1.00  0.00    -0.056 A 
HETATM   26  C   UNL     1       0.811   7.509 -29.403  1.00  0.00     0.039 A 
HETATM   27  C   UNL     1       0.636   7.847 -28.082  1.00  0.00     0.063 A 
HETATM   28  C   UNL     1      -0.608   7.799 -27.459  1.00  0.00     0.063 A 
HETATM   29  N   UNL     1       1.570   8.269 -27.141  1.00  0.00    -0.306 N 
HETATM   30  N   UNL     1      -0.442   8.190 -26.135  1.00  0.00    -0.307 N 
HETATM   31  C   UNL     1      -1.746   7.412 -28.124  1.00  0.00     0.032 A 
HETATM   32  C   UNL     1       0.913   8.486 -25.921  1.00  0.00     0.325 A 
HETATM   33  H   UNL     1      -1.149   8.255 -25.423  1.00  0.00     0.170 HD
HETATM   34  O   UNL     1       1.419   8.858 -24.878  1.00  0.00    -0.247 OA
HETATM   35  C   UNL     1      -1.597   7.063 -29.472  1.00  0.00     0.009 A 
HETATM   36  H   UNL     1       2.556   8.402 -27.280  1.00  0.00     0.170 HD
ENDBRANCH  24  25
ENDBRANCH  23  24
ENDBRANCH  22  23
ENDBRANCH   2  22
TORSDOF 8
ENDMDL
MODEL 5
REMARK VINA RESULT:      -9.3      2.201      4.613
REMARK  8 active torsions:
REMARK  status: ('A' for Active; 'I' for Inactive)
REMARK    1  A    between atoms: C_2  and  O_3 
REMARK    2  A    between atoms: C_2  and  C_14 
REMARK    3  A    between atoms: O_3  and  C_4 
REMARK       I    between atoms: C_14  and  N_15 
REMARK    4  A    between atoms: N_15  and  N_16 
REMARK       I    between atoms: N_16  and  C_17 
REMARK    5  A    between atoms: C_17  and  C_18 
REMARK    6  A    between atoms: C_18  and  C_19 
REMARK    7  A    between atoms: C_19  and  C_20 
REMARK    8  A    between atoms: C_20  and  C_21 
ROOT
HETATM    1  N   UNL     1      -5.253   4.854 -28.241  1.00  0.00    -0.267 N 
HETATM    2  C   UNL     1      -5.072   6.222 -28.364  1.00  0.00     0.236 C 
HETATM    3  O   UNL     1      -5.582   6.896 -29.253  1.00  0.00    -0.272 OA
HETATM    4  H   UNL     1      -5.123   4.428 -27.323  1.00  0.00     0.190 HD
ENDROOT
BRANCH   1   5
HETATM    5  N   UNL     1      -6.275   4.261 -29.004  1.00  0.00    -0.265 N 
HETATM    6  C   UNL     1      -5.879   3.516 -30.106  1.00  0.00     0.265 C 
HETATM    7  O   UNL     1      -4.702   3.469 -30.469  1.00  0.00    -0.269 OA
HETATM    8  H   UNL     1      -7.137   4.044 -28.508  1.00  0.00     0.190 HD
BRANCH   6   9
HETATM    9  C   UNL     1      -7.036   2.836 -30.848  1.00  0.00     0.218 C 
HETATM   10  C   UNL     1      -8.368   3.262 -30.243  1.00  0.00     0.050 C 
BRANCH   9  11
HETATM   11  O   UNL     1      -6.808   1.441 -30.628  1.00  0.00    -0.337 OA
BRANCH  11  12
HETATM   12  C   UNL     1      -6.895   0.569 -31.673  1.00  0.00     0.070 A 
HETATM   13  C   UNL     1      -5.713  -0.131 -31.936  1.00  0.00     0.049 A 
HETATM   14  C   UNL     1      -5.636  -1.074 -32.972  1.00  0.00    -0.023 A 
HETATM   15  C   UNL     1      -6.783  -1.331 -33.753  1.00  0.00    -0.026 A 
HETATM   16  C   UNL     1      -4.446  -1.767 -33.248  1.00  0.00     0.012 A 
HETATM   17  C   UNL     1      -7.969  -0.633 -33.473  1.00  0.00     0.015 A 
HETATM   18  C   UNL     1      -6.711  -2.281 -34.787  1.00  0.00     0.012 A 
HETATM   19  C   UNL     1      -8.026   0.312 -32.442  1.00  0.00     0.037 A 
HETATM   20  C   UNL     1      -5.519  -2.960 -35.049  1.00  0.00     0.001 A 
HETATM   21  C   UNL     1      -4.388  -2.703 -34.282  1.00  0.00     0.001 A 
ENDBRANCH  11  12
ENDBRANCH   9  11
ENDBRANCH   6   9
ENDBRANCH   1   5
BRANCH   2  22
HETATM   22  C   UNL     1      -4.132   6.766 -27.302  1.00  0.00     0.105 C 
BRANCH  22  23
HETATM   23  C   UNL     1      -3.142   7.804 -27.824  1.00  0.00     0.014 C 
BRANCH  23  24
HETATM   24  C   UNL     1      -1.876   7.162 -28.398  1.00  0.00     0.039 C 
BRANCH  24  25
HETATM   25  C   UNL     1      -1.887   7.194 -29.910  1.00  0.00    -0.056 A 
HETATM   26  C   UNL     1      -1.701   6.004 -30.633  1.00  0.00     0.039 A 
HETATM   27  C   UNL     1      -1.687   6.102 -32.005  1.00  0.00     0.063 A 
HETATM   28  C   UNL     1      -1.844   7.318 -32.666  1.00  0.00     0.063 A 
HETATM   29  N   UNL     1      -1.522   5.111 -32.965  1.00  0.00    -0.306 N 
HETATM   30  N   UNL     1      -1.774   7.075 -34.033  1.00  0.00    -0.307 N 
HETATM   31  C   UNL     1      -2.025   8.501 -31.992  1.00  0.00     0.032 A 
HETATM   32  C   UNL     1      -1.572   5.702 -34.236  1.00  0.00     0.325 A 
HETATM   33  H   UNL     1      -1.846   7.747 -34.778  1.00  0.00     0.170 HD
HETATM   34  O   UNL     1      -1.461   5.134 -35.308  1.00  0.00    -0.247 OA
HETATM   35  C   UNL     1      -2.044   8.430 -30.593  1.00  0.00     0.009 A 
HETATM   36  H   UNL     1      -1.383   4.127 -32.807  1.00  0.00     0.170 HD
ENDBRANCH  24  25
ENDBRANCH  23  24
ENDBRANCH  22  23
ENDBRANCH   2  22
TORSDOF 8
ENDMDL
MODEL 6
REMARK VINA RESULT:      -9.1      2.062      2.468
REMARK  8 active torsions:
REMARK  status: ('A' for Active; 'I' for Inactive)
REMARK    1  A    between atoms: C_2  and  O_3 
REMARK    2  A    between atoms: C_2  and  C_14 
REMARK    3  A    between atoms: O_3  and  C_4 
REMARK       I    between atoms: C_14  and  N_15 
REMARK    4  A    between atoms: N_15  and  N_16 
REMARK       I    between atoms: N_16  and  C_17 
REMARK    5  A    between atoms: C_17  and  C_18 
REMARK    6  A    between atoms: C_18  and  C_19 
REMARK    7  A    between atoms: C_19  and  C_20 
REMARK    8  A    between atoms: C_20  and  C_21 
ROOT
HETATM    1  N   UNL     1      -3.107   5.687 -32.497  1.00  0.00    -0.267 N 
HETATM    2  C   UNL     1      -2.068   4.868 -32.084  1.00  0.00     0.236 C 
HETATM    3  O   UNL     1      -2.235   3.740 -31.631  1.00  0.00    -0.272 OA
HETATM    4  H   UNL     1      -2.904   6.422 -33.175  1.00  0.00     0.190 HD
ENDROOT
BRANCH   1   5
HETATM    5  N   UNL     1      -4.376   5.101 -32.654  1.00  0.00    -0.265 N 
HETATM    6  C   UNL     1      -4.825   4.924 -33.955  1.00  0.00     0.265 C 
HETATM    7  O   UNL     1      -4.200   5.361 -34.922  1.00  0.00    -0.269 OA
HETATM    8  H   UNL     1      -4.678   4.480 -31.907  1.00  0.00     0.190 HD
BRANCH   6   9
HETATM    9  C   UNL     1      -6.179   4.211 -34.055  1.00  0.00     0.218 C 
HETATM   10  C   UNL     1      -7.291   5.128 -33.563  1.00  0.00     0.050 C 
BRANCH   9  11
HETATM   11  O   UNL     1      -6.035   3.084 -33.185  1.00  0.00    -0.337 OA
BRANCH  11  12
HETATM   12  C   UNL     1      -6.219   1.825 -33.675  1.00  0.00     0.070 A 
HETATM   13  C   UNL     1      -5.240   0.907 -33.281  1.00  0.00     0.049 A 
HETATM   14  C   UNL     1      -5.287  -0.435 -33.690  1.00  0.00    -0.023 A 
HETATM   15  C   UNL     1      -6.355  -0.867 -34.504  1.00  0.00    -0.026 A 
HETATM   16  C   UNL     1      -4.296  -1.354 -33.306  1.00  0.00     0.012 A 
HETATM   17  C   UNL     1      -7.340   0.058 -34.885  1.00  0.00     0.015 A 
HETATM   18  C   UNL     1      -6.408  -2.212 -34.909  1.00  0.00     0.012 A 
HETATM   19  C   UNL     1      -7.273   1.395 -34.475  1.00  0.00     0.037 A 
HETATM   20  C   UNL     1      -5.414  -3.113 -34.521  1.00  0.00     0.001 A 
HETATM   21  C   UNL     1      -4.359  -2.685 -33.722  1.00  0.00     0.001 A 
ENDBRANCH  11  12
ENDBRANCH   9  11
ENDBRANCH   6   9
ENDBRANCH   1   5
BRANCH   2  22
HETATM   22  C   UNL     1      -0.720   5.554 -32.212  1.00  0.00     0.105 C 
BRANCH  22  23
HETATM   23  C   UNL     1      -0.448   6.593 -31.128  1.00  0.00     0.014 C 
BRANCH  23  24
HETATM   24  C   UNL     1       0.245   5.989 -29.904  1.00  0.00     0.039 C 
BRANCH  24  25
HETATM   25  C   UNL     1       0.152   6.916 -28.713  1.00  0.00    -0.056 A 
HETATM   26  C   UNL     1      -0.910   6.776 -27.803  1.00  0.00     0.039 A 
HETATM   27  C   UNL     1      -0.961   7.670 -26.760  1.00  0.00     0.063 A 
HETATM   28  C   UNL     1      -0.014   8.679 -26.597  1.00  0.00     0.063 A 
HETATM   29  N   UNL     1      -1.882   7.777 -25.724  1.00  0.00    -0.306 N 
HETATM   30  N   UNL     1      -0.353   9.407 -25.462  1.00  0.00    -0.307 N 
HETATM   31  C   UNL     1       1.035   8.847 -27.468  1.00  0.00     0.032 A 
HETATM   32  C   UNL     1      -1.517   8.856 -24.907  1.00  0.00     0.325 A 
HETATM   33  H   UNL     1       0.129  10.202 -25.079  1.00  0.00     0.170 HD
HETATM   34  O   UNL     1      -2.099   9.242 -23.908  1.00  0.00    -0.247 OA
HETATM   35  C   UNL     1       1.111   7.948 -28.540  1.00  0.00     0.009 A 
HETATM   36  H   UNL     1      -2.687   7.196 -25.563  1.00  0.00     0.170 HD
ENDBRANCH  24  25
ENDBRANCH  23  24
ENDBRANCH  22  23
ENDBRANCH   2  22
TORSDOF 8
ENDMDL
MODEL 7
REMARK VINA RESULT:      -9.1      2.943     11.390
REMARK  8 active torsions:
REMARK  status: ('A' for Active; 'I' for Inactive)
REMARK    1  A    between atoms: C_2  and  O_3 
REMARK    2  A    between atoms: C_2  and  C_14 
REMARK    3  A    between atoms: O_3  and  C_4 
REMARK       I    between atoms: C_14  and  N_15 
REMARK    4  A    between atoms: N_15  and  N_16 
REMARK       I    between atoms: N_16  and  C_17 
REMARK    5  A    between atoms: C_17  and  C_18 
REMARK    6  A    between atoms: C_18  and  C_19 
REMARK    7  A    between atoms: C_19  and  C_20 
REMARK    8  A    between atoms: C_20  and  C_21 
ROOT
HETATM    1  N   UNL     1      -3.099   4.589 -31.335  1.00  0.00    -0.267 N 
HETATM    2  C   UNL     1      -3.620   3.305 -31.377  1.00  0.00     0.236 C 
HETATM    3  O   UNL     1      -2.948   2.296 -31.192  1.00  0.00    -0.272 OA
HETATM    4  H   UNL     1      -3.733   5.363 -31.133  1.00  0.00     0.190 HD
ENDROOT
BRANCH   1   5
HETATM    5  N   UNL     1      -1.811   4.752 -30.796  1.00  0.00    -0.265 N 
HETATM    6  C   UNL     1      -0.873   5.385 -31.599  1.00  0.00     0.265 C 
HETATM    7  O   UNL     1      -1.118   5.686 -32.768  1.00  0.00    -0.269 OA
HETATM    8  H   UNL     1      -1.753   4.808 -29.781  1.00  0.00     0.190 HD
BRANCH   6   9
HETATM    9  C   UNL     1       0.487   5.598 -30.921  1.00  0.00     0.218 C 
HETATM   10  C   UNL     1       0.525   4.869 -29.584  1.00  0.00     0.050 C 
BRANCH   9  11
HETATM   11  O   UNL     1       0.550   7.014 -30.724  1.00  0.00    -0.337 OA
BRANCH  11  12
HETATM   12  C   UNL     1       0.132   7.550 -29.542  1.00  0.00     0.070 A 
HETATM   13  C   UNL     1       1.169   7.868 -28.659  1.00  0.00     0.049 A 
HETATM   14  C   UNL     1       0.911   8.438 -27.403  1.00  0.00    -0.023 A 
HETATM   15  C   UNL     1      -0.423   8.709 -27.032  1.00  0.00    -0.026 A 
HETATM   16  C   UNL     1       1.951   8.745 -26.508  1.00  0.00     0.012 A 
HETATM   17  C   UNL     1      -1.457   8.397 -27.930  1.00  0.00     0.015 A 
HETATM   18  C   UNL     1      -0.683   9.286 -25.777  1.00  0.00     0.012 A 
HETATM   19  C   UNL     1      -1.182   7.820 -29.176  1.00  0.00     0.037 A 
HETATM   20  C   UNL     1       0.361   9.584 -24.899  1.00  0.00     0.001 A 
HETATM   21  C   UNL     1       1.676   9.313 -25.263  1.00  0.00     0.001 A 
ENDBRANCH  11  12
ENDBRANCH   9  11
ENDBRANCH   6   9
ENDBRANCH   1   5
BRANCH   2  22
HETATM   22  C   UNL     1      -5.097   3.305 -31.727  1.00  0.00     0.105 C 
BRANCH  22  23
HETATM   23  C   UNL     1      -5.716   1.912 -31.801  1.00  0.00     0.014 C 
BRANCH  23  24
HETATM   24  C   UNL     1      -6.095   1.519 -33.232  1.00  0.00     0.039 C 
BRANCH  24  25
HETATM   25  C   UNL     1      -5.645   0.110 -33.546  1.00  0.00    -0.056 A 
HETATM   26  C   UNL     1      -6.534  -0.784 -34.167  1.00  0.00     0.039 A 
HETATM   27  C   UNL     1      -6.079  -2.060 -34.396  1.00  0.00     0.063 A 
HETATM   28  C   UNL     1      -4.798  -2.471 -34.032  1.00  0.00     0.063 A 
HETATM   29  N   UNL     1      -6.726  -3.144 -34.980  1.00  0.00    -0.306 N 
HETATM   30  N   UNL     1      -4.657  -3.806 -34.392  1.00  0.00    -0.307 N 
HETATM   31  C   UNL     1      -3.904  -1.626 -33.422  1.00  0.00     0.032 A 
HETATM   32  C   UNL     1      -5.852  -4.241 -34.984  1.00  0.00     0.325 A 
HETATM   33  H   UNL     1      -3.851  -4.393 -34.260  1.00  0.00     0.170 HD
HETATM   34  O   UNL     1      -6.085  -5.356 -35.416  1.00  0.00    -0.247 OA
HETATM   35  C   UNL     1      -4.342  -0.318 -33.177  1.00  0.00     0.009 A 
HETATM   36  H   UNL     1      -7.662  -3.169 -35.345  1.00  0.00     0.170 HD
ENDBRANCH  24  25
ENDBRANCH  23  24
ENDBRANCH  22  23
ENDBRANCH   2  22
TORSDOF 8
ENDMDL
MODEL 8
REMARK VINA RESULT:      -9.1      5.548      8.911
REMARK  8 active torsions:
REMARK  status: ('A' for Active; 'I' for Inactive)
REMARK    1  A    between atoms: C_2  and  O_3 
REMARK    2  A    between atoms: C_2  and  C_14 
REMARK    3  A    between atoms: O_3  and  C_4 
REMARK       I    between atoms: C_14  and  N_15 
REMARK    4  A    between atoms: N_15  and  N_16 
REMARK       I    between atoms: N_16  and  C_17 
REMARK    5  A    between atoms: C_17  and  C_18 
REMARK    6  A    between atoms: C_18  and  C_19 
REMARK    7  A    between atoms: C_19  and  C_20 
REMARK    8  A    between atoms: C_20  and  C_21 
ROOT
HETATM    1  N   UNL     1      -7.903   4.333 -32.305  1.00  0.00    -0.267 N 
HETATM    2  C   UNL     1      -7.665   4.772 -33.598  1.00  0.00     0.236 C 
HETATM    3  O   UNL     1      -6.648   4.501 -34.228  1.00  0.00    -0.272 OA
HETATM    4  H   UNL     1      -8.869   4.274 -31.983  1.00  0.00     0.190 HD
ENDROOT
BRANCH   1   5
HETATM    5  N   UNL     1      -7.070   3.320 -31.797  1.00  0.00    -0.265 N 
HETATM    6  C   UNL     1      -7.596   2.036 -31.766  1.00  0.00     0.265 C 
HETATM    7  O   UNL     1      -8.771   1.810 -32.058  1.00  0.00    -0.269 OA
HETATM    8  H   UNL     1      -6.068   3.473 -31.894  1.00  0.00     0.190 HD
BRANCH   6   9
HETATM    9  C   UNL     1      -6.610   0.970 -31.274  1.00  0.00     0.218 C 
HETATM   10  C   UNL     1      -5.922   1.441 -29.999  1.00  0.00     0.050 C 
BRANCH   9  11
HETATM   11  O   UNL     1      -5.665   0.861 -32.344  1.00  0.00    -0.337 OA
BRANCH  11  12
HETATM   12  C   UNL     1      -5.249  -0.370 -32.754  1.00  0.00     0.070 A 
HETATM   13  C   UNL     1      -6.208  -1.088 -33.477  1.00  0.00     0.049 A 
HETATM   14  C   UNL     1      -5.936  -2.369 -33.982  1.00  0.00    -0.023 A 
HETATM   15  C   UNL     1      -4.662  -2.937 -33.766  1.00  0.00    -0.026 A 
HETATM   16  C   UNL     1      -6.902  -3.098 -34.696  1.00  0.00     0.012 A 
HETATM   17  C   UNL     1      -3.702  -2.204 -33.049  1.00  0.00     0.015 A 
HETATM   18  C   UNL     1      -4.385  -4.216 -34.275  1.00  0.00     0.012 A 
HETATM   19  C   UNL     1      -3.993  -0.930 -32.545  1.00  0.00     0.037 A 
HETATM   20  C   UNL     1      -5.357  -4.929 -34.982  1.00  0.00     0.001 A 
HETATM   21  C   UNL     1      -6.615  -4.371 -35.191  1.00  0.00     0.001 A 
ENDBRANCH  11  12
ENDBRANCH   9  11
ENDBRANCH   6   9
ENDBRANCH   1   5
BRANCH   2  22
HETATM   22  C   UNL     1      -8.785   5.661 -34.109  1.00  0.00     0.105 C 
BRANCH  22  23
HETATM   23  C   UNL     1     -10.180   5.075 -33.913  1.00  0.00     0.014 C 
BRANCH  23  24
HETATM   24  C   UNL     1     -10.431   3.857 -34.809  1.00  0.00     0.039 C 
BRANCH  24  25
HETATM   25  C   UNL     1     -11.602   3.045 -34.306  1.00  0.00    -0.056 A 
HETATM   26  C   UNL     1     -12.747   3.699 -33.820  1.00  0.00     0.039 A 
HETATM   27  C   UNL     1     -13.765   2.907 -33.345  1.00  0.00     0.063 A 
HETATM   28  C   UNL     1     -13.683   1.516 -33.333  1.00  0.00     0.063 A 
HETATM   29  N   UNL     1     -14.996   3.267 -32.808  1.00  0.00    -0.306 N 
HETATM   30  N   UNL     1     -14.863   1.021 -32.788  1.00  0.00    -0.307 N 
HETATM   31  C   UNL     1     -12.580   0.843 -33.797  1.00  0.00     0.032 A 
HETATM   32  C   UNL     1     -15.692   2.102 -32.454  1.00  0.00     0.325 A 
HETATM   33  H   UNL     1     -15.110   0.058 -32.638  1.00  0.00     0.170 HD
HETATM   34  O   UNL     1     -16.801   2.040 -31.954  1.00  0.00    -0.247 OA
HETATM   35  C   UNL     1     -11.527   1.626 -34.288  1.00  0.00     0.009 A 
HETATM   36  H   UNL     1     -15.354   4.198 -32.678  1.00  0.00     0.170 HD
ENDBRANCH  24  25
ENDBRANCH  23  24
ENDBRANCH  22  23
ENDBRANCH   2  22
TORSDOF 8
ENDMDL
MODEL 9
REMARK VINA RESULT:      -9.1      1.481      2.209
REMARK  8 active torsions:
REMARK  status: ('A' for Active; 'I' for Inactive)
REMARK    1  A    between atoms: C_2  and  O_3 
REMARK    2  A    between atoms: C_2  and  C_14 
REMARK    3  A    between atoms: O_3  and  C_4 
REMARK       I    between atoms: C_14  and  N_15 
REMARK    4  A    between atoms: N_15  and  N_16 
REMARK       I    between atoms: N_16  and  C_17 
REMARK    5  A    between atoms: C_17  and  C_18 
REMARK    6  A    between atoms: C_18  and  C_19 
REMARK    7  A    between atoms: C_19  and  C_20 
REMARK    8  A    between atoms: C_20  and  C_21 
ROOT
HETATM    1  N   UNL     1      -3.394   4.572 -31.114  1.00  0.00    -0.267 N 
HETATM    2  C   UNL     1      -2.550   4.079 -32.097  1.00  0.00     0.236 C 
HETATM    3  O   UNL     1      -2.473   2.889 -32.389  1.00  0.00    -0.272 OA
HETATM    4  H   UNL     1      -3.679   5.550 -31.167  1.00  0.00     0.190 HD
ENDROOT
BRANCH   1   5
HETATM    5  N   UNL     1      -4.392   3.712 -30.622  1.00  0.00    -0.265 N 
HETATM    6  C   UNL     1      -5.579   3.658 -31.339  1.00  0.00     0.265 C 
HETATM    7  O   UNL     1      -5.796   4.409 -32.292  1.00  0.00    -0.269 OA
HETATM    8  H   UNL     1      -4.069   2.911 -30.084  1.00  0.00     0.190 HD
BRANCH   6   9
HETATM    9  C   UNL     1      -6.593   2.646 -30.791  1.00  0.00     0.218 C 
HETATM   10  C   UNL     1      -7.431   3.287 -29.693  1.00  0.00     0.050 C 
BRANCH   9  11
HETATM   11  O   UNL     1      -5.775   1.602 -30.255  1.00  0.00    -0.337 OA
BRANCH  11  12
HETATM   12  C   UNL     1      -5.346   0.595 -31.068  1.00  0.00     0.070 A 
HETATM   13  C   UNL     1      -6.305   0.151 -31.985  1.00  0.00     0.049 A 
HETATM   14  C   UNL     1      -6.022  -0.872 -32.903  1.00  0.00    -0.023 A 
HETATM   15  C   UNL     1      -4.736  -1.453 -32.908  1.00  0.00    -0.026 A 
HETATM   16  C   UNL     1      -6.988  -1.330 -33.814  1.00  0.00     0.012 A 
HETATM   17  C   UNL     1      -3.776  -0.993 -31.992  1.00  0.00     0.015 A 
HETATM   18  C   UNL     1      -4.448  -2.474 -33.830  1.00  0.00     0.012 A 
HETATM   19  C   UNL     1      -4.078   0.023 -31.077  1.00  0.00     0.037 A 
HETATM   20  C   UNL     1      -5.420  -2.918 -34.729  1.00  0.00     0.001 A 
HETATM   21  C   UNL     1      -6.689  -2.348 -34.720  1.00  0.00     0.001 A 
ENDBRANCH  11  12
ENDBRANCH   9  11
ENDBRANCH   6   9
ENDBRANCH   1   5
BRANCH   2  22
HETATM   22  C   UNL     1      -1.706   5.175 -32.721  1.00  0.00     0.105 C 
BRANCH  22  23
HETATM   23  C   UNL     1      -1.673   6.469 -31.911  1.00  0.00     0.014 C 
BRANCH  23  24
HETATM   24  C   UNL     1      -0.278   6.771 -31.354  1.00  0.00     0.039 C 
BRANCH  24  25
HETATM   25  C   UNL     1      -0.342   7.110 -29.883  1.00  0.00    -0.056 A 
HETATM   26  C   UNL     1      -1.560   6.989 -29.192  1.00  0.00     0.039 A 
HETATM   27  C   UNL     1      -1.563   7.345 -27.864  1.00  0.00     0.063 A 
HETATM   28  C   UNL     1      -0.422   7.811 -27.215  1.00  0.00     0.063 A 
HETATM   29  N   UNL     1      -2.604   7.334 -26.943  1.00  0.00    -0.306 N 
HETATM   30  N   UNL     1      -0.761   8.087 -25.895  1.00  0.00    -0.307 N 
HETATM   31  C   UNL     1       0.784   7.945 -27.859  1.00  0.00     0.032 A 
HETATM   32  C   UNL     1      -2.120   7.796 -25.710  1.00  0.00     0.325 A 
HETATM   33  H   UNL     1      -0.160   8.443 -25.171  1.00  0.00     0.170 HD
HETATM   34  O   UNL     1      -2.756   7.920 -24.679  1.00  0.00    -0.247 OA
HETATM   35  C   UNL     1       0.816   7.588 -29.213  1.00  0.00     0.009 A 
HETATM   36  H   UNL     1      -3.556   7.052 -27.103  1.00  0.00     0.170 HD
ENDBRANCH  24  25
ENDBRANCH  23  24
ENDBRANCH  22  23
ENDBRANCH   2  22
TORSDOF 8
ENDMDL
MODEL 10
REMARK VINA RESULT:      -9.0      2.489     10.864
REMARK  8 active torsions:
REMARK  status: ('A' for Active; 'I' for Inactive)
REMARK    1  A    between atoms: C_2  and  O_3 
REMARK    2  A    between atoms: C_2  and  C_14 
REMARK    3  A    between atoms: O_3  and  C_4 
REMARK       I    between atoms: C_14  and  N_15 
REMARK    4  A    between atoms: N_15  and  N_16 
REMARK       I    between atoms: N_16  and  C_17 
REMARK    5  A    between atoms: C_17  and  C_18 
REMARK    6  A    between atoms: C_18  and  C_19 
REMARK    7  A    between atoms: C_19  and  C_20 
REMARK    8  A    between atoms: C_20  and  C_21 
ROOT
HETATM    1  N   UNL     1      -4.105   3.529 -30.620  1.00  0.00    -0.267 N 
HETATM    2  C   UNL     1      -5.487   3.557 -30.512  1.00  0.00     0.236 C 
HETATM    3  O   UNL     1      -6.143   4.593 -30.484  1.00  0.00    -0.272 OA
HETATM    4  H   UNL     1      -3.666   2.688 -30.997  1.00  0.00     0.190 HD
ENDROOT
BRANCH   1   5
HETATM    5  N   UNL     1      -3.456   4.722 -30.982  1.00  0.00    -0.265 N 
HETATM    6  C   UNL     1      -2.552   4.648 -32.033  1.00  0.00     0.265 C 
HETATM    7  O   UNL     1      -2.244   3.572 -32.547  1.00  0.00    -0.269 OA
HETATM    8  H   UNL     1      -3.961   5.585 -30.787  1.00  0.00     0.190 HD
BRANCH   6   9
HETATM    9  C   UNL     1      -1.939   5.998 -32.424  1.00  0.00     0.218 C 
HETATM   10  C   UNL     1      -1.530   5.981 -33.892  1.00  0.00     0.050 C 
BRANCH   9  11
HETATM   11  O   UNL     1      -0.786   6.105 -31.582  1.00  0.00    -0.337 OA
BRANCH  11  12
HETATM   12  C   UNL     1      -0.789   6.987 -30.543  1.00  0.00     0.070 A 
HETATM   13  C   UNL     1       0.205   6.752 -29.588  1.00  0.00     0.049 A 
HETATM   14  C   UNL     1       0.347   7.575 -28.460  1.00  0.00    -0.023 A 
HETATM   15  C   UNL     1      -0.525   8.673 -28.298  1.00  0.00    -0.026 A 
HETATM   16  C   UNL     1       1.336   7.332 -27.492  1.00  0.00     0.012 A 
HETATM   17  C   UNL     1      -1.512   8.909 -29.269  1.00  0.00     0.015 A 
HETATM   18  C   UNL     1      -0.381   9.503 -27.173  1.00  0.00     0.012 A 
HETATM   19  C   UNL     1      -1.646   8.072 -30.383  1.00  0.00     0.037 A 
HETATM   20  C   UNL     1       0.606   9.246 -26.219  1.00  0.00     0.001 A 
HETATM   21  C   UNL     1       1.462   8.161 -26.377  1.00  0.00     0.001 A 
ENDBRANCH  11  12
ENDBRANCH   9  11
ENDBRANCH   6   9
ENDBRANCH   1   5
BRANCH   2  22
HETATM   22  C   UNL     1      -6.073   2.163 -30.381  1.00  0.00     0.105 C 
BRANCH  22  23
HETATM   23  C   UNL     1      -6.900   1.722 -31.585  1.00  0.00     0.014 C 
BRANCH  23  24
HETATM   24  C   UNL     1      -6.082   1.712 -32.880  1.00  0.00     0.039 C 
BRANCH  24  25
HETATM   25  C   UNL     1      -5.890   0.302 -33.392  1.00  0.00    -0.056 A 
HETATM   26  C   UNL     1      -4.839  -0.484 -32.890  1.00  0.00     0.039 A 
HETATM   27  C   UNL     1      -4.695  -1.745 -33.419  1.00  0.00     0.063 A 
HETATM   28  C   UNL     1      -5.539  -2.238 -34.411  1.00  0.00     0.063 A 
HETATM   29  N   UNL     1      -3.759  -2.730 -33.125  1.00  0.00    -0.306 N 
HETATM   30  N   UNL     1      -5.122  -3.526 -34.728  1.00  0.00    -0.307 N 
HETATM   31  C   UNL     1      -6.574  -1.497 -34.926  1.00  0.00     0.032 A 
HETATM   32  C   UNL     1      -4.011  -3.847 -33.934  1.00  0.00     0.325 A 
HETATM   33  H   UNL     1      -5.523  -4.148 -35.410  1.00  0.00     0.170 HD
HETATM   34  O   UNL     1      -3.387  -4.893 -33.947  1.00  0.00    -0.247 OA
HETATM   35  C   UNL     1      -6.745  -0.208 -34.405  1.00  0.00     0.009 A 
HETATM   36  H   UNL     1      -3.012  -2.680 -32.453  1.00  0.00     0.170 HD
ENDBRANCH  24  25
ENDBRANCH  23  24
ENDBRANCH  22  23
ENDBRANCH   2  22
TORSDOF 8
ENDMDL
