MODEL 1
REMARK VINA RESULT:      -7.2      0.000      0.000
REMARK  5 active torsions:
REMARK  status: ('A' for Active; 'I' for Inactive)
REMARK    1  A    between atoms: C_2  and  C_3 
REMARK    2  A    between atoms: C_3  and  N_4 
REMARK    3  A    between atoms: C_3  and  C_19 
REMARK       I    between atoms: N_4  and  C_5 
REMARK    4  A    between atoms: C_5  and  C_6 
REMARK    5  A    between atoms: C_7  and  C_8 
ROOT
HETATM    1  N   UNL     1      -3.839   3.702 -32.285  1.00  0.00    -0.345 N 
HETATM    2  C   UNL     1      -4.041   2.470 -31.722  1.00  0.00     0.255 C 
HETATM    3  O   UNL     1      -3.168   1.613 -31.648  1.00  0.00    -0.268 OA
HETATM    4  H   UNL     1      -4.603   4.368 -32.346  1.00  0.00     0.163 HD
ENDROOT
BRANCH   2   5
HETATM    5  C   UNL     1      -5.374   2.302 -31.177  1.00  0.00     0.075 A 
HETATM    6  C   UNL     1      -6.627   1.989 -31.796  1.00  0.00     0.076 A 
HETATM    7  N   UNL     1      -7.608   1.959 -30.874  1.00  0.00    -0.178 NA
HETATM    8  N   UNL     1      -7.002   2.199 -29.710  1.00  0.00    -0.288 N 
HETATM    9  H   UNL     1      -7.566   2.199 -28.866  1.00  0.00     0.188 HD
HETATM   10  C   UNL     1      -5.673   2.438 -29.833  1.00  0.00     0.128 A 
BRANCH   6  11
HETATM   11  C   UNL     1      -7.011   1.840 -33.262  1.00  0.00     0.040 C 
HETATM   12  C   UNL     1      -6.034   1.042 -34.137  1.00  0.00     0.011 C 
HETATM   13  C   UNL     1      -6.037  -0.449 -33.809  1.00  0.00     0.001 C 
HETATM   14  C   UNL     1      -7.436  -1.043 -33.954  1.00  0.00     0.000 C 
HETATM   15  C   UNL     1      -8.473  -0.260 -33.154  1.00  0.00     0.001 C 
HETATM   16  C   UNL     1      -8.423   1.236 -33.467  1.00  0.00     0.011 C 
ENDBRANCH   6  11
ENDBRANCH   2   5
BRANCH   1  17
HETATM   17  C   UNL     1      -2.573   4.115 -32.849  1.00  0.00     0.154 C 
BRANCH  17  18
HETATM   18  C   UNL     1      -2.732   4.955 -34.127  1.00  0.00     0.028 C 
HETATM   19  C   UNL     1      -1.435   5.219 -34.885  1.00  0.00     0.007 C 
ENDBRANCH  17  18
BRANCH  17  20
HETATM   20  C   UNL     1      -1.837   4.859 -31.771  1.00  0.00     0.127 A 
HETATM   21  N   UNL     1      -0.757   4.453 -31.128  1.00  0.00    -0.237 NA
HETATM   22  C   UNL     1      -0.450   5.452 -30.237  1.00  0.00     0.048 A 
HETATM   23  C   UNL     1       0.706   5.327 -29.323  1.00  0.00     0.072 C 
HETATM   24  C   UNL     1      -1.349   6.488 -30.356  1.00  0.00     0.116 A 
HETATM   25  N   UNL     1      -2.221   6.103 -31.336  1.00  0.00    -0.351 N 
HETATM   26  H   UNL     1      -3.009   6.634 -31.680  1.00  0.00     0.166 HD
ENDBRANCH  17  20
ENDBRANCH   1  17
TORSDOF 5
ENDMDL
MODEL 2
REMARK VINA RESULT:      -7.2      4.394      6.863
REMARK  5 active torsions:
REMARK  status: ('A' for Active; 'I' for Inactive)
REMARK    1  A    between atoms: C_2  and  C_3 
REMARK    2  A    between atoms: C_3  and  N_4 
REMARK    3  A    between atoms: C_3  and  C_19 
REMARK       I    between atoms: N_4  and  C_5 
REMARK    4  A    between atoms: C_5  and  C_6 
REMARK    5  A    between atoms: C_7  and  C_8 
ROOT
HETATM    1  N   UNL     1      -8.396  -0.309 -33.521  1.00  0.00    -0.345 N 
HETATM    2  C   UNL     1      -7.548  -0.407 -34.592  1.00  0.00     0.255 C 
HETATM    3  O   UNL     1      -7.631   0.308 -35.583  1.00  0.00    -0.268 OA
HETATM    4  H   UNL     1      -8.303  -0.943 -32.734  1.00  0.00     0.163 HD
ENDROOT
BRANCH   2   5
HETATM    5  C   UNL     1      -6.512  -1.405 -34.410  1.00  0.00     0.075 A 
HETATM    6  C   UNL     1      -5.168  -1.310 -33.926  1.00  0.00     0.076 A 
HETATM    7  N   UNL     1      -4.573  -2.518 -33.959  1.00  0.00    -0.178 NA
HETATM    8  N   UNL     1      -5.511  -3.357 -34.403  1.00  0.00    -0.288 N 
HETATM    9  H   UNL     1      -5.274  -4.341 -34.483  1.00  0.00     0.188 HD
HETATM   10  C   UNL     1      -6.679  -2.745 -34.715  1.00  0.00     0.128 A 
BRANCH   6  11
HETATM   11  C   UNL     1      -4.324  -0.102 -33.545  1.00  0.00     0.040 C 
HETATM   12  C   UNL     1      -5.076   1.071 -32.899  1.00  0.00     0.011 C 
HETATM   13  C   UNL     1      -5.559   0.749 -31.487  1.00  0.00     0.001 C 
HETATM   14  C   UNL     1      -4.395   0.345 -30.585  1.00  0.00     0.000 C 
HETATM   15  C   UNL     1      -3.565  -0.780 -31.195  1.00  0.00     0.001 C 
HETATM   16  C   UNL     1      -3.128  -0.454 -32.625  1.00  0.00     0.011 C 
ENDBRANCH   6  11
ENDBRANCH   2   5
BRANCH   1  17
HETATM   17  C   UNL     1      -9.477   0.651 -33.453  1.00  0.00     0.154 C 
BRANCH  17  18
HETATM   18  C   UNL     1     -10.818   0.015 -33.051  1.00  0.00     0.028 C 
HETATM   19  C   UNL     1     -12.052   0.733 -33.590  1.00  0.00     0.007 C 
ENDBRANCH  17  18
BRANCH  17  20
HETATM   20  C   UNL     1      -9.047   1.724 -32.493  1.00  0.00     0.127 A 
HETATM   21  N   UNL     1      -8.321   2.790 -32.775  1.00  0.00    -0.237 NA
HETATM   22  C   UNL     1      -8.179   3.474 -31.592  1.00  0.00     0.048 A 
HETATM   23  C   UNL     1      -7.396   4.727 -31.528  1.00  0.00     0.072 C 
HETATM   24  C   UNL     1      -8.846   2.819 -30.581  1.00  0.00     0.116 A 
HETATM   25  N   UNL     1      -9.398   1.713 -31.166  1.00  0.00    -0.351 N 
HETATM   26  H   UNL     1      -9.961   1.009 -30.707  1.00  0.00     0.166 HD
ENDBRANCH  17  20
ENDBRANCH   1  17
TORSDOF 5
ENDMDL
MODEL 3
REMARK VINA RESULT:      -7.1      5.066      8.345
REMARK  5 active torsions:
REMARK  status: ('A' for Active; 'I' for Inactive)
REMARK    1  A    between atoms: C_2  and  C_3 
REMARK    2  A    between atoms: C_3  and  N_4 
REMARK    3  A    between atoms: C_3  and  C_19 
REMARK       I    between atoms: N_4  and  C_5 
REMARK    4  A    between atoms: C_5  and  C_6 
REMARK    5  A    between atoms: C_7  and  C_8 
ROOT
HETATM    1  N   UNL     1     -11.046   1.421 -33.193  1.00  0.00    -0.345 N 
HETATM    2  C   UNL     1      -9.747   1.582 -33.595  1.00  0.00     0.255 C 
HETATM    3  O   UNL     1      -9.430   2.157 -34.629  1.00  0.00    -0.268 OA
HETATM    4  H   UNL     1     -11.259   0.914 -32.341  1.00  0.00     0.163 HD
ENDROOT
BRANCH   2   5
HETATM    5  C   UNL     1      -8.786   1.052 -32.648  1.00  0.00     0.075 A 
HETATM    6  C   UNL     1      -7.432   0.613 -32.805  1.00  0.00     0.076 A 
HETATM    7  N   UNL     1      -6.943   0.176 -31.629  1.00  0.00    -0.178 NA
HETATM    8  N   UNL     1      -7.927   0.368 -30.749  1.00  0.00    -0.288 N 
HETATM    9  H   UNL     1      -7.758   0.122 -29.779  1.00  0.00     0.188 HD
HETATM   10  C   UNL     1      -9.060   0.862 -31.305  1.00  0.00     0.128 A 
BRANCH   6  11
HETATM   11  C   UNL     1      -6.572   0.443 -34.050  1.00  0.00     0.040 C 
HETATM   12  C   UNL     1      -5.117   0.012 -33.811  1.00  0.00     0.011 C 
HETATM   13  C   UNL     1      -5.006  -1.432 -33.330  1.00  0.00     0.001 C 
HETATM   14  C   UNL     1      -5.655  -2.395 -34.321  1.00  0.00     0.000 C 
HETATM   15  C   UNL     1      -7.089  -1.992 -34.651  1.00  0.00     0.001 C 
HETATM   16  C   UNL     1      -7.182  -0.530 -35.090  1.00  0.00     0.011 C 
ENDBRANCH   6  11
ENDBRANCH   2   5
BRANCH   1  17
HETATM   17  C   UNL     1     -12.175   1.915 -33.952  1.00  0.00     0.154 C 
BRANCH  17  18
HETATM   18  C   UNL     1     -13.038   0.787 -34.543  1.00  0.00     0.028 C 
HETATM   19  C   UNL     1     -13.262  -0.401 -33.612  1.00  0.00     0.007 C 
ENDBRANCH  17  18
BRANCH  17  20
HETATM   20  C   UNL     1     -12.961   2.807 -33.033  1.00  0.00     0.127 A 
HETATM   21  N   UNL     1     -12.493   3.483 -31.999  1.00  0.00    -0.237 NA
HETATM   22  C   UNL     1     -13.569   4.147 -31.464  1.00  0.00     0.048 A 
HETATM   23  C   UNL     1     -13.417   4.999 -30.264  1.00  0.00     0.072 C 
HETATM   24  C   UNL     1     -14.704   3.882 -32.197  1.00  0.00     0.116 A 
HETATM   25  N   UNL     1     -14.305   3.036 -33.194  1.00  0.00    -0.351 N 
HETATM   26  H   UNL     1     -14.890   2.643 -33.919  1.00  0.00     0.166 HD
ENDBRANCH  17  20
ENDBRANCH   1  17
TORSDOF 5
ENDMDL
MODEL 4
REMARK VINA RESULT:      -7.1      1.763      3.176
REMARK  5 active torsions:
REMARK  status: ('A' for Active; 'I' for Inactive)
REMARK    1  A    between atoms: C_2  and  C_3 
REMARK    2  A    between atoms: C_3  and  N_4 
REMARK    3  A    between atoms: C_3  and  C_19 
REMARK       I    between atoms: N_4  and  C_5 
REMARK    4  A    between atoms: C_5  and  C_6 
REMARK    5  A    between atoms: C_7  and  C_8 
ROOT
HETATM    1  N   UNL     1      -5.133   2.512 -31.458  1.00  0.00    -0.345 N 
HETATM    2  C   UNL     1      -6.061   2.062 -30.557  1.00  0.00     0.255 C 
HETATM    3  O   UNL     1      -5.780   1.347 -29.603  1.00  0.00    -0.268 OA
HETATM    4  H   UNL     1      -5.420   3.081 -32.248  1.00  0.00     0.163 HD
ENDROOT
BRANCH   2   5
HETATM    5  C   UNL     1      -7.397   2.561 -30.816  1.00  0.00     0.075 A 
HETATM    6  C   UNL     1      -8.573   1.923 -31.326  1.00  0.00     0.076 A 
HETATM    7  N   UNL     1      -9.585   2.807 -31.413  1.00  0.00    -0.178 NA
HETATM    8  N   UNL     1      -9.090   3.951 -30.937  1.00  0.00    -0.288 N 
HETATM    9  H   UNL     1      -9.705   4.758 -30.891  1.00  0.00     0.188 HD
HETATM   10  C   UNL     1      -7.782   3.872 -30.592  1.00  0.00     0.128 A 
BRANCH   6  11
HETATM   11  C   UNL     1      -8.792   0.523 -31.885  1.00  0.00     0.040 C 
HETATM   12  C   UNL     1      -9.897   0.384 -32.942  1.00  0.00     0.011 C 
HETATM   13  C   UNL     1      -9.524   1.040 -34.269  1.00  0.00     0.001 C 
HETATM   14  C   UNL     1      -8.225   0.459 -34.825  1.00  0.00     0.000 C 
HETATM   15  C   UNL     1      -7.094   0.512 -33.803  1.00  0.00     0.001 C 
HETATM   16  C   UNL     1      -7.505  -0.113 -32.468  1.00  0.00     0.011 C 
ENDBRANCH   6  11
ENDBRANCH   2   5
BRANCH   1  17
HETATM   17  C   UNL     1      -3.726   2.186 -31.373  1.00  0.00     0.154 C 
BRANCH  17  18
HETATM   18  C   UNL     1      -3.358   0.913 -32.152  1.00  0.00     0.028 C 
HETATM   19  C   UNL     1      -3.181  -0.334 -31.291  1.00  0.00     0.007 C 
ENDBRANCH  17  18
BRANCH  17  20
HETATM   20  C   UNL     1      -2.970   3.389 -31.863  1.00  0.00     0.127 A 
HETATM   21  N   UNL     1      -2.690   3.687 -33.119  1.00  0.00    -0.237 NA
HETATM   22  C   UNL     1      -1.985   4.865 -33.079  1.00  0.00     0.048 A 
HETATM   23  C   UNL     1      -1.484   5.494 -34.320  1.00  0.00     0.072 C 
HETATM   24  C   UNL     1      -1.852   5.296 -31.778  1.00  0.00     0.116 A 
HETATM   25  N   UNL     1      -2.486   4.355 -31.016  1.00  0.00    -0.351 N 
HETATM   26  H   UNL     1      -2.582   4.362 -30.009  1.00  0.00     0.166 HD
ENDBRANCH  17  20
ENDBRANCH   1  17
TORSDOF 5
ENDMDL
MODEL 5
REMARK VINA RESULT:      -7.0      3.779      6.743
REMARK  5 active torsions:
REMARK  status: ('A' for Active; 'I' for Inactive)
REMARK    1  A    between atoms: C_2  and  C_3 
REMARK    2  A    between atoms: C_3  and  N_4 
REMARK    3  A    between atoms: C_3  and  C_19 
REMARK       I    between atoms: N_4  and  C_5 
REMARK    4  A    between atoms: C_5  and  C_6 
REMARK    5  A    between atoms: C_7  and  C_8 
ROOT
HETATM    1  N   UNL     1      -5.576  -0.015 -32.790  1.00  0.00    -0.345 N 
HETATM    2  C   UNL     1      -6.494   0.814 -33.377  1.00  0.00     0.255 C 
HETATM    3  O   UNL     1      -6.406   1.203 -34.535  1.00  0.00    -0.268 OA
HETATM    4  H   UNL     1      -5.680  -0.289 -31.818  1.00  0.00     0.163 HD
ENDROOT
BRANCH   2   5
HETATM    5  C   UNL     1      -7.608   1.139 -32.507  1.00  0.00     0.075 A 
HETATM    6  C   UNL     1      -8.046   2.379 -31.939  1.00  0.00     0.076 A 
HETATM    7  N   UNL     1      -9.132   2.181 -31.167  1.00  0.00    -0.178 NA
HETATM    8  N   UNL     1      -9.403   0.879 -31.273  1.00  0.00    -0.288 N 
HETATM    9  H   UNL     1     -10.212   0.516 -30.779  1.00  0.00     0.188 HD
HETATM   10  C   UNL     1      -8.511   0.202 -32.037  1.00  0.00     0.128 A 
BRANCH   6  11
HETATM   11  C   UNL     1      -7.421   3.767 -31.959  1.00  0.00     0.040 C 
HETATM   12  C   UNL     1      -7.818   4.703 -30.808  1.00  0.00     0.011 C 
HETATM   13  C   UNL     1      -7.225   4.270 -29.470  1.00  0.00     0.001 C 
HETATM   14  C   UNL     1      -5.702   4.187 -29.543  1.00  0.00     0.000 C 
HETATM   15  C   UNL     1      -5.233   3.317 -30.706  1.00  0.00     0.001 C 
HETATM   16  C   UNL     1      -5.873   3.742 -32.029  1.00  0.00     0.011 C 
ENDBRANCH   6  11
ENDBRANCH   2   5
BRANCH   1  17
HETATM   17  C   UNL     1      -4.406  -0.514 -33.481  1.00  0.00     0.154 C 
BRANCH  17  18
HETATM   18  C   UNL     1      -3.125  -0.415 -32.637  1.00  0.00     0.028 C 
HETATM   19  C   UNL     1      -3.351  -0.054 -31.172  1.00  0.00     0.007 C 
ENDBRANCH  17  18
BRANCH  17  20
HETATM   20  C   UNL     1      -4.710  -1.928 -33.886  1.00  0.00     0.127 A 
HETATM   21  N   UNL     1      -5.749  -2.341 -34.590  1.00  0.00    -0.237 NA
HETATM   22  C   UNL     1      -5.607  -3.703 -34.707  1.00  0.00     0.048 A 
HETATM   23  C   UNL     1      -6.614  -4.512 -35.427  1.00  0.00     0.072 C 
HETATM   24  C   UNL     1      -4.454  -4.117 -34.079  1.00  0.00     0.116 A 
HETATM   25  N   UNL     1      -3.890  -2.982 -33.568  1.00  0.00    -0.351 N 
HETATM   26  H   UNL     1      -3.026  -2.924 -33.045  1.00  0.00     0.166 HD
ENDBRANCH  17  20
ENDBRANCH   1  17
TORSDOF 5
ENDMDL
MODEL 6
REMARK VINA RESULT:      -7.0      2.769      5.173
REMARK  5 active torsions:
REMARK  status: ('A' for Active; 'I' for Inactive)
REMARK    1  A    between atoms: C_2  and  C_3 
REMARK    2  A    between atoms: C_3  and  N_4 
REMARK    3  A    between atoms: C_3  and  C_19 
REMARK       I    between atoms: N_4  and  C_5 
REMARK    4  A    between atoms: C_5  and  C_6 
REMARK    5  A    between atoms: C_7  and  C_8 
ROOT
HETATM    1  N   UNL     1      -5.196   2.282 -30.866  1.00  0.00    -0.345 N 
HETATM    2  C   UNL     1      -5.272   1.001 -30.386  1.00  0.00     0.255 C 
HETATM    3  O   UNL     1      -5.807   0.713 -29.323  1.00  0.00    -0.268 OA
HETATM    4  H   UNL     1      -4.718   2.473 -31.741  1.00  0.00     0.163 HD
ENDROOT
BRANCH   2   5
HETATM    5  C   UNL     1      -4.702   0.019 -31.287  1.00  0.00     0.075 A 
HETATM    6  C   UNL     1      -5.292  -0.806 -32.298  1.00  0.00     0.076 A 
HETATM    7  N   UNL     1      -4.356  -1.588 -32.868  1.00  0.00    -0.178 NA
HETATM    8  N   UNL     1      -3.209  -1.247 -32.278  1.00  0.00    -0.288 N 
HETATM    9  H   UNL     1      -2.358  -1.709 -32.581  1.00  0.00     0.188 HD
HETATM   10  C   UNL     1      -3.359  -0.313 -31.307  1.00  0.00     0.128 A 
BRANCH   6  11
HETATM   11  C   UNL     1      -6.747  -1.019 -32.695  1.00  0.00     0.040 C 
HETATM   12  C   UNL     1      -7.666   0.206 -32.573  1.00  0.00     0.011 C 
HETATM   13  C   UNL     1      -7.359   1.274 -33.620  1.00  0.00     0.001 C 
HETATM   14  C   UNL     1      -7.468   0.707 -35.034  1.00  0.00     0.000 C 
HETATM   15  C   UNL     1      -6.623  -0.551 -35.210  1.00  0.00     0.001 C 
HETATM   16  C   UNL     1      -6.916  -1.589 -34.125  1.00  0.00     0.011 C 
ENDBRANCH   6  11
ENDBRANCH   2   5
BRANCH   1  17
HETATM   17  C   UNL     1      -5.742   3.423 -30.164  1.00  0.00     0.154 C 
BRANCH  17  18
HETATM   18  C   UNL     1      -4.966   4.722 -30.438  1.00  0.00     0.028 C 
HETATM   19  C   UNL     1      -3.867   4.600 -31.489  1.00  0.00     0.007 C 
ENDBRANCH  17  18
BRANCH  17  20
HETATM   20  C   UNL     1      -7.186   3.531 -30.564  1.00  0.00     0.127 A 
HETATM   21  N   UNL     1      -7.684   4.285 -31.528  1.00  0.00    -0.237 NA
HETATM   22  C   UNL     1      -9.039   4.061 -31.521  1.00  0.00     0.048 A 
HETATM   23  C   UNL     1      -9.931   4.764 -32.469  1.00  0.00     0.072 C 
HETATM   24  C   UNL     1      -9.364   3.143 -30.547  1.00  0.00     0.116 A 
HETATM   25  N   UNL     1      -8.180   2.809 -29.951  1.00  0.00    -0.351 N 
HETATM   26  H   UNL     1      -8.054   2.153 -29.193  1.00  0.00     0.166 HD
ENDBRANCH  17  20
ENDBRANCH   1  17
TORSDOF 5
ENDMDL
MODEL 7
REMARK VINA RESULT:      -6.9      1.706      2.062
REMARK  5 active torsions:
REMARK  status: ('A' for Active; 'I' for Inactive)
REMARK    1  A    between atoms: C_2  and  C_3 
REMARK    2  A    between atoms: C_3  and  N_4 
REMARK    3  A    between atoms: C_3  and  C_19 
REMARK       I    between atoms: N_4  and  C_5 
REMARK    4  A    between atoms: C_5  and  C_6 
REMARK    5  A    between atoms: C_7  and  C_8 
ROOT
HETATM    1  N   UNL     1      -3.059   3.124 -32.746  1.00  0.00    -0.345 N 
HETATM    2  C   UNL     1      -3.862   2.753 -31.701  1.00  0.00     0.255 C 
HETATM    3  O   UNL     1      -4.364   3.554 -30.921  1.00  0.00    -0.268 OA
HETATM    4  H   UNL     1      -2.645   2.420 -33.348  1.00  0.00     0.163 HD
ENDROOT
BRANCH   2   5
HETATM    5  C   UNL     1      -4.101   1.324 -31.643  1.00  0.00     0.075 A 
HETATM    6  C   UNL     1      -5.273   0.540 -31.891  1.00  0.00     0.076 A 
HETATM    7  N   UNL     1      -5.014  -0.765 -31.687  1.00  0.00    -0.178 NA
HETATM    8  N   UNL     1      -3.720  -0.818 -31.365  1.00  0.00    -0.288 N 
HETATM    9  H   UNL     1      -3.307  -1.729 -31.190  1.00  0.00     0.188 HD
HETATM   10  C   UNL     1      -3.131   0.400 -31.296  1.00  0.00     0.128 A 
BRANCH   6  11
HETATM   11  C   UNL     1      -6.709   0.951 -32.189  1.00  0.00     0.040 C 
HETATM   12  C   UNL     1      -6.888   2.096 -33.196  1.00  0.00     0.011 C 
HETATM   13  C   UNL     1      -6.531   1.683 -34.622  1.00  0.00     0.001 C 
HETATM   14  C   UNL     1      -7.364   0.485 -35.074  1.00  0.00     0.000 C 
HETATM   15  C   UNL     1      -7.280  -0.674 -34.085  1.00  0.00     0.001 C 
HETATM   16  C   UNL     1      -7.600  -0.227 -32.657  1.00  0.00     0.011 C 
ENDBRANCH   6  11
ENDBRANCH   2   5
BRANCH   1  17
HETATM   17  C   UNL     1      -2.722   4.501 -33.034  1.00  0.00     0.154 C 
BRANCH  17  18
HETATM   18  C   UNL     1      -3.955   5.368 -33.339  1.00  0.00     0.028 C 
HETATM   19  C   UNL     1      -4.750   4.938 -34.568  1.00  0.00     0.007 C 
ENDBRANCH  17  18
BRANCH  17  20
HETATM   20  C   UNL     1      -1.945   5.015 -31.855  1.00  0.00     0.127 A 
HETATM   21  N   UNL     1      -0.782   4.566 -31.420  1.00  0.00    -0.237 NA
HETATM   22  C   UNL     1      -0.467   5.332 -30.324  1.00  0.00     0.048 A 
HETATM   23  C   UNL     1       0.777   5.093 -29.561  1.00  0.00     0.072 C 
HETATM   24  C   UNL     1      -1.449   6.272 -30.103  1.00  0.00     0.116 A 
HETATM   25  N   UNL     1      -2.378   6.065 -31.084  1.00  0.00    -0.351 N 
HETATM   26  H   UNL     1      -3.234   6.587 -31.219  1.00  0.00     0.166 HD
ENDBRANCH  17  20
ENDBRANCH   1  17
TORSDOF 5
ENDMDL
MODEL 8
REMARK VINA RESULT:      -6.9      5.105      7.357
REMARK  5 active torsions:
REMARK  status: ('A' for Active; 'I' for Inactive)
REMARK    1  A    between atoms: C_2  and  C_3 
REMARK    2  A    between atoms: C_3  and  N_4 
REMARK    3  A    between atoms: C_3  and  C_19 
REMARK       I    between atoms: N_4  and  C_5 
REMARK    4  A    between atoms: C_5  and  C_6 
REMARK    5  A    between atoms: C_7  and  C_8 
ROOT
HETATM    1  N   UNL     1      -7.416  -0.039 -33.031  1.00  0.00    -0.345 N 
HETATM    2  C   UNL     1      -8.012   1.066 -33.577  1.00  0.00     0.255 C 
HETATM    3  O   UNL     1      -7.384   1.989 -34.081  1.00  0.00    -0.268 OA
HETATM    4  H   UNL     1      -7.980  -0.766 -32.602  1.00  0.00     0.163 HD
ENDROOT
BRANCH   2   5
HETATM    5  C   UNL     1      -9.461   1.007 -33.547  1.00  0.00     0.075 A 
HETATM    6  C   UNL     1     -10.464   1.880 -34.078  1.00  0.00     0.076 A 
HETATM    7  N   UNL     1     -11.692   1.418 -33.777  1.00  0.00    -0.178 NA
HETATM    8  N   UNL     1     -11.484   0.276 -33.120  1.00  0.00    -0.288 N 
HETATM    9  H   UNL     1     -12.293  -0.257 -32.816  1.00  0.00     0.188 HD
HETATM   10  C   UNL     1     -10.173  -0.006 -32.929  1.00  0.00     0.128 A 
BRANCH   6  11
HETATM   11  C   UNL     1     -10.352   3.238 -34.760  1.00  0.00     0.040 C 
HETATM   12  C   UNL     1     -11.593   3.707 -35.534  1.00  0.00     0.011 C 
HETATM   13  C   UNL     1     -12.753   4.075 -34.612  1.00  0.00     0.001 C 
HETATM   14  C   UNL     1     -12.345   5.159 -33.617  1.00  0.00     0.000 C 
HETATM   15  C   UNL     1     -11.080   4.783 -32.851  1.00  0.00     0.001 C 
HETATM   16  C   UNL     1      -9.944   4.378 -33.793  1.00  0.00     0.011 C 
ENDBRANCH   6  11
ENDBRANCH   2   5
BRANCH   1  17
HETATM   17  C   UNL     1      -5.982  -0.226 -32.994  1.00  0.00     0.154 C 
BRANCH  17  18
HETATM   18  C   UNL     1      -5.413  -0.218 -31.566  1.00  0.00     0.028 C 
HETATM   19  C   UNL     1      -6.441   0.051 -30.471  1.00  0.00     0.007 C 
ENDBRANCH  17  18
BRANCH  17  20
HETATM   20  C   UNL     1      -5.692  -1.514 -33.712  1.00  0.00     0.127 A 
HETATM   21  N   UNL     1      -6.578  -2.343 -34.235  1.00  0.00    -0.237 NA
HETATM   22  C   UNL     1      -5.853  -3.376 -34.776  1.00  0.00     0.048 A 
HETATM   23  C   UNL     1      -6.529  -4.513 -35.439  1.00  0.00     0.072 C 
HETATM   24  C   UNL     1      -4.506  -3.161 -34.594  1.00  0.00     0.116 A 
HETATM   25  N   UNL     1      -4.415  -1.973 -33.923  1.00  0.00    -0.351 N 
HETATM   26  H   UNL     1      -3.564  -1.513 -33.629  1.00  0.00     0.166 HD
ENDBRANCH  17  20
ENDBRANCH   1  17
TORSDOF 5
ENDMDL
MODEL 9
REMARK VINA RESULT:      -6.9      4.126      6.322
REMARK  5 active torsions:
REMARK  status: ('A' for Active; 'I' for Inactive)
REMARK    1  A    between atoms: C_2  and  C_3 
REMARK    2  A    between atoms: C_3  and  N_4 
REMARK    3  A    between atoms: C_3  and  C_19 
REMARK       I    between atoms: N_4  and  C_5 
REMARK    4  A    between atoms: C_5  and  C_6 
REMARK    5  A    between atoms: C_7  and  C_8 
ROOT
HETATM    1  N   UNL     1      -5.459  -0.004 -32.631  1.00  0.00    -0.345 N 
HETATM    2  C   UNL     1      -5.879   1.298 -32.678  1.00  0.00     0.255 C 
HETATM    3  O   UNL     1      -5.321   2.161 -33.346  1.00  0.00    -0.268 OA
HETATM    4  H   UNL     1      -5.939  -0.676 -32.041  1.00  0.00     0.163 HD
ENDROOT
BRANCH   2   5
HETATM    5  C   UNL     1      -7.078   1.540 -31.900  1.00  0.00     0.075 A 
HETATM    6  C   UNL     1      -8.412   1.035 -32.020  1.00  0.00     0.076 A 
HETATM    7  N   UNL     1      -9.201   1.569 -31.068  1.00  0.00    -0.178 NA
HETATM    8  N   UNL     1      -8.396   2.348 -30.343  1.00  0.00    -0.288 N 
HETATM    9  H   UNL     1      -8.791   2.836 -29.546  1.00  0.00     0.188 HD
HETATM   10  C   UNL     1      -7.124   2.391 -30.809  1.00  0.00     0.128 A 
BRANCH   6  11
HETATM   11  C   UNL     1      -9.060   0.157 -33.082  1.00  0.00     0.040 C 
HETATM   12  C   UNL     1     -10.560  -0.120 -32.905  1.00  0.00     0.011 C 
HETATM   13  C   UNL     1     -11.418   1.117 -33.162  1.00  0.00     0.001 C 
HETATM   14  C   UNL     1     -11.174   1.675 -34.563  1.00  0.00     0.000 C 
HETATM   15  C   UNL     1      -9.692   1.920 -34.829  1.00  0.00     0.001 C 
HETATM   16  C   UNL     1      -8.848   0.680 -34.524  1.00  0.00     0.011 C 
ENDBRANCH   6  11
ENDBRANCH   2   5
BRANCH   1  17
HETATM   17  C   UNL     1      -4.313  -0.493 -33.367  1.00  0.00     0.154 C 
BRANCH  17  18
HETATM   18  C   UNL     1      -3.011  -0.442 -32.551  1.00  0.00     0.028 C 
HETATM   19  C   UNL     1      -3.191  -0.063 -31.084  1.00  0.00     0.007 C 
ENDBRANCH  17  18
BRANCH  17  20
HETATM   20  C   UNL     1      -4.646  -1.887 -33.818  1.00  0.00     0.127 A 
HETATM   21  N   UNL     1      -5.701  -2.258 -34.520  1.00  0.00    -0.237 NA
HETATM   22  C   UNL     1      -5.585  -3.616 -34.687  1.00  0.00     0.048 A 
HETATM   23  C   UNL     1      -6.615  -4.384 -35.420  1.00  0.00     0.072 C 
HETATM   24  C   UNL     1      -4.431  -4.072 -34.089  1.00  0.00     0.116 A 
HETATM   25  N   UNL     1      -3.841  -2.965 -33.547  1.00  0.00    -0.351 N 
HETATM   26  H   UNL     1      -2.970  -2.939 -33.034  1.00  0.00     0.166 HD
ENDBRANCH  17  20
ENDBRANCH   1  17
TORSDOF 5
ENDMDL
MODEL 10
REMARK VINA RESULT:      -6.9      2.199      7.018
REMARK  5 active torsions:
REMARK  status: ('A' for Active; 'I' for Inactive)
REMARK    1  A    between atoms: C_2  and  C_3 
REMARK    2  A    between atoms: C_3  and  N_4 
REMARK    3  A    between atoms: C_3  and  C_19 
REMARK       I    between atoms: N_4  and  C_5 
REMARK    4  A    between atoms: C_5  and  C_6 
REMARK    5  A    between atoms: C_7  and  C_8 
ROOT
HETATM    1  N   UNL     1      -6.311   2.001 -32.279  1.00  0.00    -0.345 N 
HETATM    2  C   UNL     1      -5.435   2.897 -31.726  1.00  0.00     0.255 C 
HETATM    3  O   UNL     1      -4.792   2.668 -30.709  1.00  0.00    -0.268 OA
HETATM    4  H   UNL     1      -6.841   2.249 -33.109  1.00  0.00     0.163 HD
ENDROOT
BRANCH   2   5
HETATM    5  C   UNL     1      -5.307   4.119 -32.495  1.00  0.00     0.075 A 
HETATM    6  C   UNL     1      -4.194   4.703 -33.183  1.00  0.00     0.076 A 
HETATM    7  N   UNL     1      -4.554   5.873 -33.745  1.00  0.00    -0.178 NA
HETATM    8  N   UNL     1      -5.852   6.009 -33.467  1.00  0.00    -0.288 N 
HETATM    9  H   UNL     1      -6.335   6.827 -33.823  1.00  0.00     0.188 HD
HETATM   10  C   UNL     1      -6.348   5.008 -32.700  1.00  0.00     0.128 A 
BRANCH   6  11
HETATM   11  C   UNL     1      -2.728   4.296 -33.244  1.00  0.00     0.040 C 
HETATM   12  C   UNL     1      -1.906   4.905 -34.389  1.00  0.00     0.011 C 
HETATM   13  C   UNL     1      -1.660   6.400 -34.201  1.00  0.00     0.001 C 
HETATM   14  C   UNL     1      -0.954   6.681 -32.876  1.00  0.00     0.000 C 
HETATM   15  C   UNL     1      -1.688   6.052 -31.696  1.00  0.00     0.001 C 
HETATM   16  C   UNL     1      -1.962   4.564 -31.924  1.00  0.00     0.011 C 
ENDBRANCH   6  11
ENDBRANCH   2   5
BRANCH   1  17
HETATM   17  C   UNL     1      -6.566   0.693 -31.716  1.00  0.00     0.154 C 
BRANCH  17  18
HETATM   18  C   UNL     1      -8.063   0.414 -31.503  1.00  0.00     0.028 C 
HETATM   19  C   UNL     1      -9.001   1.368 -32.236  1.00  0.00     0.007 C 
ENDBRANCH  17  18
BRANCH  17  20
HETATM   20  C   UNL     1      -5.927  -0.309 -32.634  1.00  0.00     0.127 A 
HETATM   21  N   UNL     1      -6.542  -1.262 -33.312  1.00  0.00    -0.237 NA
HETATM   22  C   UNL     1      -5.559  -1.926 -34.004  1.00  0.00     0.048 A 
HETATM   23  C   UNL     1      -5.885  -3.083 -34.867  1.00  0.00     0.072 C 
HETATM   24  C   UNL     1      -4.331  -1.354 -33.755  1.00  0.00     0.116 A 
HETATM   25  N   UNL     1      -4.578  -0.325 -32.890  1.00  0.00    -0.351 N 
HETATM   26  H   UNL     1      -3.894   0.310 -32.501  1.00  0.00     0.166 HD
ENDBRANCH  17  20
ENDBRANCH   1  17
TORSDOF 5
ENDMDL
