MODEL 1
REMARK VINA RESULT:      -7.8      0.000      0.000
REMARK  6 active torsions:
REMARK  status: ('A' for Active; 'I' for Inactive)
REMARK    1  A    between atoms: C_2  and  O_3 
REMARK    2  A    between atoms: O_3  and  C_4 
REMARK    3  A    between atoms: C_4  and  C_5 
REMARK    4  A    between atoms: C_6  and  O_7 
REMARK    5  A    between atoms: C_12  and  O_13 
REMARK    6  A    between atoms: C_17  and  C_18 
ROOT
HETATM    1  C   UNL     1      -4.908   0.180 -31.776  1.00  0.00     0.133 C 
HETATM    2  C   UNL     1      -6.034   0.453 -30.726  1.00  0.00     0.073 C 
HETATM    3  C   UNL     1      -5.487   0.645 -29.302  1.00  0.00     0.047 C 
HETATM    4  C   UNL     1      -6.979   1.635 -31.089  1.00  0.00     0.097 C 
HETATM    5  C   UNL     1      -7.270   1.622 -32.544  1.00  0.00     0.042 A 
HETATM    6  C   UNL     1      -6.568   0.966 -33.532  1.00  0.00     0.030 A 
HETATM    7  C   UNL     1      -7.270   1.299 -34.701  1.00  0.00     0.190 A 
HETATM    8  N   UNL     1      -8.310   2.096 -34.490  1.00  0.00    -0.149 NA
HETATM    9  N   UNL     1      -8.305   2.268 -33.156  1.00  0.00    -0.279 N 
HETATM   10  H   UNL     1      -9.035   2.838 -32.742  1.00  0.00     0.189 HD
HETATM   11  C   UNL     1      -5.342   0.160 -33.271  1.00  0.00     0.074 C 
ENDROOT
BRANCH  11  12
HETATM   12  C   UNL     1      -5.581  -1.248 -33.803  1.00  0.00    -0.048 A 
HETATM   13  C   UNL     1      -4.461  -2.057 -34.084  1.00  0.00     0.011 A 
HETATM   14  C   UNL     1      -4.618  -3.365 -34.545  1.00  0.00     0.043 A 
HETATM   15  C   UNL     1      -5.896  -3.879 -34.720  1.00  0.00     0.116 A 
HETATM   16  F   UNL     1      -6.046  -5.136 -35.157  1.00  0.00    -0.206 F 
HETATM   17  C   UNL     1      -7.017  -3.110 -34.441  1.00  0.00     0.043 A 
HETATM   18  C   UNL     1      -6.861  -1.801 -33.981  1.00  0.00     0.011 A 
ENDBRANCH  11  12
BRANCH   1  19
HETATM   19  C   UNL     1      -3.719   1.114 -31.685  1.00  0.00     0.267 C 
HETATM   20  O   UNL     1      -2.686   0.807 -31.102  1.00  0.00    -0.265 OA
BRANCH  19  21
HETATM   21  O   UNL     1      -3.903   2.269 -32.371  1.00  0.00    -0.316 OA
BRANCH  21  22
HETATM   22  C   UNL     1      -3.307   3.455 -31.806  1.00  0.00     0.123 C 
HETATM   23  C   UNL     1      -4.394   4.375 -31.259  1.00  0.00     0.040 C 
HETATM   24  C   UNL     1      -2.539   4.144 -32.926  1.00  0.00     0.040 C 
ENDBRANCH  21  22
ENDBRANCH  19  21
ENDBRANCH   1  19
BRANCH   2  25
HETATM   25  O   UNL     1      -6.868  -0.727 -30.641  1.00  0.00    -0.389 OA
HETATM   26  H   UNL     1      -6.978  -0.967 -29.703  1.00  0.00     0.210 HD
ENDBRANCH   2  25
BRANCH   7  27
HETATM   27  O   UNL     1      -7.053   0.923 -35.962  1.00  0.00    -0.343 OA
HETATM   28  H   UNL     1      -7.420   1.587 -36.564  1.00  0.00     0.219 HD
ENDBRANCH   7  27
TORSDOF 6
ENDMDL
MODEL 2
REMARK VINA RESULT:      -7.4      3.120      6.007
REMARK  6 active torsions:
REMARK  status: ('A' for Active; 'I' for Inactive)
REMARK    1  A    between atoms: C_2  and  O_3 
REMARK    2  A    between atoms: O_3  and  C_4 
REMARK    3  A    between atoms: C_4  and  C_5 
REMARK    4  A    between atoms: C_6  and  O_7 
REMARK    5  A    between atoms: C_12  and  O_13 
REMARK    6  A    between atoms: C_17  and  C_18 
ROOT
HETATM    1  C   UNL     1      -6.219   1.107 -33.319  1.00  0.00     0.133 C 
HETATM    2  C   UNL     1      -7.735   1.387 -33.583  1.00  0.00     0.073 C 
HETATM    3  C   UNL     1      -8.370   0.370 -34.544  1.00  0.00     0.047 C 
HETATM    4  C   UNL     1      -8.601   1.502 -32.294  1.00  0.00     0.097 C 
HETATM    5  C   UNL     1      -7.852   2.239 -31.246  1.00  0.00     0.042 A 
HETATM    6  C   UNL     1      -6.494   2.471 -31.193  1.00  0.00     0.030 A 
HETATM    7  C   UNL     1      -6.338   3.199 -30.003  1.00  0.00     0.190 A 
HETATM    8  N   UNL     1      -7.476   3.406 -29.351  1.00  0.00    -0.149 NA
HETATM    9  N   UNL     1      -8.397   2.826 -30.140  1.00  0.00    -0.279 N 
HETATM   10  H   UNL     1      -9.370   2.870 -29.856  1.00  0.00     0.189 HD
HETATM   11  C   UNL     1      -5.536   1.966 -32.215  1.00  0.00     0.074 C 
ENDROOT
BRANCH  11  12
HETATM   12  C   UNL     1      -4.773   3.160 -32.778  1.00  0.00    -0.048 A 
HETATM   13  C   UNL     1      -3.370   3.184 -32.639  1.00  0.00     0.011 A 
HETATM   14  C   UNL     1      -2.617   4.238 -33.159  1.00  0.00     0.043 A 
HETATM   15  C   UNL     1      -3.257   5.270 -33.832  1.00  0.00     0.116 A 
HETATM   16  F   UNL     1      -2.532   6.277 -34.336  1.00  0.00    -0.206 F 
HETATM   17  C   UNL     1      -4.635   5.267 -33.994  1.00  0.00     0.043 A 
HETATM   18  C   UNL     1      -5.391   4.215 -33.472  1.00  0.00     0.011 A 
ENDBRANCH  11  12
BRANCH   1  19
HETATM   19  C   UNL     1      -5.888  -0.338 -33.008  1.00  0.00     0.267 C 
HETATM   20  O   UNL     1      -6.073  -0.830 -31.901  1.00  0.00    -0.265 OA
BRANCH  19  21
HETATM   21  O   UNL     1      -5.449  -1.023 -34.092  1.00  0.00    -0.316 OA
BRANCH  21  22
HETATM   22  C   UNL     1      -5.492  -2.462 -34.004  1.00  0.00     0.123 C 
HETATM   23  C   UNL     1      -4.258  -3.063 -34.670  1.00  0.00     0.040 C 
HETATM   24  C   UNL     1      -6.758  -2.914 -34.719  1.00  0.00     0.040 C 
ENDBRANCH  21  22
ENDBRANCH  19  21
ENDBRANCH   1  19
BRANCH   2  25
HETATM   25  O   UNL     1      -7.848   2.657 -34.267  1.00  0.00    -0.389 OA
HETATM   26  H   UNL     1      -8.567   3.171 -33.858  1.00  0.00     0.210 HD
ENDBRANCH   2  25
BRANCH   7  27
HETATM   27  O   UNL     1      -5.235   3.714 -29.457  1.00  0.00    -0.343 OA
HETATM   28  H   UNL     1      -5.482   4.369 -28.788  1.00  0.00     0.219 HD
ENDBRANCH   7  27
TORSDOF 6
ENDMDL
MODEL 3
REMARK VINA RESULT:      -7.4      2.524      4.675
REMARK  6 active torsions:
REMARK  status: ('A' for Active; 'I' for Inactive)
REMARK    1  A    between atoms: C_2  and  O_3 
REMARK    2  A    between atoms: O_3  and  C_4 
REMARK    3  A    between atoms: C_4  and  C_5 
REMARK    4  A    between atoms: C_6  and  O_7 
REMARK    5  A    between atoms: C_12  and  O_13 
REMARK    6  A    between atoms: C_17  and  C_18 
ROOT
HETATM    1  C   UNL     1      -7.204   1.721 -32.582  1.00  0.00     0.133 C 
HETATM    2  C   UNL     1      -6.640   2.975 -33.327  1.00  0.00     0.073 C 
HETATM    3  C   UNL     1      -7.725   4.014 -33.651  1.00  0.00     0.047 C 
HETATM    4  C   UNL     1      -5.448   3.669 -32.606  1.00  0.00     0.097 C 
HETATM    5  C   UNL     1      -4.543   2.646 -32.025  1.00  0.00     0.042 A 
HETATM    6  C   UNL     1      -4.829   1.320 -31.777  1.00  0.00     0.030 A 
HETATM    7  C   UNL     1      -3.632   0.831 -31.229  1.00  0.00     0.190 A 
HETATM    8  N   UNL     1      -2.679   1.749 -31.124  1.00  0.00    -0.149 NA
HETATM    9  N   UNL     1      -3.251   2.852 -31.636  1.00  0.00    -0.279 N 
HETATM   10  H   UNL     1      -2.700   3.703 -31.683  1.00  0.00     0.189 HD
HETATM   11  C   UNL     1      -6.157   0.703 -32.044  1.00  0.00     0.074 C 
ENDROOT
BRANCH  11  12
HETATM   12  C   UNL     1      -5.947  -0.484 -32.978  1.00  0.00    -0.048 A 
HETATM   13  C   UNL     1      -7.083  -1.161 -33.466  1.00  0.00     0.011 A 
HETATM   14  C   UNL     1      -6.953  -2.236 -34.347  1.00  0.00     0.043 A 
HETATM   15  C   UNL     1      -5.688  -2.637 -34.755  1.00  0.00     0.116 A 
HETATM   16  F   UNL     1      -5.564  -3.665 -35.604  1.00  0.00    -0.206 F 
HETATM   17  C   UNL     1      -4.552  -1.982 -34.299  1.00  0.00     0.043 A 
HETATM   18  C   UNL     1      -4.680  -0.908 -33.416  1.00  0.00     0.011 A 
ENDBRANCH  11  12
BRANCH   1  19
HETATM   19  C   UNL     1      -8.132   2.037 -31.427  1.00  0.00     0.267 C 
HETATM   20  O   UNL     1      -7.841   2.847 -30.555  1.00  0.00    -0.265 OA
BRANCH  19  21
HETATM   21  O   UNL     1      -9.321   1.392 -31.514  1.00  0.00    -0.316 OA
BRANCH  21  22
HETATM   22  C   UNL     1      -9.879   1.248 -32.836  1.00  0.00     0.123 C 
HETATM   23  C   UNL     1     -10.944   2.314 -33.071  1.00  0.00     0.040 C 
HETATM   24  C   UNL     1     -10.493  -0.145 -32.909  1.00  0.00     0.040 C 
ENDBRANCH  21  22
ENDBRANCH  19  21
ENDBRANCH   1  19
BRANCH   2  25
HETATM   25  O   UNL     1      -6.144   2.548 -34.618  1.00  0.00    -0.389 OA
HETATM   26  H   UNL     1      -5.342   2.012 -34.484  1.00  0.00     0.210 HD
ENDBRANCH   2  25
BRANCH   7  27
HETATM   27  O   UNL     1      -3.322  -0.401 -30.823  1.00  0.00    -0.343 OA
HETATM   28  H   UNL     1      -3.087  -0.381 -29.883  1.00  0.00     0.219 HD
ENDBRANCH   7  27
TORSDOF 6
ENDMDL
MODEL 4
REMARK VINA RESULT:      -7.4      5.638      8.395
REMARK  6 active torsions:
REMARK  status: ('A' for Active; 'I' for Inactive)
REMARK    1  A    between atoms: C_2  and  O_3 
REMARK    2  A    between atoms: O_3  and  C_4 
REMARK    3  A    between atoms: C_4  and  C_5 
REMARK    4  A    between atoms: C_6  and  O_7 
REMARK    5  A    between atoms: C_12  and  O_13 
REMARK    6  A    between atoms: C_17  and  C_18 
ROOT
HETATM    1  C   UNL     1      -3.796   5.061 -30.939  1.00  0.00     0.133 C 
HETATM    2  C   UNL     1      -3.474   3.616 -31.443  1.00  0.00     0.073 C 
HETATM    3  C   UNL     1      -4.441   2.561 -30.883  1.00  0.00     0.047 C 
HETATM    4  C   UNL     1      -3.386   3.479 -32.990  1.00  0.00     0.097 C 
HETATM    5  C   UNL     1      -2.705   4.665 -33.566  1.00  0.00     0.042 A 
HETATM    6  C   UNL     1      -2.505   5.889 -32.964  1.00  0.00     0.030 A 
HETATM    7  C   UNL     1      -1.825   6.624 -33.948  1.00  0.00     0.190 A 
HETATM    8  N   UNL     1      -1.616   5.947 -35.071  1.00  0.00    -0.149 NA
HETATM    9  N   UNL     1      -2.147   4.740 -34.809  1.00  0.00    -0.279 N 
HETATM   10  H   UNL     1      -2.092   4.024 -35.527  1.00  0.00     0.189 HD
HETATM   11  C   UNL     1      -2.994   6.221 -31.597  1.00  0.00     0.074 C 
ENDROOT
BRANCH  11  12
HETATM   12  C   UNL     1      -1.797   6.665 -30.763  1.00  0.00    -0.048 A 
HETATM   13  C   UNL     1      -1.958   7.759 -29.889  1.00  0.00     0.011 A 
HETATM   14  C   UNL     1      -0.906   8.190 -29.079  1.00  0.00     0.043 A 
HETATM   15  C   UNL     1       0.312   7.527 -29.129  1.00  0.00     0.116 A 
HETATM   16  F   UNL     1       1.319   7.938 -28.348  1.00  0.00    -0.206 F 
HETATM   17  C   UNL     1       0.497   6.440 -29.972  1.00  0.00     0.043 A 
HETATM   18  C   UNL     1      -0.554   6.008 -30.784  1.00  0.00     0.011 A 
ENDBRANCH  11  12
BRANCH   1  19
HETATM   19  C   UNL     1      -5.259   5.447 -31.022  1.00  0.00     0.267 C 
HETATM   20  O   UNL     1      -5.835   5.608 -32.091  1.00  0.00    -0.265 OA
BRANCH  19  21
HETATM   21  O   UNL     1      -5.856   5.515 -29.807  1.00  0.00    -0.316 OA
BRANCH  21  22
HETATM   22  C   UNL     1      -5.163   6.269 -28.791  1.00  0.00     0.123 C 
HETATM   23  C   UNL     1      -5.502   5.719 -27.410  1.00  0.00     0.040 C 
HETATM   24  C   UNL     1      -5.627   7.714 -28.918  1.00  0.00     0.040 C 
ENDBRANCH  21  22
ENDBRANCH  19  21
ENDBRANCH   1  19
BRANCH   2  25
HETATM   25  O   UNL     1      -2.177   3.236 -30.924  1.00  0.00    -0.389 OA
HETATM   26  H   UNL     1      -2.099   3.558 -30.008  1.00  0.00     0.210 HD
ENDBRANCH   2  25
BRANCH   7  27
HETATM   27  O   UNL     1      -1.355   7.872 -33.908  1.00  0.00    -0.343 OA
HETATM   28  H   UNL     1      -0.988   8.106 -34.773  1.00  0.00     0.219 HD
ENDBRANCH   7  27
TORSDOF 6
ENDMDL
MODEL 5
REMARK VINA RESULT:      -7.2      1.442      1.854
REMARK  6 active torsions:
REMARK  status: ('A' for Active; 'I' for Inactive)
REMARK    1  A    between atoms: C_2  and  O_3 
REMARK    2  A    between atoms: O_3  and  C_4 
REMARK    3  A    between atoms: C_4  and  C_5 
REMARK    4  A    between atoms: C_6  and  O_7 
REMARK    5  A    between atoms: C_12  and  O_13 
REMARK    6  A    between atoms: C_17  and  C_18 
ROOT
HETATM    1  C   UNL     1      -5.502   1.670 -32.310  1.00  0.00     0.133 C 
HETATM    2  C   UNL     1      -6.195   1.632 -30.907  1.00  0.00     0.073 C 
HETATM    3  C   UNL     1      -5.377   2.346 -29.820  1.00  0.00     0.047 C 
HETATM    4  C   UNL     1      -7.657   2.164 -30.899  1.00  0.00     0.097 C 
HETATM    5  C   UNL     1      -8.368   1.714 -32.121  1.00  0.00     0.042 A 
HETATM    6  C   UNL     1      -7.807   1.243 -33.289  1.00  0.00     0.030 A 
HETATM    7  C   UNL     1      -8.924   0.972 -34.096  1.00  0.00     0.190 A 
HETATM    8  N   UNL     1     -10.084   1.250 -33.512  1.00  0.00    -0.149 NA
HETATM    9  N   UNL     1      -9.722   1.686 -32.293  1.00  0.00    -0.279 N 
HETATM   10  H   UNL     1     -10.452   1.947 -31.639  1.00  0.00     0.189 HD
HETATM   11  C   UNL     1      -6.338   1.141 -33.512  1.00  0.00     0.074 C 
ENDROOT
BRANCH  11  12
HETATM   12  C   UNL     1      -6.014  -0.304 -33.872  1.00  0.00    -0.048 A 
HETATM   13  C   UNL     1      -4.700  -0.769 -33.660  1.00  0.00     0.011 A 
HETATM   14  C   UNL     1      -4.353  -2.090 -33.943  1.00  0.00     0.043 A 
HETATM   15  C   UNL     1      -5.317  -2.961 -34.432  1.00  0.00     0.116 A 
HETATM   16  F   UNL     1      -4.984  -4.230 -34.699  1.00  0.00    -0.206 F 
HETATM   17  C   UNL     1      -6.621  -2.535 -34.640  1.00  0.00     0.043 A 
HETATM   18  C   UNL     1      -6.970  -1.212 -34.359  1.00  0.00     0.011 A 
ENDBRANCH  11  12
BRANCH   1  19
HETATM   19  C   UNL     1      -4.974   3.030 -32.716  1.00  0.00     0.267 C 
HETATM   20  O   UNL     1      -5.712   3.986 -32.922  1.00  0.00    -0.265 OA
BRANCH  19  21
HETATM   21  O   UNL     1      -3.620   3.082 -32.747  1.00  0.00    -0.316 OA
BRANCH  21  22
HETATM   22  C   UNL     1      -3.026   4.396 -32.730  1.00  0.00     0.123 C 
HETATM   23  C   UNL     1      -2.171   4.599 -33.977  1.00  0.00     0.040 C 
HETATM   24  C   UNL     1      -2.167   4.479 -31.475  1.00  0.00     0.040 C 
ENDBRANCH  21  22
ENDBRANCH  19  21
ENDBRANCH   1  19
BRANCH   2  25
HETATM   25  O   UNL     1      -6.259   0.253 -30.473  1.00  0.00    -0.389 OA
HETATM   26  H   UNL     1      -5.510   0.078 -29.875  1.00  0.00     0.210 HD
ENDBRANCH   2  25
BRANCH   7  27
HETATM   27  O   UNL     1      -8.982   0.472 -35.331  1.00  0.00    -0.343 OA
HETATM   28  H   UNL     1      -8.150   0.022 -35.536  1.00  0.00     0.219 HD
ENDBRANCH   7  27
TORSDOF 6
ENDMDL
MODEL 6
REMARK VINA RESULT:      -7.1      3.267      5.773
REMARK  6 active torsions:
REMARK  status: ('A' for Active; 'I' for Inactive)
REMARK    1  A    between atoms: C_2  and  O_3 
REMARK    2  A    between atoms: O_3  and  C_4 
REMARK    3  A    between atoms: C_4  and  C_5 
REMARK    4  A    between atoms: C_6  and  O_7 
REMARK    5  A    between atoms: C_12  and  O_13 
REMARK    6  A    between atoms: C_17  and  C_18 
ROOT
HETATM    1  C   UNL     1      -6.057   1.664 -31.690  1.00  0.00     0.133 C 
HETATM    2  C   UNL     1      -7.583   1.960 -31.868  1.00  0.00     0.073 C 
HETATM    3  C   UNL     1      -8.394   0.708 -32.236  1.00  0.00     0.047 C 
HETATM    4  C   UNL     1      -8.245   2.676 -30.655  1.00  0.00     0.097 C 
HETATM    5  C   UNL     1      -7.321   3.699 -30.105  1.00  0.00     0.042 A 
HETATM    6  C   UNL     1      -5.961   3.796 -30.312  1.00  0.00     0.030 A 
HETATM    7  C   UNL     1      -5.603   4.927 -29.562  1.00  0.00     0.190 A 
HETATM    8  N   UNL     1      -6.623   5.494 -28.928  1.00  0.00    -0.149 NA
HETATM    9  N   UNL     1      -7.672   4.736 -29.290  1.00  0.00    -0.279 N 
HETATM   10  H   UNL     1      -8.591   4.988 -28.939  1.00  0.00     0.189 HD
HETATM   11  C   UNL     1      -5.185   2.827 -31.133  1.00  0.00     0.074 C 
ENDROOT
BRANCH  11  12
HETATM   12  C   UNL     1      -4.463   3.606 -32.227  1.00  0.00    -0.048 A 
HETATM   13  C   UNL     1      -3.061   3.493 -32.317  1.00  0.00     0.011 A 
HETATM   14  C   UNL     1      -2.351   4.160 -33.316  1.00  0.00     0.043 A 
HETATM   15  C   UNL     1      -3.036   4.937 -34.240  1.00  0.00     0.116 A 
HETATM   16  F   UNL     1      -2.354   5.572 -35.201  1.00  0.00    -0.206 F 
HETATM   17  C   UNL     1      -4.417   5.058 -34.183  1.00  0.00     0.043 A 
HETATM   18  C   UNL     1      -5.129   4.393 -33.183  1.00  0.00     0.011 A 
ENDBRANCH  11  12
BRANCH   1  19
HETATM   19  C   UNL     1      -5.745   0.447 -30.844  1.00  0.00     0.267 C 
HETATM   20  O   UNL     1      -5.954   0.415 -29.638  1.00  0.00    -0.265 OA
BRANCH  19  21
HETATM   21  O   UNL     1      -5.292  -0.601 -31.576  1.00  0.00    -0.316 OA
BRANCH  21  22
HETATM   22  C   UNL     1      -4.811  -0.299 -32.902  1.00  0.00     0.123 C 
HETATM   23  C   UNL     1      -5.329  -1.335 -33.894  1.00  0.00     0.040 C 
HETATM   24  C   UNL     1      -3.289  -0.333 -32.840  1.00  0.00     0.040 C 
ENDBRANCH  21  22
ENDBRANCH  19  21
ENDBRANCH   1  19
BRANCH   2  25
HETATM   25  O   UNL     1      -7.742   2.846 -33.002  1.00  0.00    -0.389 OA
HETATM   26  H   UNL     1      -8.506   3.428 -32.841  1.00  0.00     0.210 HD
ENDBRANCH   2  25
BRANCH   7  27
HETATM   27  O   UNL     1      -4.411   5.508 -29.413  1.00  0.00    -0.343 OA
HETATM   28  H   UNL     1      -4.041   5.269 -28.550  1.00  0.00     0.219 HD
ENDBRANCH   7  27
TORSDOF 6
ENDMDL
MODEL 7
REMARK VINA RESULT:      -7.0      3.551      5.629
REMARK  6 active torsions:
REMARK  status: ('A' for Active; 'I' for Inactive)
REMARK    1  A    between atoms: C_2  and  O_3 
REMARK    2  A    between atoms: O_3  and  C_4 
REMARK    3  A    between atoms: C_4  and  C_5 
REMARK    4  A    between atoms: C_6  and  O_7 
REMARK    5  A    between atoms: C_12  and  O_13 
REMARK    6  A    between atoms: C_17  and  C_18 
ROOT
HETATM    1  C   UNL     1      -6.841   1.365 -31.814  1.00  0.00     0.133 C 
HETATM    2  C   UNL     1      -6.258   1.814 -30.434  1.00  0.00     0.073 C 
HETATM    3  C   UNL     1      -5.641   0.651 -29.641  1.00  0.00     0.047 C 
HETATM    4  C   UNL     1      -5.243   2.990 -30.517  1.00  0.00     0.097 C 
HETATM    5  C   UNL     1      -5.699   3.984 -31.520  1.00  0.00     0.042 A 
HETATM    6  C   UNL     1      -6.627   3.795 -32.522  1.00  0.00     0.030 A 
HETATM    7  C   UNL     1      -6.666   5.044 -33.162  1.00  0.00     0.190 A 
HETATM    8  N   UNL     1      -5.841   5.940 -32.635  1.00  0.00    -0.149 NA
HETATM    9  N   UNL     1      -5.271   5.276 -31.615  1.00  0.00    -0.279 N 
HETATM   10  H   UNL     1      -4.600   5.769 -31.035  1.00  0.00     0.189 HD
HETATM   11  C   UNL     1      -7.316   2.498 -32.770  1.00  0.00     0.074 C 
ENDROOT
BRANCH  11  12
HETATM   12  C   UNL     1      -8.819   2.741 -32.703  1.00  0.00    -0.048 A 
HETATM   13  C   UNL     1      -9.319   3.567 -31.676  1.00  0.00     0.011 A 
HETATM   14  C   UNL     1     -10.683   3.849 -31.584  1.00  0.00     0.043 A 
HETATM   15  C   UNL     1     -11.557   3.316 -32.521  1.00  0.00     0.116 A 
HETATM   16  F   UNL     1     -12.865   3.592 -32.434  1.00  0.00    -0.206 F 
HETATM   17  C   UNL     1     -11.092   2.509 -33.549  1.00  0.00     0.043 A 
HETATM   18  C   UNL     1      -9.728   2.224 -33.643  1.00  0.00     0.011 A 
ENDBRANCH  11  12
BRANCH   1  19
HETATM   19  C   UNL     1      -5.924   0.472 -32.626  1.00  0.00     0.267 C 
HETATM   20  O   UNL     1      -4.770   0.784 -32.891  1.00  0.00    -0.265 OA
BRANCH  19  21
HETATM   21  O   UNL     1      -6.495  -0.715 -32.948  1.00  0.00    -0.316 OA
BRANCH  21  22
HETATM   22  C   UNL     1      -6.419  -1.109 -34.333  1.00  0.00     0.123 C 
HETATM   23  C   UNL     1      -7.356  -0.248 -35.174  1.00  0.00     0.040 C 
HETATM   24  C   UNL     1      -6.836  -2.573 -34.402  1.00  0.00     0.040 C 
ENDBRANCH  21  22
ENDBRANCH  19  21
ENDBRANCH   1  19
BRANCH   2  25
HETATM   25  O   UNL     1      -7.355   2.277 -29.610  1.00  0.00    -0.389 OA
HETATM   26  H   UNL     1      -8.051   2.637 -30.189  1.00  0.00     0.210 HD
ENDBRANCH   2  25
BRANCH   7  27
HETATM   27  O   UNL     1      -7.410   5.450 -34.192  1.00  0.00    -0.343 OA
HETATM   28  H   UNL     1      -8.333   5.196 -34.044  1.00  0.00     0.219 HD
ENDBRANCH   7  27
TORSDOF 6
ENDMDL
MODEL 8
REMARK VINA RESULT:      -7.0      2.940      5.390
REMARK  6 active torsions:
REMARK  status: ('A' for Active; 'I' for Inactive)
REMARK    1  A    between atoms: C_2  and  O_3 
REMARK    2  A    between atoms: O_3  and  C_4 
REMARK    3  A    between atoms: C_4  and  C_5 
REMARK    4  A    between atoms: C_6  and  O_7 
REMARK    5  A    between atoms: C_12  and  O_13 
REMARK    6  A    between atoms: C_17  and  C_18 
ROOT
HETATM    1  C   UNL     1      -8.439   1.837 -33.355  1.00  0.00     0.133 C 
HETATM    2  C   UNL     1      -7.691   3.210 -33.366  1.00  0.00     0.073 C 
HETATM    3  C   UNL     1      -8.422   4.280 -34.192  1.00  0.00     0.047 C 
HETATM    4  C   UNL     1      -7.359   3.774 -31.954  1.00  0.00     0.097 C 
HETATM    5  C   UNL     1      -6.932   2.672 -31.056  1.00  0.00     0.042 A 
HETATM    6  C   UNL     1      -7.138   1.321 -31.234  1.00  0.00     0.030 A 
HETATM    7  C   UNL     1      -6.540   0.752 -30.098  1.00  0.00     0.190 A 
HETATM    8  N   UNL     1      -6.013   1.645 -29.269  1.00  0.00    -0.149 NA
HETATM    9  N   UNL     1      -6.248   2.817 -29.884  1.00  0.00    -0.279 N 
HETATM   10  H   UNL     1      -5.913   3.667 -29.443  1.00  0.00     0.189 HD
HETATM   11  C   UNL     1      -7.878   0.748 -32.394  1.00  0.00     0.074 C 
ENDROOT
BRANCH  11  12
HETATM   12  C   UNL     1      -6.961  -0.248 -33.093  1.00  0.00    -0.048 A 
HETATM   13  C   UNL     1      -7.548  -1.288 -33.842  1.00  0.00     0.011 A 
HETATM   14  C   UNL     1      -6.759  -2.212 -34.528  1.00  0.00     0.043 A 
HETATM   15  C   UNL     1      -5.376  -2.099 -34.480  1.00  0.00     0.116 A 
HETATM   16  F   UNL     1      -4.620  -2.983 -35.143  1.00  0.00    -0.206 F 
HETATM   17  C   UNL     1      -4.770  -1.080 -33.760  1.00  0.00     0.043 A 
HETATM   18  C   UNL     1      -5.558  -0.155 -33.071  1.00  0.00     0.011 A 
ENDBRANCH  11  12
BRANCH   1  19
HETATM   19  C   UNL     1      -9.925   1.930 -33.080  1.00  0.00     0.267 C 
HETATM   20  O   UNL     1     -10.379   2.556 -32.130  1.00  0.00    -0.265 OA
BRANCH  19  21
HETATM   21  O   UNL     1     -10.676   1.319 -34.030  1.00  0.00    -0.316 OA
BRANCH  21  22
HETATM   22  C   UNL     1     -12.088   1.615 -34.022  1.00  0.00     0.123 C 
HETATM   23  C   UNL     1     -12.883   0.356 -33.689  1.00  0.00     0.040 C 
HETATM   24  C   UNL     1     -12.443   2.118 -35.415  1.00  0.00     0.040 C 
ENDBRANCH  21  22
ENDBRANCH  19  21
ENDBRANCH   1  19
BRANCH   2  25
HETATM   25  O   UNL     1      -6.423   3.029 -34.041  1.00  0.00    -0.389 OA
HETATM   26  H   UNL     1      -5.997   3.898 -34.147  1.00  0.00     0.210 HD
ENDBRANCH   2  25
BRANCH   7  27
HETATM   27  O   UNL     1      -6.416  -0.530 -29.752  1.00  0.00    -0.343 OA
HETATM   28  H   UNL     1      -6.805  -1.089 -30.440  1.00  0.00     0.219 HD
ENDBRANCH   7  27
TORSDOF 6
ENDMDL
MODEL 9
REMARK VINA RESULT:      -6.9      3.035      5.532
REMARK  6 active torsions:
REMARK  status: ('A' for Active; 'I' for Inactive)
REMARK    1  A    between atoms: C_2  and  O_3 
REMARK    2  A    between atoms: O_3  and  C_4 
REMARK    3  A    between atoms: C_4  and  C_5 
REMARK    4  A    between atoms: C_6  and  O_7 
REMARK    5  A    between atoms: C_12  and  O_13 
REMARK    6  A    between atoms: C_17  and  C_18 
ROOT
HETATM    1  C   UNL     1      -6.438   1.054 -33.126  1.00  0.00     0.133 C 
HETATM    2  C   UNL     1      -7.347   0.730 -34.358  1.00  0.00     0.073 C 
HETATM    3  C   UNL     1      -7.428  -0.774 -34.659  1.00  0.00     0.047 C 
HETATM    4  C   UNL     1      -8.782   1.326 -34.272  1.00  0.00     0.097 C 
HETATM    5  C   UNL     1      -8.730   2.691 -33.690  1.00  0.00     0.042 A 
HETATM    6  C   UNL     1      -7.700   3.254 -32.968  1.00  0.00     0.030 A 
HETATM    7  C   UNL     1      -8.181   4.538 -32.669  1.00  0.00     0.190 A 
HETATM    8  N   UNL     1      -9.400   4.775 -33.140  1.00  0.00    -0.149 NA
HETATM    9  N   UNL     1      -9.712   3.635 -33.781  1.00  0.00    -0.279 N 
HETATM   10  H   UNL     1     -10.609   3.578 -34.252  1.00  0.00     0.189 HD
HETATM   11  C   UNL     1      -6.444   2.529 -32.627  1.00  0.00     0.074 C 
ENDROOT
BRANCH  11  12
HETATM   12  C   UNL     1      -5.270   3.342 -33.160  1.00  0.00    -0.048 A 
HETATM   13  C   UNL     1      -5.484   4.176 -34.276  1.00  0.00     0.011 A 
HETATM   14  C   UNL     1      -4.454   4.966 -34.789  1.00  0.00     0.043 A 
HETATM   15  C   UNL     1      -3.204   4.936 -34.185  1.00  0.00     0.116 A 
HETATM   16  F   UNL     1      -2.218   5.698 -34.675  1.00  0.00    -0.206 F 
HETATM   17  C   UNL     1      -2.967   4.134 -33.078  1.00  0.00     0.043 A 
HETATM   18  C   UNL     1      -3.996   3.341 -32.565  1.00  0.00     0.011 A 
ENDBRANCH  11  12
BRANCH   1  19
HETATM   19  C   UNL     1      -6.690   0.186 -31.911  1.00  0.00     0.267 C 
HETATM   20  O   UNL     1      -7.723   0.255 -31.258  1.00  0.00    -0.265 OA
BRANCH  19  21
HETATM   21  O   UNL     1      -5.694  -0.705 -31.685  1.00  0.00    -0.316 OA
BRANCH  21  22
HETATM   22  C   UNL     1      -4.444  -0.459 -32.363  1.00  0.00     0.123 C 
HETATM   23  C   UNL     1      -4.050  -1.678 -33.191  1.00  0.00     0.040 C 
HETATM   24  C   UNL     1      -3.402  -0.185 -31.286  1.00  0.00     0.040 C 
ENDBRANCH  21  22
ENDBRANCH  19  21
ENDBRANCH   1  19
BRANCH   2  25
HETATM   25  O   UNL     1      -6.734   1.307 -35.535  1.00  0.00    -0.389 OA
HETATM   26  H   UNL     1      -7.296   2.036 -35.856  1.00  0.00     0.210 HD
ENDBRANCH   2  25
BRANCH   7  27
HETATM   27  O   UNL     1      -7.594   5.536 -32.007  1.00  0.00    -0.343 OA
HETATM   28  H   UNL     1      -7.140   6.117 -32.636  1.00  0.00     0.219 HD
ENDBRANCH   7  27
TORSDOF 6
ENDMDL
MODEL 10
REMARK VINA RESULT:      -6.8      3.295      6.110
REMARK  6 active torsions:
REMARK  status: ('A' for Active; 'I' for Inactive)
REMARK    1  A    between atoms: C_2  and  O_3 
REMARK    2  A    between atoms: O_3  and  C_4 
REMARK    3  A    between atoms: C_4  and  C_5 
REMARK    4  A    between atoms: C_6  and  O_7 
REMARK    5  A    between atoms: C_12  and  O_13 
REMARK    6  A    between atoms: C_17  and  C_18 
ROOT
HETATM    1  C   UNL     1      -7.247   2.162 -33.027  1.00  0.00     0.133 C 
HETATM    2  C   UNL     1      -8.506   3.053 -33.287  1.00  0.00     0.073 C 
HETATM    3  C   UNL     1      -9.505   2.404 -34.259  1.00  0.00     0.047 C 
HETATM    4  C   UNL     1      -9.249   3.507 -31.997  1.00  0.00     0.097 C 
HETATM    5  C   UNL     1      -8.265   3.853 -30.941  1.00  0.00     0.042 A 
HETATM    6  C   UNL     1      -6.935   3.495 -30.887  1.00  0.00     0.030 A 
HETATM    7  C   UNL     1      -6.494   4.080 -29.690  1.00  0.00     0.190 A 
HETATM    8  N   UNL     1      -7.443   4.737 -29.035  1.00  0.00    -0.149 NA
HETATM    9  N   UNL     1      -8.519   4.603 -29.829  1.00  0.00    -0.279 N 
HETATM   10  H   UNL     1      -9.386   5.047 -29.544  1.00  0.00     0.189 HD
HETATM   11  C   UNL     1      -6.271   2.645 -31.915  1.00  0.00     0.074 C 
ENDROOT
BRANCH  11  12
HETATM   12  C   UNL     1      -5.077   3.416 -32.465  1.00  0.00    -0.048 A 
HETATM   13  C   UNL     1      -3.792   2.857 -32.314  1.00  0.00     0.011 A 
HETATM   14  C   UNL     1      -2.665   3.504 -32.823  1.00  0.00     0.043 A 
HETATM   15  C   UNL     1      -2.813   4.709 -33.496  1.00  0.00     0.116 A 
HETATM   16  F   UNL     1      -1.731   5.325 -33.989  1.00  0.00    -0.206 F 
HETATM   17  C   UNL     1      -4.066   5.278 -33.670  1.00  0.00     0.043 A 
HETATM   18  C   UNL     1      -5.195   4.633 -33.159  1.00  0.00     0.011 A 
ENDBRANCH  11  12
BRANCH   1  19
HETATM   19  C   UNL     1      -7.552   0.708 -32.731  1.00  0.00     0.267 C 
HETATM   20  O   UNL     1      -8.082   0.348 -31.687  1.00  0.00    -0.265 OA
BRANCH  19  21
HETATM   21  O   UNL     1      -7.248  -0.115 -33.764  1.00  0.00    -0.316 OA
BRANCH  21  22
HETATM   22  C   UNL     1      -6.382  -1.229 -33.465  1.00  0.00     0.123 C 
HETATM   23  C   UNL     1      -4.929  -0.768 -33.432  1.00  0.00     0.040 C 
HETATM   24  C   UNL     1      -6.590  -2.261 -34.567  1.00  0.00     0.040 C 
ENDBRANCH  21  22
ENDBRANCH  19  21
ENDBRANCH   1  19
BRANCH   2  25
HETATM   25  O   UNL     1      -8.074   4.260 -33.957  1.00  0.00    -0.389 OA
HETATM   26  H   UNL     1      -8.462   5.028 -33.501  1.00  0.00     0.210 HD
ENDBRANCH   2  25
BRANCH   7  27
HETATM   27  O   UNL     1      -5.279   4.080 -29.139  1.00  0.00    -0.343 OA
HETATM   28  H   UNL     1      -4.649   3.668 -29.748  1.00  0.00     0.219 HD
ENDBRANCH   7  27
TORSDOF 6
ENDMDL
