MODEL 1
REMARK VINA RESULT:      -9.5      0.000      0.000
REMARK  2 active torsions:
REMARK  status: ('A' for Active; 'I' for Inactive)
REMARK       I    between atoms: N_4  and  C_5 
REMARK       I    between atoms: C_5  and  N_6 
REMARK    1  A    between atoms: N_6  and  C_7 
REMARK    2  A    between atoms: C_20  and  C_21 
ROOT
HETATM    1  C   UNL     1      -8.899   5.433 -32.153  1.00  0.00     0.011 C 
HETATM    2  C   UNL     1     -10.139   4.681 -31.669  1.00  0.00     0.002 C 
HETATM    3  C   UNL     1      -9.845   3.195 -31.478  1.00  0.00     0.132 C 
HETATM    4  N   UNL     1     -10.154   2.601 -32.767  1.00  0.00    -0.325 N 
HETATM    5  C   UNL     1      -9.420   1.645 -33.445  1.00  0.00     0.323 C 
HETATM    6  N   UNL     1      -8.535   0.953 -32.649  1.00  0.00    -0.309 N 
HETATM    7  O   UNL     1      -9.567   1.458 -34.651  1.00  0.00    -0.247 OA
HETATM    8  C   UNL     1     -11.191   3.365 -33.452  1.00  0.00     0.125 C 
HETATM    9  C   UNL     1     -11.264   4.716 -32.713  1.00  0.00     0.036 C 
HETATM   10  H   UNL     1      -8.784   0.917 -31.673  1.00  0.00     0.170 HD
ENDROOT
BRANCH   6  11
HETATM   11  C   UNL     1      -7.503   0.092 -33.073  1.00  0.00     0.038 A 
HETATM   12  C   UNL     1      -7.730  -1.187 -33.588  1.00  0.00     0.062 A 
HETATM   13  C   UNL     1      -6.656  -1.973 -34.014  1.00  0.00     0.070 A 
HETATM   14  C   UNL     1      -5.351  -1.489 -33.937  1.00  0.00     0.096 A 
HETATM   15  N   UNL     1      -6.904  -3.234 -34.556  1.00  0.00    -0.323 N 
HETATM   16  O   UNL     1      -4.254  -2.185 -34.365  1.00  0.00    -0.335 OA
HETATM   17  C   UNL     1      -5.119  -0.208 -33.444  1.00  0.00     0.041 A 
HETATM   18  C   UNL     1      -4.473  -3.572 -34.612  1.00  0.00     0.217 C 
HETATM   19  C   UNL     1      -5.889  -4.057 -34.956  1.00  0.00     0.251 C 
HETATM   20  C   UNL     1      -3.963  -4.354 -33.403  1.00  0.00     0.050 C 
HETATM   21  O   UNL     1      -6.117  -5.142 -35.487  1.00  0.00    -0.270 OA
HETATM   22  C   UNL     1      -6.191   0.580 -33.013  1.00  0.00     0.032 A 
HETATM   23  H   UNL     1      -7.851  -3.562 -34.699  1.00  0.00     0.169 HD
ENDBRANCH   6  11
BRANCH   8  24
HETATM   24  C   UNL     1     -12.496   2.591 -33.500  1.00  0.00     0.003 A 
HETATM   25  C   UNL     1     -12.866   1.791 -34.589  1.00  0.00     0.124 A 
HETATM   26  F   UNL     1     -12.061   1.678 -35.656  1.00  0.00    -0.205 F 
HETATM   27  C   UNL     1     -14.076   1.100 -34.614  1.00  0.00     0.043 A 
HETATM   28  C   UNL     1     -14.962   1.216 -33.547  1.00  0.00     0.003 A 
HETATM   29  C   UNL     1     -14.633   2.030 -32.464  1.00  0.00     0.001 A 
HETATM   30  C   UNL     1     -13.413   2.712 -32.442  1.00  0.00     0.012 A 
ENDBRANCH   8  24
TORSDOF 2
ENDMDL
MODEL 2
REMARK VINA RESULT:      -8.9      1.612      2.169
REMARK  2 active torsions:
REMARK  status: ('A' for Active; 'I' for Inactive)
REMARK       I    between atoms: N_4  and  C_5 
REMARK       I    between atoms: C_5  and  N_6 
REMARK    1  A    between atoms: N_6  and  C_7 
REMARK    2  A    between atoms: C_20  and  C_21 
ROOT
HETATM    1  C   UNL     1      -7.432   4.715 -29.920  1.00  0.00     0.011 C 
HETATM    2  C   UNL     1      -8.884   4.363 -30.242  1.00  0.00     0.002 C 
HETATM    3  C   UNL     1      -9.011   2.917 -30.715  1.00  0.00     0.132 C 
HETATM    4  N   UNL     1      -8.853   2.997 -32.156  1.00  0.00    -0.325 N 
HETATM    5  C   UNL     1      -8.112   2.154 -32.964  1.00  0.00     0.323 C 
HETATM    6  N   UNL     1      -7.816   0.941 -32.382  1.00  0.00    -0.309 N 
HETATM    7  O   UNL     1      -7.762   2.490 -34.094  1.00  0.00    -0.247 OA
HETATM    8  C   UNL     1      -9.316   4.288 -32.656  1.00  0.00     0.125 C 
HETATM    9  C   UNL     1      -9.419   5.196 -31.415  1.00  0.00     0.036 C 
HETATM   10  H   UNL     1      -8.461   0.649 -31.666  1.00  0.00     0.170 HD
ENDROOT
BRANCH   6  11
HETATM   11  C   UNL     1      -6.902  -0.025 -32.848  1.00  0.00     0.038 A 
HETATM   12  C   UNL     1      -7.289  -1.207 -33.486  1.00  0.00     0.062 A 
HETATM   13  C   UNL     1      -6.323  -2.106 -33.945  1.00  0.00     0.070 A 
HETATM   14  C   UNL     1      -4.966  -1.832 -33.779  1.00  0.00     0.096 A 
HETATM   15  N   UNL     1      -6.727  -3.264 -34.608  1.00  0.00    -0.323 N 
HETATM   16  O   UNL     1      -3.964  -2.645 -34.231  1.00  0.00    -0.335 OA
HETATM   17  C   UNL     1      -4.573  -0.647 -33.163  1.00  0.00     0.041 A 
HETATM   18  C   UNL     1      -4.371  -3.957 -34.611  1.00  0.00     0.217 C 
HETATM   19  C   UNL     1      -5.825  -4.193 -35.047  1.00  0.00     0.251 C 
HETATM   20  C   UNL     1      -4.040  -4.908 -33.462  1.00  0.00     0.050 C 
HETATM   21  O   UNL     1      -6.185  -5.182 -35.682  1.00  0.00    -0.270 OA
HETATM   22  C   UNL     1      -5.537   0.253 -32.699  1.00  0.00     0.032 A 
HETATM   23  H   UNL     1      -7.703  -3.433 -34.813  1.00  0.00     0.169 HD
ENDBRANCH   6  11
BRANCH   8  24
HETATM   24  C   UNL     1     -10.602   4.136 -33.448  1.00  0.00     0.003 A 
HETATM   25  C   UNL     1     -11.832   3.840 -32.848  1.00  0.00     0.124 A 
HETATM   26  F   UNL     1     -11.922   3.676 -31.520  1.00  0.00    -0.205 F 
HETATM   27  C   UNL     1     -12.998   3.694 -33.599  1.00  0.00     0.043 A 
HETATM   28  C   UNL     1     -12.949   3.817 -34.984  1.00  0.00     0.003 A 
HETATM   29  C   UNL     1     -11.731   4.079 -35.610  1.00  0.00     0.001 A 
HETATM   30  C   UNL     1     -10.569   4.235 -34.849  1.00  0.00     0.012 A 
ENDBRANCH   8  24
TORSDOF 2
ENDMDL
MODEL 3
REMARK VINA RESULT:      -8.8      3.036      8.481
REMARK  2 active torsions:
REMARK  status: ('A' for Active; 'I' for Inactive)
REMARK       I    between atoms: N_4  and  C_5 
REMARK       I    between atoms: C_5  and  N_6 
REMARK    1  A    between atoms: N_6  and  C_7 
REMARK    2  A    between atoms: C_20  and  C_21 
ROOT
HETATM    1  C   UNL     1      -4.543   2.974 -30.847  1.00  0.00     0.011 C 
HETATM    2  C   UNL     1      -4.138   2.127 -32.054  1.00  0.00     0.002 C 
HETATM    3  C   UNL     1      -5.253   2.082 -33.097  1.00  0.00     0.132 C 
HETATM    4  N   UNL     1      -6.047   0.925 -32.721  1.00  0.00    -0.325 N 
HETATM    5  C   UNL     1      -7.426   0.834 -32.689  1.00  0.00     0.323 C 
HETATM    6  N   UNL     1      -8.068   1.803 -33.427  1.00  0.00    -0.309 N 
HETATM    7  O   UNL     1      -7.997  -0.045 -32.047  1.00  0.00    -0.247 OA
HETATM    8  C   UNL     1      -5.220  -0.075 -32.056  1.00  0.00     0.125 C 
HETATM    9  C   UNL     1      -3.922   0.658 -31.664  1.00  0.00     0.036 C 
HETATM   10  H   UNL     1      -7.524   2.187 -34.184  1.00  0.00     0.170 HD
ENDROOT
BRANCH   6  11
HETATM   11  C   UNL     1      -9.443   2.114 -33.411  1.00  0.00     0.038 A 
HETATM   12  C   UNL     1     -10.072   2.770 -32.350  1.00  0.00     0.062 A 
HETATM   13  C   UNL     1     -11.435   3.069 -32.419  1.00  0.00     0.070 A 
HETATM   14  C   UNL     1     -12.179   2.722 -33.545  1.00  0.00     0.096 A 
HETATM   15  N   UNL     1     -12.039   3.753 -31.364  1.00  0.00    -0.323 N 
HETATM   16  O   UNL     1     -13.507   3.010 -33.699  1.00  0.00    -0.335 OA
HETATM   17  C   UNL     1     -11.555   2.086 -34.615  1.00  0.00     0.041 A 
HETATM   18  C   UNL     1     -14.183   3.411 -32.510  1.00  0.00     0.217 C 
HETATM   19  C   UNL     1     -13.376   4.039 -31.365  1.00  0.00     0.251 C 
HETATM   20  C   UNL     1     -14.949   2.205 -31.971  1.00  0.00     0.050 C 
HETATM   21  O   UNL     1     -13.889   4.694 -30.460  1.00  0.00    -0.270 OA
HETATM   22  C   UNL     1     -10.191   1.783 -34.548  1.00  0.00     0.032 A 
HETATM   23  H   UNL     1     -11.494   4.087 -30.580  1.00  0.00     0.169 HD
ENDBRANCH   6  11
BRANCH   8  24
HETATM   24  C   UNL     1      -5.025  -1.295 -32.938  1.00  0.00     0.003 A 
HETATM   25  C   UNL     1      -4.068  -2.282 -32.669  1.00  0.00     0.124 A 
HETATM   26  F   UNL     1      -3.270  -2.183 -31.596  1.00  0.00    -0.205 F 
HETATM   27  C   UNL     1      -3.900  -3.388 -33.502  1.00  0.00     0.043 A 
HETATM   28  C   UNL     1      -4.679  -3.515 -34.649  1.00  0.00     0.003 A 
HETATM   29  C   UNL     1      -5.617  -2.531 -34.957  1.00  0.00     0.001 A 
HETATM   30  C   UNL     1      -5.787  -1.431 -34.111  1.00  0.00     0.012 A 
ENDBRANCH   8  24
TORSDOF 2
ENDMDL
MODEL 4
REMARK VINA RESULT:      -8.8      4.343      6.803
REMARK  2 active torsions:
REMARK  status: ('A' for Active; 'I' for Inactive)
REMARK       I    between atoms: N_4  and  C_5 
REMARK       I    between atoms: C_5  and  N_6 
REMARK    1  A    between atoms: N_6  and  C_7 
REMARK    2  A    between atoms: C_20  and  C_21 
ROOT
HETATM    1  C   UNL     1      -7.833   4.849 -30.618  1.00  0.00     0.011 C 
HETATM    2  C   UNL     1      -6.975   5.514 -31.694  1.00  0.00     0.002 C 
HETATM    3  C   UNL     1      -6.747   4.576 -32.878  1.00  0.00     0.132 C 
HETATM    4  N   UNL     1      -5.529   3.863 -32.538  1.00  0.00    -0.325 N 
HETATM    5  C   UNL     1      -5.281   2.511 -32.694  1.00  0.00     0.323 C 
HETATM    6  N   UNL     1      -6.130   1.886 -33.580  1.00  0.00    -0.309 N 
HETATM    7  O   UNL     1      -4.379   1.948 -32.078  1.00  0.00    -0.247 OA
HETATM    8  C   UNL     1      -4.666   4.683 -31.695  1.00  0.00     0.125 C 
HETATM    9  C   UNL     1      -5.563   5.825 -31.177  1.00  0.00     0.036 C 
HETATM   10  H   UNL     1      -6.532   2.492 -34.278  1.00  0.00     0.170 HD
ENDROOT
BRANCH   6  11
HETATM   11  C   UNL     1      -6.282   0.499 -33.780  1.00  0.00     0.038 A 
HETATM   12  C   UNL     1      -5.208  -0.394 -33.819  1.00  0.00     0.062 A 
HETATM   13  C   UNL     1      -5.439  -1.762 -33.994  1.00  0.00     0.070 A 
HETATM   14  C   UNL     1      -6.738  -2.249 -34.124  1.00  0.00     0.096 A 
HETATM   15  N   UNL     1      -4.357  -2.642 -33.998  1.00  0.00    -0.323 N 
HETATM   16  O   UNL     1      -7.045  -3.574 -34.265  1.00  0.00    -0.335 OA
HETATM   17  C   UNL     1      -7.814  -1.366 -34.066  1.00  0.00     0.041 A 
HETATM   18  C   UNL     1      -5.945  -4.421 -34.588  1.00  0.00     0.217 C 
HETATM   19  C   UNL     1      -4.524  -3.984 -34.200  1.00  0.00     0.251 C 
HETATM   20  C   UNL     1      -5.984  -4.695 -36.090  1.00  0.00     0.050 C 
HETATM   21  O   UNL     1      -3.573  -4.762 -34.143  1.00  0.00    -0.270 OA
HETATM   22  C   UNL     1      -7.586   0.003 -33.894  1.00  0.00     0.032 A 
HETATM   23  H   UNL     1      -3.418  -2.314 -33.818  1.00  0.00     0.169 HD
ENDBRANCH   6  11
BRANCH   8  24
HETATM   24  C   UNL     1      -3.431   5.134 -32.454  1.00  0.00     0.003 A 
HETATM   25  C   UNL     1      -2.133   4.769 -32.078  1.00  0.00     0.124 A 
HETATM   26  F   UNL     1      -1.928   3.989 -31.006  1.00  0.00    -0.205 F 
HETATM   27  C   UNL     1      -1.013   5.206 -32.785  1.00  0.00     0.043 A 
HETATM   28  C   UNL     1      -1.173   6.049 -33.881  1.00  0.00     0.003 A 
HETATM   29  C   UNL     1      -2.452   6.453 -34.259  1.00  0.00     0.001 A 
HETATM   30  C   UNL     1      -3.570   6.001 -33.551  1.00  0.00     0.012 A 
ENDBRANCH   8  24
TORSDOF 2
ENDMDL
MODEL 5
REMARK VINA RESULT:      -8.8      4.978      8.412
REMARK  2 active torsions:
REMARK  status: ('A' for Active; 'I' for Inactive)
REMARK       I    between atoms: N_4  and  C_5 
REMARK       I    between atoms: C_5  and  N_6 
REMARK    1  A    between atoms: N_6  and  C_7 
REMARK    2  A    between atoms: C_20  and  C_21 
ROOT
HETATM    1  C   UNL     1      -9.925   1.807 -32.294  1.00  0.00     0.011 C 
HETATM    2  C   UNL     1      -9.022   0.632 -31.920  1.00  0.00     0.002 C 
HETATM    3  C   UNL     1      -7.698   1.116 -31.334  1.00  0.00     0.132 C 
HETATM    4  N   UNL     1      -6.823   1.246 -32.486  1.00  0.00    -0.325 N 
HETATM    5  C   UNL     1      -5.943   2.278 -32.755  1.00  0.00     0.323 C 
HETATM    6  N   UNL     1      -5.621   3.039 -31.653  1.00  0.00    -0.309 N 
HETATM    7  O   UNL     1      -5.509   2.473 -33.888  1.00  0.00    -0.247 OA
HETATM    8  C   UNL     1      -7.201   0.300 -33.530  1.00  0.00     0.125 C 
HETATM    9  C   UNL     1      -8.616  -0.184 -33.156  1.00  0.00     0.036 C 
HETATM   10  H   UNL     1      -5.713   2.562 -30.770  1.00  0.00     0.170 HD
ENDROOT
BRANCH   6  11
HETATM   11  C   UNL     1      -4.945   4.275 -31.641  1.00  0.00     0.038 A 
HETATM   12  C   UNL     1      -3.560   4.394 -31.493  1.00  0.00     0.062 A 
HETATM   13  C   UNL     1      -2.957   5.654 -31.519  1.00  0.00     0.070 A 
HETATM   14  C   UNL     1      -3.726   6.803 -31.698  1.00  0.00     0.096 A 
HETATM   15  N   UNL     1      -1.570   5.751 -31.403  1.00  0.00    -0.323 N 
HETATM   16  O   UNL     1      -3.205   8.066 -31.766  1.00  0.00    -0.335 OA
HETATM   17  C   UNL     1      -5.103   6.691 -31.865  1.00  0.00     0.041 A 
HETATM   18  C   UNL     1      -1.853   8.189 -31.332  1.00  0.00     0.217 C 
HETATM   19  C   UNL     1      -0.933   6.960 -31.387  1.00  0.00     0.251 C 
HETATM   20  C   UNL     1      -1.862   8.736 -29.906  1.00  0.00     0.050 C 
HETATM   21  O   UNL     1       0.293   7.035 -31.344  1.00  0.00    -0.270 OA
HETATM   22  C   UNL     1      -5.711   5.431 -31.837  1.00  0.00     0.032 A 
HETATM   23  H   UNL     1      -0.992   4.921 -31.361  1.00  0.00     0.169 HD
ENDBRANCH   6  11
BRANCH   8  24
HETATM   24  C   UNL     1      -6.164  -0.800 -33.670  1.00  0.00     0.003 A 
HETATM   25  C   UNL     1      -6.270  -1.828 -34.615  1.00  0.00     0.124 A 
HETATM   26  F   UNL     1      -7.317  -1.879 -35.452  1.00  0.00    -0.205 F 
HETATM   27  C   UNL     1      -5.310  -2.834 -34.715  1.00  0.00     0.043 A 
HETATM   28  C   UNL     1      -4.225  -2.845 -33.844  1.00  0.00     0.003 A 
HETATM   29  C   UNL     1      -4.112  -1.851 -32.873  1.00  0.00     0.001 A 
HETATM   30  C   UNL     1      -5.073  -0.840 -32.786  1.00  0.00     0.012 A 
ENDBRANCH   8  24
TORSDOF 2
ENDMDL
MODEL 6
REMARK VINA RESULT:      -8.7      5.161      7.298
REMARK  2 active torsions:
REMARK  status: ('A' for Active; 'I' for Inactive)
REMARK       I    between atoms: N_4  and  C_5 
REMARK       I    between atoms: C_5  and  N_6 
REMARK    1  A    between atoms: N_6  and  C_7 
REMARK    2  A    between atoms: C_20  and  C_21 
ROOT
HETATM    1  C   UNL     1      -5.624  -1.261 -33.215  1.00  0.00     0.011 C 
HETATM    2  C   UNL     1      -6.749  -0.593 -34.004  1.00  0.00     0.002 C 
HETATM    3  C   UNL     1      -6.366   0.827 -34.419  1.00  0.00     0.132 C 
HETATM    4  N   UNL     1      -6.827   1.656 -33.320  1.00  0.00    -0.325 N 
HETATM    5  C   UNL     1      -6.154   2.710 -32.729  1.00  0.00     0.323 C 
HETATM    6  N   UNL     1      -5.137   3.226 -33.501  1.00  0.00    -0.309 N 
HETATM    7  O   UNL     1      -6.461   3.123 -31.612  1.00  0.00    -0.247 OA
HETATM    8  C   UNL     1      -7.983   1.052 -32.666  1.00  0.00     0.125 C 
HETATM    9  C   UNL     1      -8.009  -0.412 -33.147  1.00  0.00     0.036 C 
HETATM   10  H   UNL     1      -5.245   3.082 -34.492  1.00  0.00     0.170 HD
ENDROOT
BRANCH   6  11
HETATM   11  C   UNL     1      -4.138   4.134 -33.095  1.00  0.00     0.038 A 
HETATM   12  C   UNL     1      -3.177   3.837 -32.124  1.00  0.00     0.062 A 
HETATM   13  C   UNL     1      -2.200   4.780 -31.793  1.00  0.00     0.070 A 
HETATM   14  C   UNL     1      -2.168   6.020 -32.430  1.00  0.00     0.096 A 
HETATM   15  N   UNL     1      -1.229   4.455 -30.846  1.00  0.00    -0.323 N 
HETATM   16  O   UNL     1      -1.225   6.979 -32.185  1.00  0.00    -0.335 OA
HETATM   17  C   UNL     1      -3.110   6.314 -33.413  1.00  0.00     0.041 A 
HETATM   18  C   UNL     1      -0.445   6.776 -31.009  1.00  0.00     0.217 C 
HETATM   19  C   UNL     1      -0.272   5.352 -30.461  1.00  0.00     0.251 C 
HETATM   20  C   UNL     1      -1.013   7.665 -29.905  1.00  0.00     0.050 C 
HETATM   21  O   UNL     1       0.615   5.039 -29.670  1.00  0.00    -0.270 OA
HETATM   22  C   UNL     1      -4.091   5.374 -33.743  1.00  0.00     0.032 A 
HETATM   23  H   UNL     1      -1.187   3.529 -30.440  1.00  0.00     0.169 HD
ENDBRANCH   6  11
BRANCH   8  24
HETATM   24  C   UNL     1      -9.246   1.843 -32.952  1.00  0.00     0.003 A 
HETATM   25  C   UNL     1      -9.891   2.622 -31.982  1.00  0.00     0.124 A 
HETATM   26  F   UNL     1      -9.404   2.698 -30.735  1.00  0.00    -0.205 F 
HETATM   27  C   UNL     1     -11.058   3.330 -32.267  1.00  0.00     0.043 A 
HETATM   28  C   UNL     1     -11.623   3.251 -33.536  1.00  0.00     0.003 A 
HETATM   29  C   UNL     1     -11.019   2.459 -34.511  1.00  0.00     0.001 A 
HETATM   30  C   UNL     1      -9.843   1.760 -34.221  1.00  0.00     0.012 A 
ENDBRANCH   8  24
TORSDOF 2
ENDMDL
MODEL 7
REMARK VINA RESULT:      -8.7      1.996      3.540
REMARK  2 active torsions:
REMARK  status: ('A' for Active; 'I' for Inactive)
REMARK       I    between atoms: N_4  and  C_5 
REMARK       I    between atoms: C_5  and  N_6 
REMARK    1  A    between atoms: N_6  and  C_7 
REMARK    2  A    between atoms: C_20  and  C_21 
ROOT
HETATM    1  C   UNL     1     -13.572  -0.411 -33.612  1.00  0.00     0.011 C 
HETATM    2  C   UNL     1     -13.621   0.899 -34.397  1.00  0.00     0.002 C 
HETATM    3  C   UNL     1     -12.257   1.238 -34.994  1.00  0.00     0.132 C 
HETATM    4  N   UNL     1     -11.605   2.033 -33.969  1.00  0.00    -0.325 N 
HETATM    5  C   UNL     1     -10.292   1.938 -33.546  1.00  0.00     0.323 C 
HETATM    6  N   UNL     1      -9.464   1.290 -34.436  1.00  0.00    -0.309 N 
HETATM    7  O   UNL     1      -9.930   2.400 -32.466  1.00  0.00    -0.247 OA
HETATM    8  C   UNL     1     -12.590   2.761 -33.176  1.00  0.00     0.125 C 
HETATM    9  C   UNL     1     -13.944   2.092 -33.486  1.00  0.00     0.036 C 
HETATM   10  H   UNL     1      -9.770   1.321 -35.396  1.00  0.00     0.170 HD
ENDROOT
BRANCH   6  11
HETATM   11  C   UNL     1      -8.149   0.840 -34.202  1.00  0.00     0.038 A 
HETATM   12  C   UNL     1      -7.732  -0.473 -34.437  1.00  0.00     0.062 A 
HETATM   13  C   UNL     1      -6.403  -0.839 -34.207  1.00  0.00     0.070 A 
HETATM   14  C   UNL     1      -5.480   0.100 -33.748  1.00  0.00     0.096 A 
HETATM   15  N   UNL     1      -5.997  -2.145 -34.477  1.00  0.00    -0.323 N 
HETATM   16  O   UNL     1      -4.158  -0.174 -33.532  1.00  0.00    -0.335 OA
HETATM   17  C   UNL     1      -5.885   1.414 -33.531  1.00  0.00     0.041 A 
HETATM   18  C   UNL     1      -3.823  -1.559 -33.499  1.00  0.00     0.217 C 
HETATM   19  C   UNL     1      -4.718  -2.565 -34.238  1.00  0.00     0.251 C 
HETATM   20  C   UNL     1      -3.706  -1.983 -32.036  1.00  0.00     0.050 C 
HETATM   21  O   UNL     1      -4.353  -3.700 -34.534  1.00  0.00    -0.270 OA
HETATM   22  C   UNL     1      -7.215   1.783 -33.758  1.00  0.00     0.032 A 
HETATM   23  H   UNL     1      -6.634  -2.813 -34.893  1.00  0.00     0.169 HD
ENDBRANCH   6  11
BRANCH   8  24
HETATM   24  C   UNL     1     -12.531   4.250 -33.467  1.00  0.00     0.003 A 
HETATM   25  C   UNL     1     -12.190   5.200 -32.496  1.00  0.00     0.124 A 
HETATM   26  F   UNL     1     -11.897   4.821 -31.243  1.00  0.00    -0.205 F 
HETATM   27  C   UNL     1     -12.155   6.564 -32.785  1.00  0.00     0.043 A 
HETATM   28  C   UNL     1     -12.488   7.010 -34.061  1.00  0.00     0.003 A 
HETATM   29  C   UNL     1     -12.861   6.088 -35.038  1.00  0.00     0.001 A 
HETATM   30  C   UNL     1     -12.884   4.721 -34.742  1.00  0.00     0.012 A 
ENDBRANCH   8  24
TORSDOF 2
ENDMDL
MODEL 8
REMARK VINA RESULT:      -8.7      6.536      9.343
REMARK  2 active torsions:
REMARK  status: ('A' for Active; 'I' for Inactive)
REMARK       I    between atoms: N_4  and  C_5 
REMARK       I    between atoms: C_5  and  N_6 
REMARK    1  A    between atoms: N_6  and  C_7 
REMARK    2  A    between atoms: C_20  and  C_21 
ROOT
HETATM    1  C   UNL     1      -1.647   6.888 -34.179  1.00  0.00     0.011 C 
HETATM    2  C   UNL     1      -0.768   6.552 -32.975  1.00  0.00     0.002 C 
HETATM    3  C   UNL     1      -1.149   5.201 -32.371  1.00  0.00     0.132 C 
HETATM    4  N   UNL     1      -2.156   5.525 -31.376  1.00  0.00    -0.325 N 
HETATM    5  C   UNL     1      -3.338   4.851 -31.133  1.00  0.00     0.323 C 
HETATM    6  N   UNL     1      -3.362   3.568 -31.632  1.00  0.00    -0.309 N 
HETATM    7  O   UNL     1      -4.266   5.380 -30.525  1.00  0.00    -0.247 OA
HETATM    8  C   UNL     1      -1.942   6.866 -30.843  1.00  0.00     0.125 C 
HETATM    9  C   UNL     1      -0.975   7.552 -31.829  1.00  0.00     0.036 C 
HETATM   10  H   UNL     1      -2.456   3.141 -31.741  1.00  0.00     0.170 HD
ENDROOT
BRANCH   6  11
HETATM   11  C   UNL     1      -4.482   2.720 -31.747  1.00  0.00     0.038 A 
HETATM   12  C   UNL     1      -5.067   2.379 -32.969  1.00  0.00     0.062 A 
HETATM   13  C   UNL     1      -6.161   1.510 -33.005  1.00  0.00     0.070 A 
HETATM   14  C   UNL     1      -6.675   0.970 -31.827  1.00  0.00     0.096 A 
HETATM   15  N   UNL     1      -6.711   1.154 -34.237  1.00  0.00    -0.323 N 
HETATM   16  O   UNL     1      -7.720   0.088 -31.785  1.00  0.00    -0.335 OA
HETATM   17  C   UNL     1      -6.085   1.290 -30.608  1.00  0.00     0.041 A 
HETATM   18  C   UNL     1      -8.473  -0.019 -32.991  1.00  0.00     0.217 C 
HETATM   19  C   UNL     1      -7.802   0.335 -34.327  1.00  0.00     0.251 C 
HETATM   20  C   UNL     1      -9.738   0.823 -32.835  1.00  0.00     0.050 C 
HETATM   21  O   UNL     1      -8.246  -0.021 -35.417  1.00  0.00    -0.270 OA
HETATM   22  C   UNL     1      -4.992   2.162 -30.568  1.00  0.00     0.032 A 
HETATM   23  H   UNL     1      -6.295   1.468 -35.103  1.00  0.00     0.169 HD
ENDBRANCH   6  11
BRANCH   8  24
HETATM   24  C   UNL     1      -1.457   6.810 -29.405  1.00  0.00     0.003 A 
HETATM   25  C   UNL     1      -2.237   7.238 -28.324  1.00  0.00     0.124 A 
HETATM   26  F   UNL     1      -3.470   7.726 -28.523  1.00  0.00    -0.205 F 
HETATM   27  C   UNL     1      -1.763   7.188 -27.013  1.00  0.00     0.043 A 
HETATM   28  C   UNL     1      -0.475   6.726 -26.759  1.00  0.00     0.003 A 
HETATM   29  C   UNL     1       0.333   6.323 -27.821  1.00  0.00     0.001 A 
HETATM   30  C   UNL     1      -0.153   6.367 -29.131  1.00  0.00     0.012 A 
ENDBRANCH   8  24
TORSDOF 2
ENDMDL
MODEL 9
REMARK VINA RESULT:      -8.5     14.884     16.304
REMARK  2 active torsions:
REMARK  status: ('A' for Active; 'I' for Inactive)
REMARK       I    between atoms: N_4  and  C_5 
REMARK       I    between atoms: C_5  and  N_6 
REMARK    1  A    between atoms: N_6  and  C_7 
REMARK    2  A    between atoms: C_20  and  C_21 
ROOT
HETATM    1  C   UNL     1      -3.674 -13.433 -39.684  1.00  0.00     0.011 C 
HETATM    2  C   UNL     1      -4.938 -12.582 -39.808  1.00  0.00     0.002 C 
HETATM    3  C   UNL     1      -5.627 -12.415 -38.456  1.00  0.00     0.132 C 
HETATM    4  N   UNL     1      -6.550 -13.533 -38.384  1.00  0.00    -0.325 N 
HETATM    5  C   UNL     1      -6.794 -14.347 -37.293  1.00  0.00     0.323 C 
HETATM    6  N   UNL     1      -6.395 -13.804 -36.091  1.00  0.00    -0.309 N 
HETATM    7  O   UNL     1      -7.318 -15.452 -37.419  1.00  0.00    -0.247 OA
HETATM    8  C   UNL     1      -6.986 -13.930 -39.719  1.00  0.00     0.125 C 
HETATM    9  C   UNL     1      -5.992 -13.264 -40.691  1.00  0.00     0.036 C 
HETATM   10  H   UNL     1      -6.359 -12.798 -36.075  1.00  0.00     0.170 HD
ENDROOT
BRANCH   6  11
HETATM   11  C   UNL     1      -6.299 -14.464 -34.850  1.00  0.00     0.038 A 
HETATM   12  C   UNL     1      -5.147 -14.450 -34.058  1.00  0.00     0.062 A 
HETATM   13  C   UNL     1      -5.136 -15.106 -32.824  1.00  0.00     0.070 A 
HETATM   14  C   UNL     1      -6.271 -15.775 -32.368  1.00  0.00     0.096 A 
HETATM   15  N   UNL     1      -3.989 -15.053 -32.032  1.00  0.00    -0.323 N 
HETATM   16  O   UNL     1      -6.347 -16.410 -31.159  1.00  0.00    -0.335 OA
HETATM   17  C   UNL     1      -7.428 -15.776 -33.143  1.00  0.00     0.041 A 
HETATM   18  C   UNL     1      -5.098 -16.627 -30.508  1.00  0.00     0.217 C 
HETATM   19  C   UNL     1      -3.913 -15.705 -30.833  1.00  0.00     0.251 C 
HETATM   20  C   UNL     1      -4.680 -18.075 -30.757  1.00  0.00     0.050 C 
HETATM   21  O   UNL     1      -2.921 -15.606 -30.114  1.00  0.00    -0.270 OA
HETATM   22  C   UNL     1      -7.441 -15.124 -34.379  1.00  0.00     0.032 A 
HETATM   23  H   UNL     1      -3.190 -14.499 -32.310  1.00  0.00     0.169 HD
ENDBRANCH   6  11
BRANCH   8  24
HETATM   24  C   UNL     1      -8.443 -13.569 -39.945  1.00  0.00     0.003 A 
HETATM   25  C   UNL     1      -9.451 -14.531 -40.083  1.00  0.00     0.124 A 
HETATM   26  F   UNL     1      -9.160 -15.839 -40.018  1.00  0.00    -0.205 F 
HETATM   27  C   UNL     1     -10.781 -14.174 -40.303  1.00  0.00     0.043 A 
HETATM   28  C   UNL     1     -11.127 -12.831 -40.416  1.00  0.00     0.003 A 
HETATM   29  C   UNL     1     -10.139 -11.854 -40.314  1.00  0.00     0.001 A 
HETATM   30  C   UNL     1      -8.809 -12.220 -40.083  1.00  0.00     0.012 A 
ENDBRANCH   8  24
TORSDOF 2
ENDMDL
MODEL 10
REMARK VINA RESULT:      -8.5      5.867      8.674
REMARK  2 active torsions:
REMARK  status: ('A' for Active; 'I' for Inactive)
REMARK       I    between atoms: N_4  and  C_5 
REMARK       I    between atoms: C_5  and  N_6 
REMARK    1  A    between atoms: N_6  and  C_7 
REMARK    2  A    between atoms: C_20  and  C_21 
ROOT
HETATM    1  C   UNL     1      -2.720  -1.576 -31.701  1.00  0.00     0.011 C 
HETATM    2  C   UNL     1      -3.696  -1.401 -32.864  1.00  0.00     0.002 C 
HETATM    3  C   UNL     1      -3.603   0.004 -33.457  1.00  0.00     0.132 C 
HETATM    4  N   UNL     1      -4.575   0.775 -32.703  1.00  0.00    -0.325 N 
HETATM    5  C   UNL     1      -4.417   2.052 -32.196  1.00  0.00     0.323 C 
HETATM    6  N   UNL     1      -3.394   2.763 -32.783  1.00  0.00    -0.309 N 
HETATM    7  O   UNL     1      -5.140   2.482 -31.300  1.00  0.00    -0.247 OA
HETATM    8  C   UNL     1      -5.666  -0.077 -32.242  1.00  0.00     0.125 C 
HETATM    9  C   UNL     1      -5.154  -1.523 -32.400  1.00  0.00     0.036 C 
HETATM   10  H   UNL     1      -3.160   2.471 -33.719  1.00  0.00     0.170 HD
ENDROOT
BRANCH   6  11
HETATM   11  C   UNL     1      -2.843   3.983 -32.342  1.00  0.00     0.038 A 
HETATM   12  C   UNL     1      -1.982   4.086 -31.246  1.00  0.00     0.062 A 
HETATM   13  C   UNL     1      -1.453   5.329 -30.884  1.00  0.00     0.070 A 
HETATM   14  C   UNL     1      -1.772   6.473 -31.613  1.00  0.00     0.096 A 
HETATM   15  N   UNL     1      -0.568   5.408 -29.809  1.00  0.00    -0.323 N 
HETATM   16  O   UNL     1      -1.269   7.715 -31.341  1.00  0.00    -0.335 OA
HETATM   17  C   UNL     1      -2.614   6.374 -32.718  1.00  0.00     0.041 A 
HETATM   18  C   UNL     1      -0.635   7.848 -30.071  1.00  0.00     0.217 C 
HETATM   19  C   UNL     1      -0.049   6.602 -29.392  1.00  0.00     0.251 C 
HETATM   20  C   UNL     1      -1.625   8.512 -29.116  1.00  0.00     0.050 C 
HETATM   21  O   UNL     1       0.774   6.657 -28.481  1.00  0.00    -0.270 OA
HETATM   22  C   UNL     1      -3.148   5.133 -33.080  1.00  0.00     0.032 A 
HETATM   23  H   UNL     1      -0.260   4.574 -29.326  1.00  0.00     0.169 HD
ENDBRANCH   6  11
BRANCH   8  24
HETATM   24  C   UNL     1      -6.951   0.232 -32.988  1.00  0.00     0.003 A 
HETATM   25  C   UNL     1      -8.137   0.598 -32.338  1.00  0.00     0.124 A 
HETATM   26  F   UNL     1      -8.181   0.691 -31.001  1.00  0.00    -0.205 F 
HETATM   27  C   UNL     1      -9.309   0.865 -33.046  1.00  0.00     0.043 A 
HETATM   28  C   UNL     1      -9.322   0.745 -34.432  1.00  0.00     0.003 A 
HETATM   29  C   UNL     1      -8.165   0.352 -35.101  1.00  0.00     0.001 A 
HETATM   30  C   UNL     1      -6.991   0.096 -34.385  1.00  0.00     0.012 A 
ENDBRANCH   8  24
TORSDOF 2
ENDMDL
