MODEL 1
REMARK VINA RESULT:      -9.7      0.000      0.000
REMARK  8 active torsions:
REMARK  status: ('A' for Active; 'I' for Inactive)
REMARK    1  A    between atoms: C_7  and  S_8 
REMARK    2  A    between atoms: S_8  and  N_9 
REMARK    3  A    between atoms: N_9  and  C_10 
REMARK    4  A    between atoms: C_19  and  N_20 
REMARK    5  A    between atoms: C_25  and  N_26 
REMARK    6  A    between atoms: C_30  and  S_31 
REMARK    7  A    between atoms: S_31  and  N_32 
REMARK    8  A    between atoms: N_32  and  C_33 
ROOT
HETATM    1  C   UNL     1      -1.872   3.568 -30.979  1.00  0.00     0.041 A 
HETATM    2  C   UNL     1      -3.030   3.112 -31.587  1.00  0.00     0.030 A 
HETATM    3  C   UNL     1      -3.966   3.916 -32.272  1.00  0.00     0.025 A 
HETATM    4  C   UNL     1      -5.066   3.048 -32.728  1.00  0.00     0.025 C 
HETATM    5  C   UNL     1      -4.683   1.707 -32.512  1.00  0.00     0.030 C 
HETATM    6  C   UNL     1      -5.413   0.594 -32.899  1.00  0.00     0.041 C 
HETATM    7  C   UNL     1      -6.641   0.831 -33.512  1.00  0.00     0.077 C 
HETATM    8  C   UNL     1      -7.145   2.137 -33.622  1.00  0.00     0.061 C 
HETATM    9  C   UNL     1      -6.359   3.238 -33.217  1.00  0.00     0.116 C 
HETATM   10  C   UNL     1      -3.423   1.704 -31.754  1.00  0.00     0.194 C 
HETATM   11  O   UNL     1      -2.814   0.732 -31.365  1.00  0.00    -0.287 OA
HETATM   12  C   UNL     1      -3.602   5.253 -32.452  1.00  0.00     0.116 A 
HETATM   13  C   UNL     1      -2.431   5.769 -31.851  1.00  0.00     0.062 A 
HETATM   14  C   UNL     1      -1.583   4.922 -31.118  1.00  0.00     0.082 A 
ENDROOT
BRANCH   7  15
HETATM   15  S   UNL     1      -7.624  -0.548 -34.053  1.00  0.00     0.241 S 
HETATM   16  O   UNL     1      -8.670  -0.734 -33.072  1.00  0.00    -0.206 OA
HETATM   17  O   UNL     1      -7.911  -0.378 -35.458  1.00  0.00    -0.206 OA
BRANCH  15  18
HETATM   18  N   UNL     1      -6.549  -1.831 -33.837  1.00  0.00    -0.211 NA
HETATM   19  H   UNL     1      -7.035  -2.576 -33.331  1.00  0.00     0.140 HD
BRANCH  18  20
HETATM   20  C   UNL     1      -5.737  -2.302 -34.990  1.00  0.00     0.071 C 
HETATM   21  C   UNL     1      -4.280  -2.564 -34.600  1.00  0.00     0.020 C 
HETATM   22  C   UNL     1      -4.126  -3.742 -33.640  1.00  0.00     0.002 C 
HETATM   23  C   UNL     1      -4.756  -5.007 -34.209  1.00  0.00     0.000 C 
HETATM   24  C   UNL     1      -6.213  -4.784 -34.600  1.00  0.00     0.002 C 
HETATM   25  C   UNL     1      -6.373  -3.589 -35.542  1.00  0.00     0.020 C 
ENDBRANCH  18  20
ENDBRANCH  15  18
ENDBRANCH   7  15
BRANCH   9  26
HETATM   26  N   UNL     1      -7.023   4.532 -33.166  1.00  0.00    -0.115 N 
HETATM   27  O   UNL     1      -7.273   4.985 -32.041  1.00  0.00    -0.532 OA
HETATM   28  O   UNL     1      -7.329   5.062 -34.241  1.00  0.00    -0.532 OA
ENDBRANCH   9  26
BRANCH  12  29
HETATM   29  N   UNL     1      -4.256   6.104 -33.436  1.00  0.00    -0.115 N 
HETATM   30  O   UNL     1      -4.956   7.024 -32.994  1.00  0.00    -0.532 OA
HETATM   31  O   UNL     1      -4.124   5.809 -34.629  1.00  0.00    -0.532 OA
ENDBRANCH  12  29
BRANCH  14  32
HETATM   32  S   UNL     1      -0.086   5.584 -30.431  1.00  0.00     0.259 S 
HETATM   33  O   UNL     1       0.763   4.454 -30.132  1.00  0.00    -0.201 OA
HETATM   34  O   UNL     1       0.355   6.686 -31.253  1.00  0.00    -0.201 OA
BRANCH  32  35
HETATM   35  N   UNL     1      -0.614   6.181 -28.945  1.00  0.00    -0.311 N 
HETATM   36  H   UNL     1      -1.512   5.752 -28.708  1.00  0.00     0.172 HD
BRANCH  35  37
HETATM   37  C   UNL     1       0.347   6.327 -27.824  1.00  0.00     0.093 C 
HETATM   38  C   UNL     1       1.082   7.669 -27.874  1.00  0.00     0.026 C 
HETATM   39  C   UNL     1       0.155   8.859 -27.629  1.00  0.00     0.002 C 
HETATM   40  C   UNL     1      -0.596   8.714 -26.309  1.00  0.00     0.000 C 
HETATM   41  C   UNL     1      -1.341   7.386 -26.224  1.00  0.00     0.002 C 
HETATM   42  C   UNL     1      -0.420   6.197 -26.497  1.00  0.00     0.026 C 
ENDBRANCH  35  37
ENDBRANCH  32  35
ENDBRANCH  14  32
TORSDOF 8
ENDMDL
MODEL 2
REMARK VINA RESULT:      -9.6      3.538      9.980
REMARK  8 active torsions:
REMARK  status: ('A' for Active; 'I' for Inactive)
REMARK    1  A    between atoms: C_7  and  S_8 
REMARK    2  A    between atoms: S_8  and  N_9 
REMARK    3  A    between atoms: N_9  and  C_10 
REMARK    4  A    between atoms: C_19  and  N_20 
REMARK    5  A    between atoms: C_25  and  N_26 
REMARK    6  A    between atoms: C_30  and  S_31 
REMARK    7  A    between atoms: S_31  and  N_32 
REMARK    8  A    between atoms: N_32  and  C_33 
ROOT
HETATM    1  C   UNL     1      -9.174   2.882 -33.679  1.00  0.00     0.041 A 
HETATM    2  C   UNL     1      -7.818   3.143 -33.575  1.00  0.00     0.030 A 
HETATM    3  C   UNL     1      -6.827   2.197 -33.234  1.00  0.00     0.025 A 
HETATM    4  C   UNL     1      -5.528   2.893 -33.195  1.00  0.00     0.025 C 
HETATM    5  C   UNL     1      -5.709   4.188 -33.725  1.00  0.00     0.030 C 
HETATM    6  C   UNL     1      -4.699   5.112 -33.943  1.00  0.00     0.041 C 
HETATM    7  C   UNL     1      -3.413   4.736 -33.566  1.00  0.00     0.077 C 
HETATM    8  C   UNL     1      -3.190   3.521 -32.899  1.00  0.00     0.061 C 
HETATM    9  C   UNL     1      -4.252   2.611 -32.706  1.00  0.00     0.116 C 
HETATM   10  C   UNL     1      -7.148   4.401 -33.938  1.00  0.00     0.194 C 
HETATM   11  O   UNL     1      -7.678   5.408 -34.353  1.00  0.00    -0.287 OA
HETATM   12  C   UNL     1      -7.260   0.874 -33.129  1.00  0.00     0.116 A 
HETATM   13  C   UNL     1      -8.633   0.554 -33.225  1.00  0.00     0.062 A 
HETATM   14  C   UNL     1      -9.574   1.563 -33.494  1.00  0.00     0.082 A 
ENDROOT
BRANCH   7  15
HETATM   15  S   UNL     1      -2.063   5.863 -33.833  1.00  0.00     0.241 S 
HETATM   16  O   UNL     1      -1.149   5.219 -34.749  1.00  0.00    -0.206 OA
HETATM   17  O   UNL     1      -2.609   7.174 -34.088  1.00  0.00    -0.206 OA
BRANCH  15  18
HETATM   18  N   UNL     1      -1.304   5.839 -32.326  1.00  0.00    -0.211 NA
HETATM   19  H   UNL     1      -0.704   5.013 -32.281  1.00  0.00     0.140 HD
BRANCH  18  20
HETATM   20  C   UNL     1      -0.676   7.083 -31.808  1.00  0.00     0.071 C 
HETATM   21  C   UNL     1      -1.594   7.833 -30.839  1.00  0.00     0.020 C 
HETATM   22  C   UNL     1      -1.834   7.069 -29.538  1.00  0.00     0.002 C 
HETATM   23  C   UNL     1      -0.519   6.714 -28.853  1.00  0.00     0.000 C 
HETATM   24  C   UNL     1       0.417   5.958 -29.789  1.00  0.00     0.002 C 
HETATM   25  C   UNL     1       0.639   6.708 -31.102  1.00  0.00     0.020 C 
ENDBRANCH  18  20
ENDBRANCH  15  18
ENDBRANCH   7  15
BRANCH   9  26
HETATM   26  N   UNL     1      -3.993   1.478 -31.830  1.00  0.00    -0.115 N 
HETATM   27  O   UNL     1      -4.519   1.510 -30.709  1.00  0.00    -0.532 OA
HETATM   28  O   UNL     1      -3.234   0.595 -32.246  1.00  0.00    -0.532 OA
ENDBRANCH   9  26
BRANCH  12  29
HETATM   29  N   UNL     1      -6.329  -0.246 -33.158  1.00  0.00    -0.115 N 
HETATM   30  O   UNL     1      -5.748  -0.456 -34.231  1.00  0.00    -0.532 OA
HETATM   31  O   UNL     1      -6.238  -0.943 -32.141  1.00  0.00    -0.532 OA
ENDBRANCH  12  29
BRANCH  14  32
HETATM   32  S   UNL     1     -11.285   1.121 -33.673  1.00  0.00     0.259 S 
HETATM   33  O   UNL     1     -11.651   1.447 -35.032  1.00  0.00    -0.201 OA
HETATM   34  O   UNL     1     -11.486  -0.195 -33.114  1.00  0.00    -0.201 OA
BRANCH  32  35
HETATM   35  N   UNL     1     -12.049   2.261 -32.693  1.00  0.00    -0.311 N 
HETATM   36  H   UNL     1     -11.353   2.919 -32.336  1.00  0.00     0.172 HD
BRANCH  35  37
HETATM   37  C   UNL     1     -13.340   2.853 -33.119  1.00  0.00     0.093 C 
HETATM   38  C   UNL     1     -14.316   2.994 -31.947  1.00  0.00     0.026 C 
HETATM   39  C   UNL     1     -13.848   4.012 -30.908  1.00  0.00     0.002 C 
HETATM   40  C   UNL     1     -13.585   5.373 -31.546  1.00  0.00     0.000 C 
HETATM   41  C   UNL     1     -12.614   5.271 -32.719  1.00  0.00     0.002 C 
HETATM   42  C   UNL     1     -13.068   4.231 -33.744  1.00  0.00     0.026 C 
ENDBRANCH  35  37
ENDBRANCH  32  35
ENDBRANCH  14  32
TORSDOF 8
ENDMDL
MODEL 3
REMARK VINA RESULT:      -9.5      3.409      6.000
REMARK  8 active torsions:
REMARK  status: ('A' for Active; 'I' for Inactive)
REMARK    1  A    between atoms: C_7  and  S_8 
REMARK    2  A    between atoms: S_8  and  N_9 
REMARK    3  A    between atoms: N_9  and  C_10 
REMARK    4  A    between atoms: C_19  and  N_20 
REMARK    5  A    between atoms: C_25  and  N_26 
REMARK    6  A    between atoms: C_30  and  S_31 
REMARK    7  A    between atoms: S_31  and  N_32 
REMARK    8  A    between atoms: N_32  and  C_33 
ROOT
HETATM    1  C   UNL     1      -4.528   5.086 -33.637  1.00  0.00     0.041 A 
HETATM    2  C   UNL     1      -5.535   4.137 -33.569  1.00  0.00     0.030 A 
HETATM    3  C   UNL     1      -5.386   2.819 -33.085  1.00  0.00     0.025 A 
HETATM    4  C   UNL     1      -6.682   2.133 -33.225  1.00  0.00     0.025 C 
HETATM    5  C   UNL     1      -7.651   3.096 -33.581  1.00  0.00     0.030 C 
HETATM    6  C   UNL     1      -9.009   2.854 -33.710  1.00  0.00     0.041 C 
HETATM    7  C   UNL     1      -9.436   1.543 -33.513  1.00  0.00     0.077 C 
HETATM    8  C   UNL     1      -8.505   0.513 -33.304  1.00  0.00     0.061 C 
HETATM    9  C   UNL     1      -7.131   0.813 -33.173  1.00  0.00     0.116 C 
HETATM   10  C   UNL     1      -6.961   4.366 -33.849  1.00  0.00     0.194 C 
HETATM   11  O   UNL     1      -7.469   5.405 -34.207  1.00  0.00    -0.287 OA
HETATM   12  C   UNL     1      -4.148   2.519 -32.512  1.00  0.00     0.116 A 
HETATM   13  C   UNL     1      -3.087   3.451 -32.556  1.00  0.00     0.062 A 
HETATM   14  C   UNL     1      -3.288   4.722 -33.122  1.00  0.00     0.082 A 
ENDROOT
BRANCH   7  15
HETATM   15  S   UNL     1     -11.168   1.161 -33.644  1.00  0.00     0.241 S 
HETATM   16  O   UNL     1     -11.595   1.579 -34.960  1.00  0.00    -0.206 OA
HETATM   17  O   UNL     1     -11.374  -0.183 -33.160  1.00  0.00    -0.206 OA
BRANCH  15  18
HETATM   18  N   UNL     1     -11.837   2.270 -32.563  1.00  0.00    -0.211 NA
HETATM   19  H   UNL     1     -11.074   2.789 -32.121  1.00  0.00     0.140 HD
BRANCH  18  20
HETATM   20  C   UNL     1     -12.980   3.114 -33.000  1.00  0.00     0.071 C 
HETATM   21  C   UNL     1     -14.060   3.226 -31.921  1.00  0.00     0.020 C 
HETATM   22  C   UNL     1     -13.590   3.996 -30.689  1.00  0.00     0.002 C 
HETATM   23  C   UNL     1     -13.072   5.380 -31.064  1.00  0.00     0.000 C 
HETATM   24  C   UNL     1     -11.986   5.304 -32.131  1.00  0.00     0.002 C 
HETATM   25  C   UNL     1     -12.446   4.512 -33.356  1.00  0.00     0.020 C 
ENDBRANCH  18  20
ENDBRANCH  15  18
ENDBRANCH   7  15
BRANCH   9  26
HETATM   26  N   UNL     1      -6.212  -0.316 -33.168  1.00  0.00    -0.115 N 
HETATM   27  O   UNL     1      -5.566  -0.512 -34.206  1.00  0.00    -0.532 OA
HETATM   28  O   UNL     1      -6.178  -1.021 -32.153  1.00  0.00    -0.532 OA
ENDBRANCH   9  26
BRANCH  12  29
HETATM   29  N   UNL     1      -3.959   1.361 -31.649  1.00  0.00    -0.115 N 
HETATM   30  O   UNL     1      -4.576   1.365 -30.575  1.00  0.00    -0.532 OA
HETATM   31  O   UNL     1      -3.152   0.499 -32.012  1.00  0.00    -0.532 OA
ENDBRANCH  12  29
BRANCH  14  32
HETATM   32  S   UNL     1      -1.956   5.895 -33.105  1.00  0.00     0.259 S 
HETATM   33  O   UNL     1      -1.156   5.624 -34.277  1.00  0.00    -0.201 OA
HETATM   34  O   UNL     1      -2.494   7.205 -32.823  1.00  0.00    -0.201 OA
BRANCH  32  35
HETATM   35  N   UNL     1      -1.045   5.376 -31.784  1.00  0.00    -0.311 N 
HETATM   36  H   UNL     1      -1.111   4.358 -31.708  1.00  0.00     0.172 HD
BRANCH  35  37
HETATM   37  C   UNL     1       0.298   5.956 -31.540  1.00  0.00     0.093 C 
HETATM   38  C   UNL     1       0.224   7.227 -30.690  1.00  0.00     0.026 C 
HETATM   39  C   UNL     1      -0.249   6.957 -29.262  1.00  0.00     0.002 C 
HETATM   40  C   UNL     1       0.627   5.911 -28.578  1.00  0.00     0.000 C 
HETATM   41  C   UNL     1       0.723   4.628 -29.397  1.00  0.00     0.002 C 
HETATM   42  C   UNL     1       1.169   4.903 -30.834  1.00  0.00     0.026 C 
ENDBRANCH  35  37
ENDBRANCH  32  35
ENDBRANCH  14  32
TORSDOF 8
ENDMDL
MODEL 4
REMARK VINA RESULT:      -9.3      2.656     10.380
REMARK  8 active torsions:
REMARK  status: ('A' for Active; 'I' for Inactive)
REMARK    1  A    between atoms: C_7  and  S_8 
REMARK    2  A    between atoms: S_8  and  N_9 
REMARK    3  A    between atoms: N_9  and  C_10 
REMARK    4  A    between atoms: C_19  and  N_20 
REMARK    5  A    between atoms: C_25  and  N_26 
REMARK    6  A    between atoms: C_30  and  S_31 
REMARK    7  A    between atoms: S_31  and  N_32 
REMARK    8  A    between atoms: N_32  and  C_33 
ROOT
HETATM    1  C   UNL     1      -6.556   3.916 -31.111  1.00  0.00     0.041 A 
HETATM    2  C   UNL     1      -5.583   4.815 -30.709  1.00  0.00     0.030 A 
HETATM    3  C   UNL     1      -4.380   5.082 -31.399  1.00  0.00     0.025 A 
HETATM    4  C   UNL     1      -3.614   6.066 -30.615  1.00  0.00     0.025 C 
HETATM    5  C   UNL     1      -4.446   6.548 -29.583  1.00  0.00     0.030 C 
HETATM    6  C   UNL     1      -4.115   7.557 -28.692  1.00  0.00     0.041 C 
HETATM    7  C   UNL     1      -2.839   8.102 -28.808  1.00  0.00     0.077 C 
HETATM    8  C   UNL     1      -1.912   7.565 -29.716  1.00  0.00     0.061 C 
HETATM    9  C   UNL     1      -2.302   6.541 -30.606  1.00  0.00     0.116 C 
HETATM   10  C   UNL     1      -5.683   5.754 -29.581  1.00  0.00     0.194 C 
HETATM   11  O   UNL     1      -6.615   5.866 -28.815  1.00  0.00    -0.287 OA
HETATM   12  C   UNL     1      -4.251   4.476 -32.651  1.00  0.00     0.116 A 
HETATM   13  C   UNL     1      -5.215   3.549 -33.107  1.00  0.00     0.062 A 
HETATM   14  C   UNL     1      -6.354   3.276 -32.329  1.00  0.00     0.082 A 
ENDROOT
BRANCH   7  15
HETATM   15  S   UNL     1      -2.349   9.414 -27.711  1.00  0.00     0.241 S 
HETATM   16  O   UNL     1      -1.979  10.541 -28.538  1.00  0.00    -0.206 OA
HETATM   17  O   UNL     1      -3.336   9.522 -26.663  1.00  0.00    -0.206 OA
BRANCH  15  18
HETATM   18  N   UNL     1      -0.907   8.804 -27.083  1.00  0.00    -0.211 NA
HETATM   19  H   UNL     1      -0.849   7.810 -27.317  1.00  0.00     0.140 HD
BRANCH  18  20
HETATM   20  C   UNL     1       0.357   9.558 -27.296  1.00  0.00     0.071 C 
HETATM   21  C   UNL     1       0.721  10.426 -26.089  1.00  0.00     0.020 C 
HETATM   22  C   UNL     1       1.083   9.602 -24.854  1.00  0.00     0.002 C 
HETATM   23  C   UNL     1       2.206   8.617 -25.155  1.00  0.00     0.000 C 
HETATM   24  C   UNL     1       1.872   7.729 -26.348  1.00  0.00     0.002 C 
HETATM   25  C   UNL     1       1.485   8.550 -27.579  1.00  0.00     0.020 C 
ENDBRANCH  18  20
ENDBRANCH  15  18
ENDBRANCH   7  15
BRANCH   9  26
HETATM   26  N   UNL     1      -1.240   5.896 -31.366  1.00  0.00    -0.115 N 
HETATM   27  O   UNL     1      -0.940   4.742 -31.032  1.00  0.00    -0.532 OA
HETATM   28  O   UNL     1      -0.687   6.558 -32.252  1.00  0.00    -0.532 OA
ENDBRANCH   9  26
BRANCH  12  29
HETATM   29  N   UNL     1      -3.275   4.933 -33.631  1.00  0.00    -0.115 N 
HETATM   30  O   UNL     1      -3.497   6.028 -34.164  1.00  0.00    -0.532 OA
HETATM   31  O   UNL     1      -2.341   4.173 -33.909  1.00  0.00    -0.532 OA
ENDBRANCH  12  29
BRANCH  14  32
HETATM   32  S   UNL     1      -7.580   2.157 -32.958  1.00  0.00     0.259 S 
HETATM   33  O   UNL     1      -8.324   1.681 -31.815  1.00  0.00    -0.201 OA
HETATM   34  O   UNL     1      -8.222   2.765 -34.100  1.00  0.00    -0.201 OA
BRANCH  32  35
HETATM   35  N   UNL     1      -6.638   0.859 -33.480  1.00  0.00    -0.311 N 
HETATM   36  H   UNL     1      -5.690   1.187 -33.676  1.00  0.00     0.172 HD
BRANCH  35  37
HETATM   37  C   UNL     1      -6.739  -0.450 -32.790  1.00  0.00     0.093 C 
HETATM   38  C   UNL     1      -7.137  -1.573 -33.752  1.00  0.00     0.026 C 
HETATM   39  C   UNL     1      -6.060  -1.867 -34.795  1.00  0.00     0.002 C 
HETATM   40  C   UNL     1      -4.722  -2.185 -34.134  1.00  0.00     0.000 C 
HETATM   41  C   UNL     1      -4.292  -1.086 -33.167  1.00  0.00     0.002 C 
HETATM   42  C   UNL     1      -5.382  -0.772 -32.141  1.00  0.00     0.026 C 
ENDBRANCH  35  37
ENDBRANCH  32  35
ENDBRANCH  14  32
TORSDOF 8
ENDMDL
MODEL 5
REMARK VINA RESULT:      -9.2      3.365     10.053
REMARK  8 active torsions:
REMARK  status: ('A' for Active; 'I' for Inactive)
REMARK    1  A    between atoms: C_7  and  S_8 
REMARK    2  A    between atoms: S_8  and  N_9 
REMARK    3  A    between atoms: N_9  and  C_10 
REMARK    4  A    between atoms: C_19  and  N_20 
REMARK    5  A    between atoms: C_25  and  N_26 
REMARK    6  A    between atoms: C_30  and  S_31 
REMARK    7  A    between atoms: S_31  and  N_32 
REMARK    8  A    between atoms: N_32  and  C_33 
ROOT
HETATM    1  C   UNL     1      -6.486   2.800 -34.292  1.00  0.00     0.041 A 
HETATM    2  C   UNL     1      -5.871   3.774 -33.522  1.00  0.00     0.030 A 
HETATM    3  C   UNL     1      -5.985   3.902 -32.121  1.00  0.00     0.025 A 
HETATM    4  C   UNL     1      -5.212   5.086 -31.707  1.00  0.00     0.025 C 
HETATM    5  C   UNL     1      -4.463   5.530 -32.818  1.00  0.00     0.030 C 
HETATM    6  C   UNL     1      -3.539   6.563 -32.799  1.00  0.00     0.041 C 
HETATM    7  C   UNL     1      -3.376   7.238 -31.592  1.00  0.00     0.077 C 
HETATM    8  C   UNL     1      -4.197   6.942 -30.491  1.00  0.00     0.061 C 
HETATM    9  C   UNL     1      -5.119   5.875 -30.560  1.00  0.00     0.116 C 
HETATM   10  C   UNL     1      -4.882   4.755 -33.995  1.00  0.00     0.194 C 
HETATM   11  O   UNL     1      -4.475   4.883 -35.128  1.00  0.00    -0.287 OA
HETATM   12  C   UNL     1      -6.669   2.872 -31.471  1.00  0.00     0.116 A 
HETATM   13  C   UNL     1      -7.316   1.856 -32.209  1.00  0.00     0.062 A 
HETATM   14  C   UNL     1      -7.220   1.835 -33.611  1.00  0.00     0.082 A 
ENDROOT
BRANCH   7  15
HETATM   15  S   UNL     1      -2.195   8.563 -31.487  1.00  0.00     0.241 S 
HETATM   16  O   UNL     1      -1.486   8.600 -32.746  1.00  0.00    -0.206 OA
HETATM   17  O   UNL     1      -2.861   9.724 -30.946  1.00  0.00    -0.206 OA
BRANCH  15  18
HETATM   18  N   UNL     1      -1.103   7.948 -30.356  1.00  0.00    -0.211 NA
HETATM   19  H   UNL     1      -0.161   8.246 -30.624  1.00  0.00     0.140 HD
BRANCH  18  20
HETATM   20  C   UNL     1      -1.400   8.088 -28.906  1.00  0.00     0.071 C 
HETATM   21  C   UNL     1      -1.380   6.740 -28.181  1.00  0.00     0.020 C 
HETATM   22  C   UNL     1       0.012   6.115 -28.129  1.00  0.00     0.002 C 
HETATM   23  C   UNL     1       1.024   7.068 -27.503  1.00  0.00     0.000 C 
HETATM   24  C   UNL     1       1.037   8.419 -28.208  1.00  0.00     0.002 C 
HETATM   25  C   UNL     1      -0.360   9.036 -28.284  1.00  0.00     0.020 C 
ENDBRANCH  18  20
ENDBRANCH  15  18
ENDBRANCH   7  15
BRANCH   9  26
HETATM   26  N   UNL     1      -6.073   5.763 -29.466  1.00  0.00    -0.115 N 
HETATM   27  O   UNL     1      -7.245   6.073 -29.716  1.00  0.00    -0.532 OA
HETATM   28  O   UNL     1      -5.638   5.415 -28.361  1.00  0.00    -0.532 OA
ENDBRANCH   9  26
BRANCH  12  29
HETATM   29  N   UNL     1      -6.554   2.658 -30.035  1.00  0.00    -0.115 N 
HETATM   30  O   UNL     1      -5.462   2.241 -29.623  1.00  0.00    -0.532 OA
HETATM   31  O   UNL     1      -7.562   2.838 -29.344  1.00  0.00    -0.532 OA
ENDBRANCH  12  29
BRANCH  14  32
HETATM   32  S   UNL     1      -7.988   0.509 -34.508  1.00  0.00     0.259 S 
HETATM   33  O   UNL     1      -7.252   0.370 -35.743  1.00  0.00    -0.201 OA
HETATM   34  O   UNL     1      -8.202  -0.599 -33.607  1.00  0.00    -0.201 OA
BRANCH  32  35
HETATM   35  N   UNL     1      -9.479   1.180 -34.922  1.00  0.00    -0.311 N 
HETATM   36  H   UNL     1      -9.977   0.538 -35.544  1.00  0.00     0.172 HD
BRANCH  35  37
HETATM   37  C   UNL     1     -10.304   1.842 -33.883  1.00  0.00     0.093 C 
HETATM   38  C   UNL     1     -10.425   3.349 -34.126  1.00  0.00     0.026 C 
HETATM   39  C   UNL     1     -11.214   3.682 -35.391  1.00  0.00     0.002 C 
HETATM   40  C   UNL     1     -12.596   3.036 -35.368  1.00  0.00     0.000 C 
HETATM   41  C   UNL     1     -12.515   1.532 -35.128  1.00  0.00     0.002 C 
HETATM   42  C   UNL     1     -11.701   1.198 -33.878  1.00  0.00     0.026 C 
ENDBRANCH  35  37
ENDBRANCH  32  35
ENDBRANCH  14  32
TORSDOF 8
ENDMDL
MODEL 6
REMARK VINA RESULT:      -9.1      2.690      4.010
REMARK  8 active torsions:
REMARK  status: ('A' for Active; 'I' for Inactive)
REMARK    1  A    between atoms: C_7  and  S_8 
REMARK    2  A    between atoms: S_8  and  N_9 
REMARK    3  A    between atoms: N_9  and  C_10 
REMARK    4  A    between atoms: C_19  and  N_20 
REMARK    5  A    between atoms: C_25  and  N_26 
REMARK    6  A    between atoms: C_30  and  S_31 
REMARK    7  A    between atoms: S_31  and  N_32 
REMARK    8  A    between atoms: N_32  and  C_33 
ROOT
HETATM    1  C   UNL     1      -4.176   7.668 -28.664  1.00  0.00     0.041 A 
HETATM    2  C   UNL     1      -4.473   6.695 -29.604  1.00  0.00     0.030 A 
HETATM    3  C   UNL     1      -3.594   6.232 -30.607  1.00  0.00     0.025 A 
HETATM    4  C   UNL     1      -4.312   5.232 -31.417  1.00  0.00     0.025 C 
HETATM    5  C   UNL     1      -5.531   4.938 -30.769  1.00  0.00     0.030 C 
HETATM    6  C   UNL     1      -6.440   3.974 -31.173  1.00  0.00     0.041 C 
HETATM    7  C   UNL     1      -6.136   3.273 -32.338  1.00  0.00     0.077 C 
HETATM    8  C   UNL     1      -5.015   3.621 -33.108  1.00  0.00     0.061 C 
HETATM    9  C   UNL     1      -4.115   4.608 -32.649  1.00  0.00     0.116 C 
HETATM   10  C   UNL     1      -5.690   5.871 -29.644  1.00  0.00     0.194 C 
HETATM   11  O   UNL     1      -6.630   5.933 -28.882  1.00  0.00    -0.287 OA
HETATM   12  C   UNL     1      -2.285   6.714 -30.537  1.00  0.00     0.116 A 
HETATM   13  C   UNL     1      -1.931   7.708 -29.598  1.00  0.00     0.062 A 
HETATM   14  C   UNL     1      -2.882   8.177 -28.676  1.00  0.00     0.082 A 
ENDROOT
BRANCH   7  15
HETATM   15  S   UNL     1      -7.247   2.007 -32.908  1.00  0.00     0.241 S 
HETATM   16  O   UNL     1      -8.000   1.556 -31.760  1.00  0.00    -0.206 OA
HETATM   17  O   UNL     1      -7.890   2.476 -34.113  1.00  0.00    -0.206 OA
BRANCH  15  18
HETATM   18  N   UNL     1      -6.171   0.761 -33.279  1.00  0.00    -0.211 NA
HETATM   19  H   UNL     1      -5.218   1.116 -33.170  1.00  0.00     0.140 HD
BRANCH  18  20
HETATM   20  C   UNL     1      -6.392  -0.589 -32.697  1.00  0.00     0.071 C 
HETATM   21  C   UNL     1      -7.112  -1.526 -33.669  1.00  0.00     0.020 C 
HETATM   22  C   UNL     1      -6.266  -1.876 -34.892  1.00  0.00     0.002 C 
HETATM   23  C   UNL     1      -4.922  -2.469 -34.484  1.00  0.00     0.000 C 
HETATM   24  C   UNL     1      -4.173  -1.555 -33.521  1.00  0.00     0.002 C 
HETATM   25  C   UNL     1      -5.026  -1.182 -32.308  1.00  0.00     0.020 C 
ENDBRANCH  18  20
ENDBRANCH  15  18
ENDBRANCH   7  15
BRANCH   9  26
HETATM   26  N   UNL     1      -3.101   5.058 -33.591  1.00  0.00    -0.115 N 
HETATM   27  O   UNL     1      -3.270   6.175 -34.097  1.00  0.00    -0.532 OA
HETATM   28  O   UNL     1      -2.176   4.280 -33.851  1.00  0.00    -0.532 OA
ENDBRANCH   9  26
BRANCH  12  29
HETATM   29  N   UNL     1      -1.187   6.066 -31.242  1.00  0.00    -0.115 N 
HETATM   30  O   UNL     1      -0.910   4.911 -30.893  1.00  0.00    -0.532 OA
HETATM   31  O   UNL     1      -0.570   6.731 -32.081  1.00  0.00    -0.532 OA
ENDBRANCH  12  29
BRANCH  14  32
HETATM   32  S   UNL     1      -2.391   9.378 -27.464  1.00  0.00     0.259 S 
HETATM   33  O   UNL     1      -2.110  10.597 -28.187  1.00  0.00    -0.201 OA
HETATM   34  O   UNL     1      -3.320   9.331 -26.360  1.00  0.00    -0.201 OA
BRANCH  32  35
HETATM   35  N   UNL     1      -0.899   8.778 -26.957  1.00  0.00    -0.311 N 
HETATM   36  H   UNL     1      -0.860   7.773 -27.138  1.00  0.00     0.172 HD
BRANCH  35  37
HETATM   37  C   UNL     1       0.341   9.537 -27.253  1.00  0.00     0.093 C 
HETATM   38  C   UNL     1       0.766  10.418 -26.075  1.00  0.00     0.026 C 
HETATM   39  C   UNL     1       1.197   9.605 -24.856  1.00  0.00     0.002 C 
HETATM   40  C   UNL     1       2.309   8.622 -25.210  1.00  0.00     0.000 C 
HETATM   41  C   UNL     1       1.919   7.725 -26.382  1.00  0.00     0.002 C 
HETATM   42  C   UNL     1       1.460   8.538 -27.592  1.00  0.00     0.026 C 
ENDBRANCH  35  37
ENDBRANCH  32  35
ENDBRANCH  14  32
TORSDOF 8
ENDMDL
MODEL 7
REMARK VINA RESULT:      -9.0      4.315      8.368
REMARK  8 active torsions:
REMARK  status: ('A' for Active; 'I' for Inactive)
REMARK    1  A    between atoms: C_7  and  S_8 
REMARK    2  A    between atoms: S_8  and  N_9 
REMARK    3  A    between atoms: N_9  and  C_10 
REMARK    4  A    between atoms: C_19  and  N_20 
REMARK    5  A    between atoms: C_25  and  N_26 
REMARK    6  A    between atoms: C_30  and  S_31 
REMARK    7  A    between atoms: S_31  and  N_32 
REMARK    8  A    between atoms: N_32  and  C_33 
ROOT
HETATM    1  C   UNL     1      -6.186   0.067 -32.104  1.00  0.00     0.041 A 
HETATM    2  C   UNL     1      -7.127   1.052 -31.858  1.00  0.00     0.030 A 
HETATM    3  C   UNL     1      -6.840   2.391 -31.512  1.00  0.00     0.025 A 
HETATM    4  C   UNL     1      -8.118   3.091 -31.299  1.00  0.00     0.025 C 
HETATM    5  C   UNL     1      -9.160   2.242 -31.729  1.00  0.00     0.030 C 
HETATM    6  C   UNL     1     -10.502   2.583 -31.776  1.00  0.00     0.041 C 
HETATM    7  C   UNL     1     -10.844   3.854 -31.320  1.00  0.00     0.077 C 
HETATM    8  C   UNL     1      -9.875   4.690 -30.742  1.00  0.00     0.061 C 
HETATM    9  C   UNL     1      -8.519   4.298 -30.724  1.00  0.00     0.116 C 
HETATM   10  C   UNL     1      -8.581   0.930 -32.050  1.00  0.00     0.194 C 
HETATM   11  O   UNL     1      -9.180  -0.055 -32.422  1.00  0.00    -0.287 OA
HETATM   12  C   UNL     1      -5.492   2.754 -31.561  1.00  0.00     0.116 A 
HETATM   13  C   UNL     1      -4.492   1.786 -31.806  1.00  0.00     0.062 A 
HETATM   14  C   UNL     1      -4.850   0.453 -32.069  1.00  0.00     0.082 A 
ENDROOT
BRANCH   7  15
HETATM   15  S   UNL     1     -12.546   4.368 -31.368  1.00  0.00     0.241 S 
HETATM   16  O   UNL     1     -12.975   4.540 -29.998  1.00  0.00    -0.206 OA
HETATM   17  O   UNL     1     -12.675   5.417 -32.351  1.00  0.00    -0.206 OA
BRANCH  15  18
HETATM   18  N   UNL     1     -13.304   2.965 -31.921  1.00  0.00    -0.211 NA
HETATM   19  H   UNL     1     -13.818   2.549 -31.140  1.00  0.00     0.140 HD
BRANCH  18  20
HETATM   20  C   UNL     1     -14.057   3.002 -33.201  1.00  0.00     0.071 C 
HETATM   21  C   UNL     1     -13.132   2.914 -34.418  1.00  0.00     0.020 C 
HETATM   22  C   UNL     1     -12.433   1.562 -34.535  1.00  0.00     0.002 C 
HETATM   23  C   UNL     1     -13.440   0.417 -34.553  1.00  0.00     0.000 C 
HETATM   24  C   UNL     1     -14.373   0.469 -33.349  1.00  0.00     0.002 C 
HETATM   25  C   UNL     1     -15.055   1.831 -33.214  1.00  0.00     0.020 C 
ENDBRANCH  18  20
ENDBRANCH  15  18
ENDBRANCH   7  15
BRANCH   9  26
HETATM   26  N   UNL     1      -7.612   5.114 -29.929  1.00  0.00    -0.115 N 
HETATM   27  O   UNL     1      -7.175   4.606 -28.888  1.00  0.00    -0.532 OA
HETATM   28  O   UNL     1      -7.383   6.264 -30.322  1.00  0.00    -0.532 OA
ENDBRANCH   9  26
BRANCH  12  29
HETATM   29  N   UNL     1      -5.071   4.148 -31.603  1.00  0.00    -0.115 N 
HETATM   30  O   UNL     1      -5.416   4.801 -32.597  1.00  0.00    -0.532 OA
HETATM   31  O   UNL     1      -4.348   4.558 -30.688  1.00  0.00    -0.532 OA
ENDBRANCH  12  29
BRANCH  14  32
HETATM   32  S   UNL     1      -3.576  -0.726 -32.438  1.00  0.00     0.259 S 
HETATM   33  O   UNL     1      -2.858  -0.210 -33.580  1.00  0.00    -0.201 OA
HETATM   34  O   UNL     1      -2.912  -1.092 -31.209  1.00  0.00    -0.201 OA
BRANCH  32  35
HETATM   35  N   UNL     1      -4.466  -2.044 -32.999  1.00  0.00    -0.311 N 
HETATM   36  H   UNL     1      -5.378  -2.057 -32.535  1.00  0.00     0.172 HD
BRANCH  35  37
HETATM   37  C   UNL     1      -4.472  -2.369 -34.446  1.00  0.00     0.093 C 
HETATM   38  C   UNL     1      -4.112  -3.835 -34.703  1.00  0.00     0.026 C 
HETATM   39  C   UNL     1      -5.169  -4.804 -34.175  1.00  0.00     0.002 C 
HETATM   40  C   UNL     1      -6.547  -4.487 -34.750  1.00  0.00     0.000 C 
HETATM   41  C   UNL     1      -6.940  -3.033 -34.511  1.00  0.00     0.002 C 
HETATM   42  C   UNL     1      -5.869  -2.064 -35.013  1.00  0.00     0.026 C 
ENDBRANCH  35  37
ENDBRANCH  32  35
ENDBRANCH  14  32
TORSDOF 8
ENDMDL
MODEL 8
REMARK VINA RESULT:      -8.9      3.524     10.392
REMARK  8 active torsions:
REMARK  status: ('A' for Active; 'I' for Inactive)
REMARK    1  A    between atoms: C_7  and  S_8 
REMARK    2  A    between atoms: S_8  and  N_9 
REMARK    3  A    between atoms: N_9  and  C_10 
REMARK    4  A    between atoms: C_19  and  N_20 
REMARK    5  A    between atoms: C_25  and  N_26 
REMARK    6  A    between atoms: C_30  and  S_31 
REMARK    7  A    between atoms: S_31  and  N_32 
REMARK    8  A    between atoms: N_32  and  C_33 
ROOT
HETATM    1  C   UNL     1      -8.629   5.004 -31.272  1.00  0.00     0.041 A 
HETATM    2  C   UNL     1      -7.257   4.826 -31.330  1.00  0.00     0.030 A 
HETATM    3  C   UNL     1      -6.603   3.660 -31.783  1.00  0.00     0.025 A 
HETATM    4  C   UNL     1      -5.151   3.868 -31.642  1.00  0.00     0.025 C 
HETATM    5  C   UNL     1      -4.932   5.224 -31.319  1.00  0.00     0.030 C 
HETATM    6  C   UNL     1      -3.691   5.828 -31.199  1.00  0.00     0.041 C 
HETATM    7  C   UNL     1      -2.576   5.012 -31.372  1.00  0.00     0.077 C 
HETATM    8  C   UNL     1      -2.725   3.627 -31.548  1.00  0.00     0.061 C 
HETATM    9  C   UNL     1      -4.013   3.061 -31.670  1.00  0.00     0.116 C 
HETATM   10  C   UNL     1      -6.237   5.854 -31.071  1.00  0.00     0.194 C 
HETATM   11  O   UNL     1      -6.437   7.002 -30.741  1.00  0.00    -0.287 OA
HETATM   12  C   UNL     1      -7.426   2.677 -32.336  1.00  0.00     0.116 A 
HETATM   13  C   UNL     1      -8.833   2.810 -32.300  1.00  0.00     0.062 A 
HETATM   14  C   UNL     1      -9.417   3.970 -31.765  1.00  0.00     0.082 A 
ENDROOT
BRANCH   7  15
HETATM   15  S   UNL     1      -0.950   5.722 -31.251  1.00  0.00     0.241 S 
HETATM   16  O   UNL     1      -0.005   4.666 -31.536  1.00  0.00    -0.206 OA
HETATM   17  O   UNL     1      -0.945   6.972 -31.973  1.00  0.00    -0.206 OA
BRANCH  15  18
HETATM   18  N   UNL     1      -0.835   6.015 -29.593  1.00  0.00    -0.211 NA
HETATM   19  H   UNL     1      -0.080   5.436 -29.216  1.00  0.00     0.140 HD
BRANCH  18  20
HETATM   20  C   UNL     1      -0.837   7.417 -29.100  1.00  0.00     0.071 C 
HETATM   21  C   UNL     1      -1.757   7.602 -27.890  1.00  0.00     0.020 C 
HETATM   22  C   UNL     1      -1.261   6.862 -26.650  1.00  0.00     0.002 C 
HETATM   23  C   UNL     1       0.165   7.268 -26.296  1.00  0.00     0.000 C 
HETATM   24  C   UNL     1       1.111   7.087 -27.477  1.00  0.00     0.002 C 
HETATM   25  C   UNL     1       0.605   7.806 -28.728  1.00  0.00     0.020 C 
ENDBRANCH  18  20
ENDBRANCH  15  18
ENDBRANCH   7  15
BRANCH   9  26
HETATM   26  N   UNL     1      -4.094   1.608 -31.640  1.00  0.00    -0.115 N 
HETATM   27  O   UNL     1      -4.610   1.100 -30.636  1.00  0.00    -0.532 OA
HETATM   28  O   UNL     1      -3.604   0.987 -32.591  1.00  0.00    -0.532 OA
ENDBRANCH   9  26
BRANCH  12  29
HETATM   29  N   UNL     1      -6.896   1.608 -33.171  1.00  0.00    -0.115 N 
HETATM   30  O   UNL     1      -6.390   1.947 -34.249  1.00  0.00    -0.532 OA
HETATM   31  O   UNL     1      -7.050   0.444 -32.782  1.00  0.00    -0.532 OA
ENDBRANCH  12  29
BRANCH  14  32
HETATM   32  S   UNL     1     -11.185   4.138 -31.793  1.00  0.00     0.259 S 
HETATM   33  O   UNL     1     -11.619   4.130 -30.416  1.00  0.00    -0.201 OA
HETATM   34  O   UNL     1     -11.535   5.199 -32.708  1.00  0.00    -0.201 OA
BRANCH  32  35
HETATM   35  N   UNL     1     -11.669   2.662 -32.449  1.00  0.00    -0.311 N 
HETATM   36  H   UNL     1     -12.105   2.095 -31.718  1.00  0.00     0.172 HD
BRANCH  35  37
HETATM   37  C   UNL     1     -12.332   2.625 -33.775  1.00  0.00     0.093 C 
HETATM   38  C   UNL     1     -12.105   1.290 -34.489  1.00  0.00     0.026 C 
HETATM   39  C   UNL     1     -12.786   0.119 -33.782  1.00  0.00     0.002 C 
HETATM   40  C   UNL     1     -14.279   0.376 -33.599  1.00  0.00     0.000 C 
HETATM   41  C   UNL     1     -14.544   1.700 -32.890  1.00  0.00     0.002 C 
HETATM   42  C   UNL     1     -13.838   2.867 -33.580  1.00  0.00     0.026 C 
ENDBRANCH  35  37
ENDBRANCH  32  35
ENDBRANCH  14  32
TORSDOF 8
ENDMDL
MODEL 9
REMARK VINA RESULT:      -8.9      4.315      8.627
REMARK  8 active torsions:
REMARK  status: ('A' for Active; 'I' for Inactive)
REMARK    1  A    between atoms: C_7  and  S_8 
REMARK    2  A    between atoms: S_8  and  N_9 
REMARK    3  A    between atoms: N_9  and  C_10 
REMARK    4  A    between atoms: C_19  and  N_20 
REMARK    5  A    between atoms: C_25  and  N_26 
REMARK    6  A    between atoms: C_30  and  S_31 
REMARK    7  A    between atoms: S_31  and  N_32 
REMARK    8  A    between atoms: N_32  and  C_33 
ROOT
HETATM    1  C   UNL     1     -10.553   2.621 -31.946  1.00  0.00     0.041 A 
HETATM    2  C   UNL     1      -9.203   2.315 -31.959  1.00  0.00     0.030 A 
HETATM    3  C   UNL     1      -8.168   3.160 -31.499  1.00  0.00     0.025 A 
HETATM    4  C   UNL     1      -6.885   2.475 -31.730  1.00  0.00     0.025 C 
HETATM    5  C   UNL     1      -7.160   1.146 -32.117  1.00  0.00     0.030 C 
HETATM    6  C   UNL     1      -6.209   0.161 -32.330  1.00  0.00     0.041 C 
HETATM    7  C   UNL     1      -4.875   0.534 -32.190  1.00  0.00     0.077 C 
HETATM    8  C   UNL     1      -4.530   1.875 -31.952  1.00  0.00     0.061 C 
HETATM    9  C   UNL     1      -5.538   2.840 -31.736  1.00  0.00     0.116 C 
HETATM   10  C   UNL     1      -8.611   1.016 -32.314  1.00  0.00     0.194 C 
HETATM   11  O   UNL     1      -9.207   0.026 -32.676  1.00  0.00    -0.287 OA
HETATM   12  C   UNL     1      -8.580   4.333 -30.864  1.00  0.00     0.116 A 
HETATM   13  C   UNL     1      -9.946   4.692 -30.824  1.00  0.00     0.062 A 
HETATM   14  C   UNL     1     -10.916   3.834 -31.370  1.00  0.00     0.082 A 
ENDROOT
BRANCH   7  15
HETATM   15  S   UNL     1      -3.600  -0.682 -32.429  1.00  0.00     0.241 S 
HETATM   16  O   UNL     1      -2.803  -0.244 -33.553  1.00  0.00    -0.206 OA
HETATM   17  O   UNL     1      -3.015  -0.985 -31.145  1.00  0.00    -0.206 OA
BRANCH  15  18
HETATM   18  N   UNL     1      -4.496  -2.002 -32.979  1.00  0.00    -0.211 NA
HETATM   19  H   UNL     1      -5.442  -1.929 -32.598  1.00  0.00     0.140 HD
BRANCH  18  20
HETATM   20  C   UNL     1      -4.441  -2.370 -34.418  1.00  0.00     0.071 C 
HETATM   21  C   UNL     1      -4.077  -3.843 -34.624  1.00  0.00     0.020 C 
HETATM   22  C   UNL     1      -5.161  -4.796 -34.124  1.00  0.00     0.002 C 
HETATM   23  C   UNL     1      -6.508  -4.490 -34.769  1.00  0.00     0.000 C 
HETATM   24  C   UNL     1      -6.906  -3.031 -34.575  1.00  0.00     0.002 C 
HETATM   25  C   UNL     1      -5.812  -2.074 -35.051  1.00  0.00     0.020 C 
ENDBRANCH  18  20
ENDBRANCH  15  18
ENDBRANCH   7  15
BRANCH   9  26
HETATM   26  N   UNL     1      -5.114   4.233 -31.706  1.00  0.00    -0.115 N 
HETATM   27  O   UNL     1      -4.468   4.595 -30.714  1.00  0.00    -0.532 OA
HETATM   28  O   UNL     1      -5.468   4.959 -32.642  1.00  0.00    -0.532 OA
ENDBRANCH   9  26
BRANCH  12  29
HETATM   29  N   UNL     1      -7.681   5.108 -30.020  1.00  0.00    -0.115 N 
HETATM   30  O   UNL     1      -7.402   6.250 -30.410  1.00  0.00    -0.532 OA
HETATM   31  O   UNL     1      -7.209   4.553 -29.021  1.00  0.00    -0.532 OA
ENDBRANCH  12  29
BRANCH  14  32
HETATM   32  S   UNL     1     -12.630   4.280 -31.248  1.00  0.00     0.259 S 
HETATM   33  O   UNL     1     -12.941   4.329 -29.838  1.00  0.00    -0.201 OA
HETATM   34  O   UNL     1     -12.885   5.391 -32.134  1.00  0.00    -0.201 OA
BRANCH  32  35
HETATM   35  N   UNL     1     -13.397   2.905 -31.851  1.00  0.00    -0.311 N 
HETATM   36  H   UNL     1     -13.847   2.405 -31.081  1.00  0.00     0.172 HD
BRANCH  35  37
HETATM   37  C   UNL     1     -14.175   2.987 -33.111  1.00  0.00     0.093 C 
HETATM   38  C   UNL     1     -13.269   2.950 -34.344  1.00  0.00     0.026 C 
HETATM   39  C   UNL     1     -12.561   1.607 -34.518  1.00  0.00     0.002 C 
HETATM   40  C   UNL     1     -13.561   0.456 -34.560  1.00  0.00     0.000 C 
HETATM   41  C   UNL     1     -14.482   0.460 -33.343  1.00  0.00     0.002 C 
HETATM   42  C   UNL     1     -15.168   1.813 -33.154  1.00  0.00     0.026 C 
ENDBRANCH  35  37
ENDBRANCH  32  35
ENDBRANCH  14  32
TORSDOF 8
ENDMDL
MODEL 10
REMARK VINA RESULT:      -8.9      1.837      2.438
REMARK  8 active torsions:
REMARK  status: ('A' for Active; 'I' for Inactive)
REMARK    1  A    between atoms: C_7  and  S_8 
REMARK    2  A    between atoms: S_8  and  N_9 
REMARK    3  A    between atoms: N_9  and  C_10 
REMARK    4  A    between atoms: C_19  and  N_20 
REMARK    5  A    between atoms: C_25  and  N_26 
REMARK    6  A    between atoms: C_30  and  S_31 
REMARK    7  A    between atoms: S_31  and  N_32 
REMARK    8  A    between atoms: N_32  and  C_33 
ROOT
HETATM    1  C   UNL     1      -1.651   4.598 -31.188  1.00  0.00     0.041 A 
HETATM    2  C   UNL     1      -2.980   4.276 -31.409  1.00  0.00     0.030 A 
HETATM    3  C   UNL     1      -4.087   5.066 -31.031  1.00  0.00     0.025 A 
HETATM    4  C   UNL     1      -5.313   4.345 -31.411  1.00  0.00     0.025 C 
HETATM    5  C   UNL     1      -4.942   3.240 -32.208  1.00  0.00     0.030 C 
HETATM    6  C   UNL     1      -5.823   2.375 -32.836  1.00  0.00     0.041 C 
HETATM    7  C   UNL     1      -7.181   2.597 -32.623  1.00  0.00     0.077 C 
HETATM    8  C   UNL     1      -7.611   3.586 -31.724  1.00  0.00     0.061 C 
HETATM    9  C   UNL     1      -6.673   4.447 -31.113  1.00  0.00     0.116 C 
HETATM   10  C   UNL     1      -3.476   3.136 -32.196  1.00  0.00     0.194 C 
HETATM   11  O   UNL     1      -2.805   2.291 -32.746  1.00  0.00    -0.287 OA
HETATM   12  C   UNL     1      -3.784   6.329 -30.516  1.00  0.00     0.116 A 
HETATM   13  C   UNL     1      -2.444   6.706 -30.270  1.00  0.00     0.062 A 
HETATM   14  C   UNL     1      -1.394   5.834 -30.605  1.00  0.00     0.082 A 
ENDROOT
BRANCH   7  15
HETATM   15  S   UNL     1      -8.372   1.538 -33.413  1.00  0.00     0.241 S 
HETATM   16  O   UNL     1      -9.165   0.936 -32.364  1.00  0.00    -0.206 OA
HETATM   17  O   UNL     1      -8.970   2.264 -34.508  1.00  0.00    -0.206 OA
BRANCH  15  18
HETATM   18  N   UNL     1      -7.382   0.309 -34.011  1.00  0.00    -0.211 NA
HETATM   19  H   UNL     1      -6.482   0.721 -34.273  1.00  0.00     0.140 HD
BRANCH  18  20
HETATM   20  C   UNL     1      -7.275  -0.970 -33.262  1.00  0.00     0.071 C 
HETATM   21  C   UNL     1      -7.194  -2.180 -34.196  1.00  0.00     0.020 C 
HETATM   22  C   UNL     1      -5.902  -2.216 -35.010  1.00  0.00     0.002 C 
HETATM   23  C   UNL     1      -4.676  -2.163 -34.105  1.00  0.00     0.000 C 
HETATM   24  C   UNL     1      -4.720  -0.963 -33.166  1.00  0.00     0.002 C 
HETATM   25  C   UNL     1      -6.024  -0.910 -32.369  1.00  0.00     0.020 C 
ENDBRANCH  18  20
ENDBRANCH  15  18
ENDBRANCH   7  15
BRANCH   9  26
HETATM   26  N   UNL     1      -7.167   5.301 -30.043  1.00  0.00    -0.115 N 
HETATM   27  O   UNL     1      -7.899   6.242 -30.377  1.00  0.00    -0.532 OA
HETATM   28  O   UNL     1      -6.787   5.055 -28.892  1.00  0.00    -0.532 OA
ENDBRANCH   9  26
BRANCH  12  29
HETATM   29  N   UNL     1      -4.781   7.387 -30.434  1.00  0.00    -0.115 N 
HETATM   30  O   UNL     1      -5.090   7.769 -29.297  1.00  0.00    -0.532 OA
HETATM   31  O   UNL     1      -5.296   7.775 -31.488  1.00  0.00    -0.532 OA
ENDBRANCH  12  29
BRANCH  14  32
HETATM   32  S   UNL     1       0.281   6.362 -30.346  1.00  0.00     0.259 S 
HETATM   33  O   UNL     1       0.984   5.232 -29.782  1.00  0.00    -0.201 OA
HETATM   34  O   UNL     1       0.742   7.044 -31.532  1.00  0.00    -0.201 OA
BRANCH  32  35
HETATM   35  N   UNL     1       0.110   7.481 -29.096  1.00  0.00    -0.311 N 
HETATM   36  H   UNL     1      -0.658   8.119 -29.317  1.00  0.00     0.172 HD
BRANCH  35  37
HETATM   37  C   UNL     1       0.187   7.029 -27.686  1.00  0.00     0.093 C 
HETATM   38  C   UNL     1       1.489   7.476 -27.014  1.00  0.00     0.026 C 
HETATM   39  C   UNL     1       1.577   8.992 -26.848  1.00  0.00     0.002 C 
HETATM   40  C   UNL     1       0.373   9.536 -26.085  1.00  0.00     0.000 C 
HETATM   41  C   UNL     1      -0.944   9.111 -26.726  1.00  0.00     0.002 C 
HETATM   42  C   UNL     1      -1.020   7.596 -26.919  1.00  0.00     0.026 C 
ENDBRANCH  35  37
ENDBRANCH  32  35
ENDBRANCH  14  32
TORSDOF 8
ENDMDL
