MODEL 1
REMARK VINA RESULT:      -7.7      0.000      0.000
REMARK  5 active torsions:
REMARK  status: ('A' for Active; 'I' for Inactive)
REMARK    1  A    between atoms: C_4  and  N_5 
REMARK       I    between atoms: N_5  and  C_6 
REMARK       I    between atoms: C_6  and  N_7 
REMARK    2  A    between atoms: N_7  and  C_8 
REMARK    3  A    between atoms: C_11  and  O_12 
REMARK    4  A    between atoms: O_12  and  C_13 
REMARK    5  A    between atoms: C_13  and  C_14 
ROOT
HETATM    1  N   UNL     1     -10.964   2.992 -33.938  1.00  0.00    -0.293 N 
HETATM    2  C   UNL     1      -9.682   2.517 -33.887  1.00  0.00     0.326 C 
HETATM    3  N   UNL     1      -9.537   1.165 -33.764  1.00  0.00    -0.309 N 
HETATM    4  O   UNL     1      -8.774   3.343 -33.971  1.00  0.00    -0.247 OA
HETATM    5  H   UNL     1     -10.993   3.994 -34.049  1.00  0.00     0.172 HD
HETATM    6  H   UNL     1     -10.422   0.662 -33.715  1.00  0.00     0.170 HD
ENDROOT
BRANCH   3   7
HETATM    7  C   UNL     1      -8.357   0.405 -33.736  1.00  0.00     0.036 A 
HETATM    8  C   UNL     1      -7.674   0.067 -32.567  1.00  0.00     0.032 A 
HETATM    9  C   UNL     1      -6.484  -0.670 -32.621  1.00  0.00     0.039 A 
HETATM   10  C   UNL     1      -5.958  -1.071 -33.848  1.00  0.00     0.068 A 
HETATM   11  C   UNL     1      -6.651  -0.758 -35.016  1.00  0.00     0.039 A 
HETATM   12  C   UNL     1      -7.841  -0.025 -34.963  1.00  0.00     0.032 A 
BRANCH  10  13
HETATM   13  O   UNL     1      -4.797  -1.768 -34.033  1.00  0.00    -0.351 OA
BRANCH  13  14
HETATM   14  C   UNL     1      -4.818  -2.793 -35.030  1.00  0.00     0.179 C 
BRANCH  14  15
HETATM   15  C   UNL     1      -5.529  -4.029 -34.462  1.00  0.00     0.002 C 
HETATM   16  C   UNL     1      -6.586  -4.557 -35.435  1.00  0.00     0.011 C 
HETATM   17  C   UNL     1      -4.514  -5.124 -34.137  1.00  0.00     0.011 C 
ENDBRANCH  14  15
ENDBRANCH  13  14
ENDBRANCH  10  13
ENDBRANCH   3   7
BRANCH   1  18
HETATM   18  C   UNL     1     -12.176   2.301 -33.868  1.00  0.00     0.131 A 
HETATM   19  C   UNL     1     -13.116   2.748 -32.943  1.00  0.00     0.057 A 
HETATM   20  C   UNL     1     -14.345   2.089 -32.842  1.00  0.00    -0.057 A 
HETATM   21  C   UNL     1     -15.366   2.530 -31.836  1.00  0.00     0.048 C 
HETATM   22  C   UNL     1     -14.574   0.983 -33.656  1.00  0.00     0.026 A 
HETATM   23  C   UNL     1     -13.585   0.606 -34.549  1.00  0.00     0.119 A 
HETATM   24  N   UNL     1     -12.398   1.242 -34.676  1.00  0.00    -0.243 NA
ENDBRANCH   1  18
TORSDOF 5
ENDMDL
MODEL 2
REMARK VINA RESULT:      -7.5      7.172      9.774
REMARK  5 active torsions:
REMARK  status: ('A' for Active; 'I' for Inactive)
REMARK    1  A    between atoms: C_4  and  N_5 
REMARK       I    between atoms: N_5  and  C_6 
REMARK       I    between atoms: C_6  and  N_7 
REMARK    2  A    between atoms: N_7  and  C_8 
REMARK    3  A    between atoms: C_11  and  O_12 
REMARK    4  A    between atoms: O_12  and  C_13 
REMARK    5  A    between atoms: C_13  and  C_14 
ROOT
HETATM    1  N   UNL     1      -0.674   5.637 -32.501  1.00  0.00    -0.293 N 
HETATM    2  C   UNL     1      -1.708   4.907 -33.023  1.00  0.00     0.326 C 
HETATM    3  N   UNL     1      -2.380   4.096 -32.154  1.00  0.00    -0.309 N 
HETATM    4  O   UNL     1      -1.950   5.053 -34.219  1.00  0.00    -0.247 OA
HETATM    5  H   UNL     1      -0.239   6.226 -33.195  1.00  0.00     0.172 HD
HETATM    6  H   UNL     1      -2.017   4.127 -31.202  1.00  0.00     0.170 HD
ENDROOT
BRANCH   3   7
HETATM    7  C   UNL     1      -3.498   3.281 -32.396  1.00  0.00     0.036 A 
HETATM    8  C   UNL     1      -4.716   3.754 -32.883  1.00  0.00     0.032 A 
HETATM    9  C   UNL     1      -5.798   2.884 -33.072  1.00  0.00     0.039 A 
HETATM   10  C   UNL     1      -5.675   1.530 -32.767  1.00  0.00     0.068 A 
HETATM   11  C   UNL     1      -4.450   1.049 -32.305  1.00  0.00     0.039 A 
HETATM   12  C   UNL     1      -3.369   1.917 -32.120  1.00  0.00     0.032 A 
BRANCH  10  13
HETATM   13  O   UNL     1      -6.660   0.589 -32.882  1.00  0.00    -0.351 OA
BRANCH  13  14
HETATM   14  C   UNL     1      -6.234  -0.767 -33.035  1.00  0.00     0.179 C 
BRANCH  14  15
HETATM   15  C   UNL     1      -6.436  -1.192 -34.497  1.00  0.00     0.002 C 
HETATM   16  C   UNL     1      -6.789  -2.679 -34.599  1.00  0.00     0.011 C 
HETATM   17  C   UNL     1      -7.525  -0.344 -35.151  1.00  0.00     0.011 C 
ENDBRANCH  14  15
ENDBRANCH  13  14
ENDBRANCH  10  13
ENDBRANCH   3   7
BRANCH   1  18
HETATM   18  C   UNL     1      -0.177   5.676 -31.198  1.00  0.00     0.131 A 
HETATM   19  C   UNL     1      -0.249   6.891 -30.520  1.00  0.00     0.057 A 
HETATM   20  C   UNL     1       0.234   6.975 -29.210  1.00  0.00    -0.057 A 
HETATM   21  C   UNL     1       0.195   8.276 -28.466  1.00  0.00     0.048 C 
HETATM   22  C   UNL     1       0.799   5.839 -28.637  1.00  0.00     0.026 A 
HETATM   23  C   UNL     1       0.831   4.671 -29.381  1.00  0.00     0.119 A 
HETATM   24  N   UNL     1       0.351   4.564 -30.641  1.00  0.00    -0.243 NA
ENDBRANCH   1  18
TORSDOF 5
ENDMDL
MODEL 3
REMARK VINA RESULT:      -7.4      5.279      8.425
REMARK  5 active torsions:
REMARK  status: ('A' for Active; 'I' for Inactive)
REMARK    1  A    between atoms: C_4  and  N_5 
REMARK       I    between atoms: N_5  and  C_6 
REMARK       I    between atoms: C_6  and  N_7 
REMARK    2  A    between atoms: N_7  and  C_8 
REMARK    3  A    between atoms: C_11  and  O_12 
REMARK    4  A    between atoms: O_12  and  C_13 
REMARK    5  A    between atoms: C_13  and  C_14 
ROOT
HETATM    1  N   UNL     1      -7.118  -0.275 -32.893  1.00  0.00    -0.293 N 
HETATM    2  C   UNL     1      -6.891   1.069 -32.769  1.00  0.00     0.326 C 
HETATM    3  N   UNL     1      -5.681   1.525 -33.206  1.00  0.00    -0.309 N 
HETATM    4  O   UNL     1      -7.797   1.749 -32.291  1.00  0.00    -0.247 OA
HETATM    5  H   UNL     1      -8.038  -0.535 -32.569  1.00  0.00     0.172 HD
HETATM    6  H   UNL     1      -5.076   0.792 -33.572  1.00  0.00     0.170 HD
ENDROOT
BRANCH   3   7
HETATM    7  C   UNL     1      -5.200   2.844 -33.247  1.00  0.00     0.036 A 
HETATM    8  C   UNL     1      -5.807   3.873 -33.967  1.00  0.00     0.032 A 
HETATM    9  C   UNL     1      -5.251   5.159 -33.984  1.00  0.00     0.039 A 
HETATM   10  C   UNL     1      -4.075   5.428 -33.287  1.00  0.00     0.068 A 
HETATM   11  C   UNL     1      -3.480   4.408 -32.545  1.00  0.00     0.039 A 
HETATM   12  C   UNL     1      -4.036   3.125 -32.525  1.00  0.00     0.032 A 
BRANCH  10  13
HETATM   13  O   UNL     1      -3.423   6.629 -33.248  1.00  0.00    -0.351 OA
BRANCH  13  14
HETATM   14  C   UNL     1      -2.082   6.646 -33.745  1.00  0.00     0.179 C 
BRANCH  14  15
HETATM   15  C   UNL     1      -1.198   7.441 -32.774  1.00  0.00     0.002 C 
HETATM   16  C   UNL     1      -2.036   8.381 -31.903  1.00  0.00     0.011 C 
HETATM   17  C   UNL     1      -0.384   6.491 -31.897  1.00  0.00     0.011 C 
ENDBRANCH  14  15
ENDBRANCH  13  14
ENDBRANCH  10  13
ENDBRANCH   3   7
BRANCH   1  18
HETATM   18  C   UNL     1      -6.287  -1.279 -33.392  1.00  0.00     0.131 A 
HETATM   19  C   UNL     1      -6.876  -2.272 -34.170  1.00  0.00     0.057 A 
HETATM   20  C   UNL     1      -6.081  -3.296 -34.694  1.00  0.00    -0.057 A 
HETATM   21  C   UNL     1      -6.692  -4.393 -35.511  1.00  0.00     0.048 C 
HETATM   22  C   UNL     1      -4.721  -3.300 -34.393  1.00  0.00     0.026 A 
HETATM   23  C   UNL     1      -4.216  -2.273 -33.612  1.00  0.00     0.119 A 
HETATM   24  N   UNL     1      -4.965  -1.264 -33.113  1.00  0.00    -0.243 NA
ENDBRANCH   1  18
TORSDOF 5
ENDMDL
MODEL 4
REMARK VINA RESULT:      -7.4      5.723      8.129
REMARK  5 active torsions:
REMARK  status: ('A' for Active; 'I' for Inactive)
REMARK    1  A    between atoms: C_4  and  N_5 
REMARK       I    between atoms: N_5  and  C_6 
REMARK       I    between atoms: C_6  and  N_7 
REMARK    2  A    between atoms: N_7  and  C_8 
REMARK    3  A    between atoms: C_11  and  O_12 
REMARK    4  A    between atoms: O_12  and  C_13 
REMARK    5  A    between atoms: C_13  and  C_14 
ROOT
HETATM    1  N   UNL     1      -3.845   4.797 -30.648  1.00  0.00    -0.293 N 
HETATM    2  C   UNL     1      -4.620   3.744 -31.052  1.00  0.00     0.326 C 
HETATM    3  N   UNL     1      -4.547   3.405 -32.372  1.00  0.00    -0.309 N 
HETATM    4  O   UNL     1      -5.302   3.187 -30.193  1.00  0.00    -0.247 OA
HETATM    5  H   UNL     1      -3.936   4.976 -29.659  1.00  0.00     0.172 HD
HETATM    6  H   UNL     1      -3.916   3.995 -32.911  1.00  0.00     0.170 HD
ENDROOT
BRANCH   3   7
HETATM    7  C   UNL     1      -5.185   2.351 -33.047  1.00  0.00     0.036 A 
HETATM    8  C   UNL     1      -6.252   2.523 -33.929  1.00  0.00     0.032 A 
HETATM    9  C   UNL     1      -6.858   1.419 -34.544  1.00  0.00     0.039 A 
HETATM   10  C   UNL     1      -6.407   0.128 -34.275  1.00  0.00     0.068 A 
HETATM   11  C   UNL     1      -5.324  -0.046 -33.415  1.00  0.00     0.039 A 
HETATM   12  C   UNL     1      -4.717   1.056 -32.804  1.00  0.00     0.032 A 
BRANCH  10  13
HETATM   13  O   UNL     1      -6.929  -1.026 -34.789  1.00  0.00    -0.351 OA
BRANCH  13  14
HETATM   14  C   UNL     1      -6.660  -2.228 -34.063  1.00  0.00     0.179 C 
BRANCH  14  15
HETATM   15  C   UNL     1      -5.837  -3.174 -34.950  1.00  0.00     0.002 C 
HETATM   16  C   UNL     1      -4.489  -3.507 -34.305  1.00  0.00     0.011 C 
HETATM   17  C   UNL     1      -6.621  -4.455 -35.232  1.00  0.00     0.011 C 
ENDBRANCH  14  15
ENDBRANCH  13  14
ENDBRANCH  10  13
ENDBRANCH   3   7
BRANCH   1  18
HETATM   18  C   UNL     1      -2.983   5.607 -31.388  1.00  0.00     0.131 A 
HETATM   19  C   UNL     1      -1.682   5.760 -30.915  1.00  0.00     0.057 A 
HETATM   20  C   UNL     1      -0.783   6.560 -31.628  1.00  0.00    -0.057 A 
HETATM   21  C   UNL     1       0.615   6.766 -31.127  1.00  0.00     0.048 C 
HETATM   22  C   UNL     1      -1.233   7.201 -32.779  1.00  0.00     0.026 A 
HETATM   23  C   UNL     1      -2.542   6.994 -33.179  1.00  0.00     0.119 A 
HETATM   24  N   UNL     1      -3.421   6.209 -32.516  1.00  0.00    -0.243 NA
ENDBRANCH   1  18
TORSDOF 5
ENDMDL
MODEL 5
REMARK VINA RESULT:      -7.4      5.882      8.166
REMARK  5 active torsions:
REMARK  status: ('A' for Active; 'I' for Inactive)
REMARK    1  A    between atoms: C_4  and  N_5 
REMARK       I    between atoms: N_5  and  C_6 
REMARK       I    between atoms: C_6  and  N_7 
REMARK    2  A    between atoms: N_7  and  C_8 
REMARK    3  A    between atoms: C_11  and  O_12 
REMARK    4  A    between atoms: O_12  and  C_13 
REMARK    5  A    between atoms: C_13  and  C_14 
ROOT
HETATM    1  N   UNL     1      -3.970   4.901 -30.770  1.00  0.00    -0.293 N 
HETATM    2  C   UNL     1      -4.362   3.594 -30.871  1.00  0.00     0.326 C 
HETATM    3  N   UNL     1      -3.760   2.851 -31.844  1.00  0.00    -0.309 N 
HETATM    4  O   UNL     1      -5.209   3.200 -30.071  1.00  0.00    -0.247 OA
HETATM    5  H   UNL     1      -4.441   5.381 -30.018  1.00  0.00     0.172 HD
HETATM    6  H   UNL     1      -3.081   3.373 -32.396  1.00  0.00     0.170 HD
ENDROOT
BRANCH   3   7
HETATM    7  C   UNL     1      -3.928   1.489 -32.142  1.00  0.00     0.036 A 
HETATM    8  C   UNL     1      -3.139   0.470 -31.606  1.00  0.00     0.032 A 
HETATM    9  C   UNL     1      -3.348  -0.866 -31.974  1.00  0.00     0.039 A 
HETATM   10  C   UNL     1      -4.344  -1.197 -32.891  1.00  0.00     0.068 A 
HETATM   11  C   UNL     1      -5.152  -0.185 -33.408  1.00  0.00     0.039 A 
HETATM   12  C   UNL     1      -4.946   1.148 -33.038  1.00  0.00     0.032 A 
BRANCH  10  13
HETATM   13  O   UNL     1      -4.628  -2.454 -33.348  1.00  0.00    -0.351 OA
BRANCH  13  14
HETATM   14  C   UNL     1      -5.368  -2.539 -34.568  1.00  0.00     0.179 C 
BRANCH  14  15
HETATM   15  C   UNL     1      -5.365  -3.995 -35.054  1.00  0.00     0.002 C 
HETATM   16  C   UNL     1      -4.519  -4.884 -34.139  1.00  0.00     0.011 C 
HETATM   17  C   UNL     1      -6.794  -4.530 -35.138  1.00  0.00     0.011 C 
ENDBRANCH  14  15
ENDBRANCH  13  14
ENDBRANCH  10  13
ENDBRANCH   3   7
BRANCH   1  18
HETATM   18  C   UNL     1      -3.041   5.616 -31.529  1.00  0.00     0.131 A 
HETATM   19  C   UNL     1      -1.784   5.831 -30.970  1.00  0.00     0.057 A 
HETATM   20  C   UNL     1      -0.822   6.539 -31.696  1.00  0.00    -0.057 A 
HETATM   21  C   UNL     1       0.530   6.809 -31.108  1.00  0.00     0.048 C 
HETATM   22  C   UNL     1      -1.168   7.032 -32.952  1.00  0.00     0.026 A 
HETATM   23  C   UNL     1      -2.440   6.773 -33.433  1.00  0.00     0.119 A 
HETATM   24  N   UNL     1      -3.378   6.073 -32.755  1.00  0.00    -0.243 NA
ENDBRANCH   1  18
TORSDOF 5
ENDMDL
MODEL 6
REMARK VINA RESULT:      -7.3      2.549      8.066
REMARK  5 active torsions:
REMARK  status: ('A' for Active; 'I' for Inactive)
REMARK    1  A    between atoms: C_4  and  N_5 
REMARK       I    between atoms: N_5  and  C_6 
REMARK       I    between atoms: C_6  and  N_7 
REMARK    2  A    between atoms: N_7  and  C_8 
REMARK    3  A    between atoms: C_11  and  O_12 
REMARK    4  A    between atoms: O_12  and  C_13 
REMARK    5  A    between atoms: C_13  and  C_14 
ROOT
HETATM    1  N   UNL     1      -4.219  -1.000 -33.235  1.00  0.00    -0.293 N 
HETATM    2  C   UNL     1      -5.227  -0.081 -33.135  1.00  0.00     0.326 C 
HETATM    3  N   UNL     1      -6.498  -0.549 -33.309  1.00  0.00    -0.309 N 
HETATM    4  O   UNL     1      -4.906   1.080 -32.886  1.00  0.00    -0.247 OA
HETATM    5  H   UNL     1      -3.312  -0.587 -33.076  1.00  0.00     0.172 HD
HETATM    6  H   UNL     1      -6.542  -1.548 -33.504  1.00  0.00     0.170 HD
ENDROOT
BRANCH   3   7
HETATM    7  C   UNL     1      -7.714   0.148 -33.216  1.00  0.00     0.036 A 
HETATM    8  C   UNL     1      -8.304   0.526 -32.010  1.00  0.00     0.032 A 
HETATM    9  C   UNL     1      -9.536   1.194 -31.995  1.00  0.00     0.039 A 
HETATM   10  C   UNL     1     -10.195   1.485 -33.188  1.00  0.00     0.068 A 
HETATM   11  C   UNL     1      -9.595   1.131 -34.396  1.00  0.00     0.039 A 
HETATM   12  C   UNL     1      -8.364   0.467 -34.411  1.00  0.00     0.032 A 
BRANCH  10  13
HETATM   13  O   UNL     1     -11.407   2.106 -33.304  1.00  0.00    -0.351 OA
BRANCH  13  14
HETATM   14  C   UNL     1     -12.174   1.799 -34.471  1.00  0.00     0.179 C 
BRANCH  14  15
HETATM   15  C   UNL     1     -13.506   1.166 -34.042  1.00  0.00     0.002 C 
HETATM   16  C   UNL     1     -13.328  -0.313 -33.686  1.00  0.00     0.011 C 
HETATM   17  C   UNL     1     -14.099   1.928 -32.858  1.00  0.00     0.011 C 
ENDBRANCH  14  15
ENDBRANCH  13  14
ENDBRANCH  10  13
ENDBRANCH   3   7
BRANCH   1  18
HETATM   18  C   UNL     1      -4.281  -2.368 -33.506  1.00  0.00     0.131 A 
HETATM   19  C   UNL     1      -5.255  -2.802 -34.401  1.00  0.00     0.057 A 
HETATM   20  C   UNL     1      -5.351  -4.163 -34.705  1.00  0.00    -0.057 A 
HETATM   21  C   UNL     1      -6.408  -4.662 -35.643  1.00  0.00     0.048 C 
HETATM   22  C   UNL     1      -4.479  -5.047 -34.073  1.00  0.00     0.026 A 
HETATM   23  C   UNL     1      -3.540  -4.531 -33.196  1.00  0.00     0.119 A 
HETATM   24  N   UNL     1      -3.418  -3.217 -32.905  1.00  0.00    -0.243 NA
ENDBRANCH   1  18
TORSDOF 5
ENDMDL
MODEL 7
REMARK VINA RESULT:      -7.2      6.019      8.868
REMARK  5 active torsions:
REMARK  status: ('A' for Active; 'I' for Inactive)
REMARK    1  A    between atoms: C_4  and  N_5 
REMARK       I    between atoms: N_5  and  C_6 
REMARK       I    between atoms: C_6  and  N_7 
REMARK    2  A    between atoms: N_7  and  C_8 
REMARK    3  A    between atoms: C_11  and  O_12 
REMARK    4  A    between atoms: O_12  and  C_13 
REMARK    5  A    between atoms: C_13  and  C_14 
ROOT
HETATM    1  N   UNL     1      -4.025  -0.795 -31.961  1.00  0.00    -0.293 N 
HETATM    2  C   UNL     1      -3.435   0.407 -31.679  1.00  0.00     0.326 C 
HETATM    3  N   UNL     1      -3.961   1.504 -32.300  1.00  0.00    -0.309 N 
HETATM    4  O   UNL     1      -2.496   0.399 -30.885  1.00  0.00    -0.247 OA
HETATM    5  H   UNL     1      -3.598  -1.554 -31.452  1.00  0.00     0.172 HD
HETATM    6  H   UNL     1      -4.741   1.289 -32.917  1.00  0.00     0.170 HD
ENDROOT
BRANCH   3   7
HETATM    7  C   UNL     1      -3.593   2.853 -32.164  1.00  0.00     0.036 A 
HETATM    8  C   UNL     1      -4.090   3.700 -31.174  1.00  0.00     0.032 A 
HETATM    9  C   UNL     1      -3.699   5.045 -31.119  1.00  0.00     0.039 A 
HETATM   10  C   UNL     1      -2.811   5.559 -32.062  1.00  0.00     0.068 A 
HETATM   11  C   UNL     1      -2.292   4.708 -33.037  1.00  0.00     0.039 A 
HETATM   12  C   UNL     1      -2.679   3.365 -33.090  1.00  0.00     0.032 A 
BRANCH  10  13
HETATM   13  O   UNL     1      -2.375   6.853 -32.132  1.00  0.00    -0.351 OA
BRANCH  13  14
HETATM   14  C   UNL     1      -1.008   7.048 -32.502  1.00  0.00     0.179 C 
BRANCH  14  15
HETATM   15  C   UNL     1      -0.158   7.174 -31.229  1.00  0.00     0.002 C 
HETATM   16  C   UNL     1      -1.004   7.640 -30.041  1.00  0.00     0.011 C 
HETATM   17  C   UNL     1       0.518   5.842 -30.908  1.00  0.00     0.011 C 
ENDBRANCH  14  15
ENDBRANCH  13  14
ENDBRANCH  10  13
ENDBRANCH   3   7
BRANCH   1  18
HETATM   18  C   UNL     1      -5.094  -1.088 -32.810  1.00  0.00     0.131 A 
HETATM   19  C   UNL     1      -4.977  -2.212 -33.624  1.00  0.00     0.057 A 
HETATM   20  C   UNL     1      -6.024  -2.546 -34.487  1.00  0.00    -0.057 A 
HETATM   21  C   UNL     1      -5.914  -3.734 -35.395  1.00  0.00     0.048 C 
HETATM   22  C   UNL     1      -7.144  -1.719 -34.523  1.00  0.00     0.026 A 
HETATM   23  C   UNL     1      -7.179  -0.621 -33.680  1.00  0.00     0.119 A 
HETATM   24  N   UNL     1      -6.186  -0.292 -32.823  1.00  0.00    -0.243 NA
ENDBRANCH   1  18
TORSDOF 5
ENDMDL
MODEL 8
REMARK VINA RESULT:      -7.0      5.967      8.276
REMARK  5 active torsions:
REMARK  status: ('A' for Active; 'I' for Inactive)
REMARK    1  A    between atoms: C_4  and  N_5 
REMARK       I    between atoms: N_5  and  C_6 
REMARK       I    between atoms: C_6  and  N_7 
REMARK    2  A    between atoms: N_7  and  C_8 
REMARK    3  A    between atoms: C_11  and  O_12 
REMARK    4  A    between atoms: O_12  and  C_13 
REMARK    5  A    between atoms: C_13  and  C_14 
ROOT
HETATM    1  N   UNL     1      -6.716   0.488 -31.269  1.00  0.00    -0.293 N 
HETATM    2  C   UNL     1      -5.927   1.484 -30.763  1.00  0.00     0.326 C 
HETATM    3  N   UNL     1      -5.326   2.307 -31.672  1.00  0.00    -0.309 N 
HETATM    4  O   UNL     1      -5.837   1.562 -29.539  1.00  0.00    -0.247 OA
HETATM    5  H   UNL     1      -7.142  -0.065 -30.540  1.00  0.00     0.172 HD
HETATM    6  H   UNL     1      -5.536   2.069 -32.640  1.00  0.00     0.170 HD
ENDROOT
BRANCH   3   7
HETATM    7  C   UNL     1      -4.511   3.428 -31.442  1.00  0.00     0.036 A 
HETATM    8  C   UNL     1      -4.968   4.621 -30.883  1.00  0.00     0.032 A 
HETATM    9  C   UNL     1      -4.101   5.709 -30.711  1.00  0.00     0.039 A 
HETATM   10  C   UNL     1      -2.768   5.616 -31.105  1.00  0.00     0.068 A 
HETATM   11  C   UNL     1      -2.301   4.416 -31.639  1.00  0.00     0.039 A 
HETATM   12  C   UNL     1      -3.166   3.329 -31.808  1.00  0.00     0.032 A 
BRANCH  10  13
HETATM   13  O   UNL     1      -1.834   6.611 -31.014  1.00  0.00    -0.351 OA
BRANCH  13  14
HETATM   14  C   UNL     1      -0.687   6.491 -31.860  1.00  0.00     0.179 C 
BRANCH  14  15
HETATM   15  C   UNL     1       0.579   6.512 -30.992  1.00  0.00     0.002 C 
HETATM   16  C   UNL     1       0.335   7.251 -29.673  1.00  0.00     0.011 C 
HETATM   17  C   UNL     1       1.061   5.089 -30.720  1.00  0.00     0.011 C 
ENDBRANCH  14  15
ENDBRANCH  13  14
ENDBRANCH  10  13
ENDBRANCH   3   7
BRANCH   1  18
HETATM   18  C   UNL     1      -7.001   0.162 -32.596  1.00  0.00     0.131 A 
HETATM   19  C   UNL     1      -6.513  -1.050 -33.078  1.00  0.00     0.057 A 
HETATM   20  C   UNL     1      -6.778  -1.419 -34.400  1.00  0.00    -0.057 A 
HETATM   21  C   UNL     1      -6.241  -2.704 -34.955  1.00  0.00     0.048 C 
HETATM   22  C   UNL     1      -7.503  -0.541 -35.202  1.00  0.00     0.026 A 
HETATM   23  C   UNL     1      -7.951   0.643 -34.643  1.00  0.00     0.119 A 
HETATM   24  N   UNL     1      -7.723   1.010 -33.362  1.00  0.00    -0.243 NA
ENDBRANCH   1  18
TORSDOF 5
ENDMDL
MODEL 9
REMARK VINA RESULT:      -7.0      1.958      2.799
REMARK  5 active torsions:
REMARK  status: ('A' for Active; 'I' for Inactive)
REMARK    1  A    between atoms: C_4  and  N_5 
REMARK       I    between atoms: N_5  and  C_6 
REMARK       I    between atoms: C_6  and  N_7 
REMARK    2  A    between atoms: N_7  and  C_8 
REMARK    3  A    between atoms: C_11  and  O_12 
REMARK    4  A    between atoms: O_12  and  C_13 
REMARK    5  A    between atoms: C_13  and  C_14 
ROOT
HETATM    1  N   UNL     1     -11.965   1.632 -33.117  1.00  0.00    -0.293 N 
HETATM    2  C   UNL     1     -10.954   0.717 -33.233  1.00  0.00     0.326 C 
HETATM    3  N   UNL     1      -9.713   1.213 -33.509  1.00  0.00    -0.309 N 
HETATM    4  O   UNL     1     -11.246  -0.466 -33.066  1.00  0.00    -0.247 OA
HETATM    5  H   UNL     1     -12.847   1.195 -32.893  1.00  0.00     0.172 HD
HETATM    6  H   UNL     1      -9.690   2.227 -33.605  1.00  0.00     0.170 HD
ENDROOT
BRANCH   3   7
HETATM    7  C   UNL     1      -8.496   0.523 -33.634  1.00  0.00     0.036 A 
HETATM    8  C   UNL     1      -7.724   0.103 -32.550  1.00  0.00     0.032 A 
HETATM    9  C   UNL     1      -6.504  -0.556 -32.754  1.00  0.00     0.039 A 
HETATM   10  C   UNL     1      -6.039  -0.795 -34.046  1.00  0.00     0.068 A 
HETATM   11  C   UNL     1      -6.821  -0.400 -35.130  1.00  0.00     0.039 A 
HETATM   12  C   UNL     1      -8.040   0.255 -34.928  1.00  0.00     0.032 A 
BRANCH  10  13
HETATM   13  O   UNL     1      -4.858  -1.402 -34.373  1.00  0.00    -0.351 OA
BRANCH  13  14
HETATM   14  C   UNL     1      -4.417  -2.451 -33.509  1.00  0.00     0.179 C 
BRANCH  14  15
HETATM   15  C   UNL     1      -4.282  -3.746 -34.322  1.00  0.00     0.002 C 
HETATM   16  C   UNL     1      -3.609  -4.850 -33.502  1.00  0.00     0.011 C 
HETATM   17  C   UNL     1      -5.652  -4.211 -34.813  1.00  0.00     0.011 C 
ENDBRANCH  14  15
ENDBRANCH  13  14
ENDBRANCH  10  13
ENDBRANCH   3   7
BRANCH   1  18
HETATM   18  C   UNL     1     -11.933   3.020 -33.252  1.00  0.00     0.131 A 
HETATM   19  C   UNL     1     -12.499   3.567 -34.401  1.00  0.00     0.057 A 
HETATM   20  C   UNL     1     -12.493   4.954 -34.576  1.00  0.00    -0.057 A 
HETATM   21  C   UNL     1     -13.069   5.568 -35.816  1.00  0.00     0.048 C 
HETATM   22  C   UNL     1     -11.891   5.743 -33.600  1.00  0.00     0.026 A 
HETATM   23  C   UNL     1     -11.352   5.119 -32.487  1.00  0.00     0.119 A 
HETATM   24  N   UNL     1     -11.366   3.781 -32.290  1.00  0.00    -0.243 NA
ENDBRANCH   1  18
TORSDOF 5
ENDMDL
MODEL 10
REMARK VINA RESULT:      -6.9      6.892      9.013
REMARK  5 active torsions:
REMARK  status: ('A' for Active; 'I' for Inactive)
REMARK    1  A    between atoms: C_4  and  N_5 
REMARK       I    between atoms: N_5  and  C_6 
REMARK       I    between atoms: C_6  and  N_7 
REMARK    2  A    between atoms: N_7  and  C_8 
REMARK    3  A    between atoms: C_11  and  O_12 
REMARK    4  A    between atoms: O_12  and  C_13 
REMARK    5  A    between atoms: C_13  and  C_14 
ROOT
HETATM    1  N   UNL     1      -6.302   3.045 -34.152  1.00  0.00    -0.293 N 
HETATM    2  C   UNL     1      -5.415   4.031 -33.814  1.00  0.00     0.326 C 
HETATM    3  N   UNL     1      -4.580   3.766 -32.767  1.00  0.00    -0.309 N 
HETATM    4  O   UNL     1      -5.437   5.060 -34.487  1.00  0.00    -0.247 OA
HETATM    5  H   UNL     1      -6.871   3.304 -34.944  1.00  0.00     0.172 HD
HETATM    6  H   UNL     1      -4.726   2.849 -32.350  1.00  0.00     0.170 HD
ENDROOT
BRANCH   3   7
HETATM    7  C   UNL     1      -3.550   4.563 -32.239  1.00  0.00     0.036 A 
HETATM    8  C   UNL     1      -3.744   5.541 -31.264  1.00  0.00     0.032 A 
HETATM    9  C   UNL     1      -2.672   6.319 -30.807  1.00  0.00     0.039 A 
HETATM   10  C   UNL     1      -1.393   6.130 -31.327  1.00  0.00     0.068 A 
HETATM   11  C   UNL     1      -1.190   5.135 -32.282  1.00  0.00     0.039 A 
HETATM   12  C   UNL     1      -2.260   4.357 -32.736  1.00  0.00     0.032 A 
BRANCH  10  13
HETATM   13  O   UNL     1      -0.275   6.838 -30.983  1.00  0.00    -0.351 OA
BRANCH  13  14
HETATM   14  C   UNL     1      -0.364   7.641 -29.803  1.00  0.00     0.179 C 
BRANCH  14  15
HETATM   15  C   UNL     1       0.722   7.197 -28.813  1.00  0.00     0.002 C 
HETATM   16  C   UNL     1       1.280   8.388 -28.030  1.00  0.00     0.011 C 
HETATM   17  C   UNL     1       0.167   6.145 -27.853  1.00  0.00     0.011 C 
ENDBRANCH  14  15
ENDBRANCH  13  14
ENDBRANCH  10  13
ENDBRANCH   3   7
BRANCH   1  18
HETATM   18  C   UNL     1      -6.504   1.790 -33.576  1.00  0.00     0.131 A 
HETATM   19  C   UNL     1      -6.492   0.686 -34.425  1.00  0.00     0.057 A 
HETATM   20  C   UNL     1      -6.686  -0.592 -33.891  1.00  0.00    -0.057 A 
HETATM   21  C   UNL     1      -6.706  -1.796 -34.784  1.00  0.00     0.048 C 
HETATM   22  C   UNL     1      -6.914  -0.712 -32.522  1.00  0.00     0.026 A 
HETATM   23  C   UNL     1      -6.909   0.438 -31.751  1.00  0.00     0.119 A 
HETATM   24  N   UNL     1      -6.704   1.680 -32.244  1.00  0.00    -0.243 NA
ENDBRANCH   1  18
TORSDOF 5
ENDMDL
