MODEL 1
REMARK VINA RESULT:      -8.3      0.000      0.000
REMARK  3 active torsions:
REMARK  status: ('A' for Active; 'I' for Inactive)
REMARK    1  A    between atoms: C_3  and  N_4 
REMARK       I    between atoms: N_4  and  C_5 
REMARK    2  A    between atoms: C_5  and  C_6 
REMARK    3  A    between atoms: C_6  and  C_7 
ROOT
HETATM    1  C   UNL     1      -5.303   0.986 -31.544  1.00  0.00     0.286 C 
HETATM    2  N   UNL     1      -5.726   1.867 -32.718  1.00  0.00    -0.056 N 
HETATM    3  H   UNL     1      -5.419   2.823 -32.499  1.00  0.00     0.278 HD
HETATM    4  H   UNL     1      -5.141   1.602 -33.540  1.00  0.00     0.278 HD
HETATM    5  C   UNL     1      -7.182   1.909 -33.076  1.00  0.00     0.209 C 
HETATM    6  C   UNL     1      -8.022   2.134 -31.797  1.00  0.00     0.115 C 
HETATM    7  N   UNL     1      -7.632   1.254 -30.698  1.00  0.00    -0.353 N 
HETATM    8  C   UNL     1      -6.324   0.970 -30.396  1.00  0.00     0.249 C 
HETATM    9  O   UNL     1      -6.020   0.604 -29.266  1.00  0.00    -0.271 OA
HETATM   10  C   UNL     1      -7.582   0.667 -33.872  1.00  0.00     0.035 C 
HETATM   11  C   UNL     1      -9.081   0.653 -34.158  1.00  0.00     0.002 C 
HETATM   12  C   UNL     1      -9.885   0.758 -32.865  1.00  0.00     0.002 C 
HETATM   13  C   UNL     1      -9.524   2.021 -32.085  1.00  0.00     0.027 C 
HETATM   14  H   UNL     1      -8.223   1.246 -29.868  1.00  0.00     0.163 HD
ENDROOT
BRANCH   1  15
HETATM   15  C   UNL     1      -5.007  -0.475 -31.923  1.00  0.00     0.146 C 
BRANCH  15  16
HETATM   16  C   UNL     1      -3.859  -0.635 -32.876  1.00  0.00     0.224 C 
HETATM   17  N   UNL     1      -3.845  -1.593 -33.835  1.00  0.00    -0.325 N 
HETATM   18  H   UNL     1      -3.005  -1.547 -34.414  1.00  0.00     0.169 HD
HETATM   19  O   UNL     1      -2.921   0.173 -32.824  1.00  0.00    -0.273 OA
BRANCH  17  20
HETATM   20  C   UNL     1      -4.739  -2.609 -34.240  1.00  0.00     0.073 A 
HETATM   21  C   UNL     1      -6.003  -2.433 -34.798  1.00  0.00     0.033 A 
HETATM   22  C   UNL     1      -6.774  -3.546 -35.169  1.00  0.00     0.002 A 
HETATM   23  C   UNL     1      -6.295  -4.841 -34.984  1.00  0.00     0.003 A 
HETATM   24  C   UNL     1      -5.039  -5.034 -34.422  1.00  0.00     0.044 A 
HETATM   25  C   UNL     1      -4.281  -3.926 -34.056  1.00  0.00     0.143 A 
HETATM   26  F   UNL     1      -3.065  -4.123 -33.520  1.00  0.00    -0.204 F 
ENDBRANCH  17  20
ENDBRANCH  15  16
ENDBRANCH   1  15
TORSDOF 3
ENDMDL
MODEL 2
REMARK VINA RESULT:      -7.8      3.571      5.982
REMARK  3 active torsions:
REMARK  status: ('A' for Active; 'I' for Inactive)
REMARK    1  A    between atoms: C_3  and  N_4 
REMARK       I    between atoms: N_4  and  C_5 
REMARK    2  A    between atoms: C_5  and  C_6 
REMARK    3  A    between atoms: C_6  and  C_7 
ROOT
HETATM    1  C   UNL     1      -4.610   0.166 -31.223  1.00  0.00     0.286 C 
HETATM    2  N   UNL     1      -6.130   0.306 -31.178  1.00  0.00    -0.056 N 
HETATM    3  H   UNL     1      -6.472  -0.367 -30.480  1.00  0.00     0.278 HD
HETATM    4  H   UNL     1      -6.350   1.233 -30.755  1.00  0.00     0.278 HD
HETATM    5  C   UNL     1      -6.894   0.093 -32.452  1.00  0.00     0.209 C 
HETATM    6  C   UNL     1      -6.411  -1.209 -33.132  1.00  0.00     0.115 C 
HETATM    7  N   UNL     1      -4.955  -1.307 -33.204  1.00  0.00    -0.353 N 
HETATM    8  C   UNL     1      -4.129  -0.945 -32.169  1.00  0.00     0.249 C 
HETATM    9  O   UNL     1      -3.002  -1.420 -32.089  1.00  0.00    -0.271 OA
HETATM   10  C   UNL     1      -6.811   1.329 -33.347  1.00  0.00     0.035 C 
HETATM   11  C   UNL     1      -7.502   1.089 -34.686  1.00  0.00     0.002 C 
HETATM   12  C   UNL     1      -6.923  -0.135 -35.388  1.00  0.00     0.002 C 
HETATM   13  C   UNL     1      -7.042  -1.385 -34.518  1.00  0.00     0.027 C 
HETATM   14  H   UNL     1      -4.560  -2.068 -33.756  1.00  0.00     0.163 HD
ENDROOT
BRANCH   1  15
HETATM   15  C   UNL     1      -3.865   1.456 -31.604  1.00  0.00     0.146 C 
BRANCH  15  16
HETATM   16  C   UNL     1      -4.426   2.692 -30.964  1.00  0.00     0.224 C 
HETATM   17  N   UNL     1      -4.279   3.922 -31.518  1.00  0.00    -0.325 N 
HETATM   18  H   UNL     1      -4.743   4.649 -30.971  1.00  0.00     0.169 HD
HETATM   19  O   UNL     1      -5.097   2.579 -29.930  1.00  0.00    -0.273 OA
BRANCH  17  20
HETATM   20  C   UNL     1      -3.669   4.418 -32.691  1.00  0.00     0.073 A 
HETATM   21  C   UNL     1      -4.303   4.733 -33.891  1.00  0.00     0.033 A 
HETATM   22  C   UNL     1      -3.563   5.237 -34.972  1.00  0.00     0.002 A 
HETATM   23  C   UNL     1      -2.187   5.428 -34.868  1.00  0.00     0.003 A 
HETATM   24  C   UNL     1      -1.538   5.112 -33.680  1.00  0.00     0.044 A 
HETATM   25  C   UNL     1      -2.278   4.612 -32.614  1.00  0.00     0.143 A 
HETATM   26  F   UNL     1      -1.643   4.317 -31.468  1.00  0.00    -0.204 F 
ENDBRANCH  17  20
ENDBRANCH  15  16
ENDBRANCH   1  15
TORSDOF 3
ENDMDL
MODEL 3
REMARK VINA RESULT:      -7.7      1.991      2.573
REMARK  3 active torsions:
REMARK  status: ('A' for Active; 'I' for Inactive)
REMARK    1  A    between atoms: C_3  and  N_4 
REMARK       I    between atoms: N_4  and  C_5 
REMARK    2  A    between atoms: C_5  and  C_6 
REMARK    3  A    between atoms: C_6  and  C_7 
ROOT
HETATM    1  C   UNL     1      -6.471   0.463 -32.521  1.00  0.00     0.286 C 
HETATM    2  N   UNL     1      -6.527   1.819 -33.221  1.00  0.00    -0.056 N 
HETATM    3  H   UNL     1      -5.606   2.260 -33.091  1.00  0.00     0.278 HD
HETATM    4  H   UNL     1      -6.574   1.644 -34.248  1.00  0.00     0.278 HD
HETATM    5  C   UNL     1      -7.581   2.793 -32.784  1.00  0.00     0.209 C 
HETATM    6  C   UNL     1      -7.586   2.890 -31.241  1.00  0.00     0.115 C 
HETATM    7  N   UNL     1      -7.575   1.583 -30.588  1.00  0.00    -0.353 N 
HETATM    8  C   UNL     1      -6.800   0.537 -31.022  1.00  0.00     0.249 C 
HETATM    9  O   UNL     1      -6.490  -0.360 -30.246  1.00  0.00    -0.271 OA
HETATM   10  C   UNL     1      -8.937   2.431 -33.389  1.00  0.00     0.035 C 
HETATM   11  C   UNL     1     -10.036   3.357 -32.874  1.00  0.00     0.002 C 
HETATM   12  C   UNL     1     -10.094   3.342 -31.350  1.00  0.00     0.002 C 
HETATM   13  C   UNL     1      -8.754   3.747 -30.737  1.00  0.00     0.027 C 
HETATM   14  H   UNL     1      -7.714   1.559 -29.578  1.00  0.00     0.163 HD
ENDROOT
BRANCH   1  15
HETATM   15  C   UNL     1      -7.380  -0.610 -33.144  1.00  0.00     0.146 C 
BRANCH  15  16
HETATM   16  C   UNL     1      -7.175  -0.797 -34.619  1.00  0.00     0.224 C 
HETATM   17  N   UNL     1      -6.309  -1.715 -35.116  1.00  0.00    -0.325 N 
HETATM   18  H   UNL     1      -6.310  -1.733 -36.137  1.00  0.00     0.169 HD
HETATM   19  O   UNL     1      -7.863  -0.135 -35.407  1.00  0.00    -0.273 OA
BRANCH  17  20
HETATM   20  C   UNL     1      -5.441  -2.675 -34.548  1.00  0.00     0.073 A 
HETATM   21  C   UNL     1      -4.357  -2.425 -33.710  1.00  0.00     0.033 A 
HETATM   22  C   UNL     1      -3.592  -3.488 -33.206  1.00  0.00     0.002 A 
HETATM   23  C   UNL     1      -3.899  -4.807 -33.534  1.00  0.00     0.003 A 
HETATM   24  C   UNL     1      -4.973  -5.073 -34.375  1.00  0.00     0.044 A 
HETATM   25  C   UNL     1      -5.725  -4.013 -34.871  1.00  0.00     0.143 A 
HETATM   26  F   UNL     1      -6.766  -4.282 -35.677  1.00  0.00    -0.204 F 
ENDBRANCH  17  20
ENDBRANCH  15  16
ENDBRANCH   1  15
TORSDOF 3
ENDMDL
MODEL 4
REMARK VINA RESULT:      -7.7      3.701      6.147
REMARK  3 active torsions:
REMARK  status: ('A' for Active; 'I' for Inactive)
REMARK    1  A    between atoms: C_3  and  N_4 
REMARK       I    between atoms: N_4  and  C_5 
REMARK    2  A    between atoms: C_5  and  C_6 
REMARK    3  A    between atoms: C_6  and  C_7 
ROOT
HETATM    1  C   UNL     1      -4.564   0.271 -31.259  1.00  0.00     0.286 C 
HETATM    2  N   UNL     1      -6.085   0.409 -31.203  1.00  0.00    -0.056 N 
HETATM    3  H   UNL     1      -6.416  -0.237 -30.474  1.00  0.00     0.278 HD
HETATM    4  H   UNL     1      -6.303   1.352 -30.814  1.00  0.00     0.278 HD
HETATM    5  C   UNL     1      -6.862   0.143 -32.457  1.00  0.00     0.209 C 
HETATM    6  C   UNL     1      -6.383  -1.185 -33.090  1.00  0.00     0.115 C 
HETATM    7  N   UNL     1      -4.927  -1.282 -33.175  1.00  0.00    -0.353 N 
HETATM    8  C   UNL     1      -4.091  -0.876 -32.166  1.00  0.00     0.249 C 
HETATM    9  O   UNL     1      -2.961  -1.344 -32.079  1.00  0.00    -0.271 OA
HETATM   10  C   UNL     1      -6.793   1.342 -33.403  1.00  0.00     0.035 C 
HETATM   11  C   UNL     1      -7.500   1.045 -34.723  1.00  0.00     0.002 C 
HETATM   12  C   UNL     1      -6.924  -0.204 -35.382  1.00  0.00     0.002 C 
HETATM   13  C   UNL     1      -7.030  -1.419 -34.460  1.00  0.00     0.027 C 
HETATM   14  H   UNL     1      -4.537  -2.063 -33.700  1.00  0.00     0.163 HD
ENDROOT
BRANCH   1  15
HETATM   15  C   UNL     1      -3.828   1.547 -31.701  1.00  0.00     0.146 C 
BRANCH  15  16
HETATM   16  C   UNL     1      -4.285   2.788 -30.991  1.00  0.00     0.224 C 
HETATM   17  N   UNL     1      -3.947   4.030 -31.420  1.00  0.00    -0.325 N 
HETATM   18  H   UNL     1      -4.362   4.763 -30.842  1.00  0.00     0.169 HD
HETATM   19  O   UNL     1      -5.044   2.676 -30.019  1.00  0.00    -0.273 OA
BRANCH  17  20
HETATM   20  C   UNL     1      -3.191   4.539 -32.499  1.00  0.00     0.073 A 
HETATM   21  C   UNL     1      -1.829   4.832 -32.498  1.00  0.00     0.033 A 
HETATM   22  C   UNL     1      -1.209   5.318 -33.659  1.00  0.00     0.002 A 
HETATM   23  C   UNL     1      -1.939   5.518 -34.829  1.00  0.00     0.003 A 
HETATM   24  C   UNL     1      -3.300   5.237 -34.845  1.00  0.00     0.044 A 
HETATM   25  C   UNL     1      -3.908   4.757 -33.689  1.00  0.00     0.143 A 
HETATM   26  F   UNL     1      -5.222   4.480 -33.718  1.00  0.00    -0.204 F 
ENDBRANCH  17  20
ENDBRANCH  15  16
ENDBRANCH   1  15
TORSDOF 3
ENDMDL
MODEL 5
REMARK VINA RESULT:      -7.6      4.243      6.820
REMARK  3 active torsions:
REMARK  status: ('A' for Active; 'I' for Inactive)
REMARK    1  A    between atoms: C_3  and  N_4 
REMARK       I    between atoms: N_4  and  C_5 
REMARK    2  A    between atoms: C_5  and  C_6 
REMARK    3  A    between atoms: C_6  and  C_7 
ROOT
HETATM    1  C   UNL     1      -5.645   2.474 -32.529  1.00  0.00     0.286 C 
HETATM    2  N   UNL     1      -6.706   1.442 -32.151  1.00  0.00    -0.056 N 
HETATM    3  H   UNL     1      -6.790   1.463 -31.126  1.00  0.00     0.278 HD
HETATM    4  H   UNL     1      -7.628   1.800 -32.482  1.00  0.00     0.278 HD
HETATM    5  C   UNL     1      -6.488   0.020 -32.576  1.00  0.00     0.209 C 
HETATM    6  C   UNL     1      -5.046  -0.411 -32.216  1.00  0.00     0.115 C 
HETATM    7  N   UNL     1      -4.042   0.568 -32.623  1.00  0.00    -0.353 N 
HETATM    8  C   UNL     1      -4.212   1.921 -32.475  1.00  0.00     0.249 C 
HETATM    9  O   UNL     1      -3.236   2.661 -32.418  1.00  0.00    -0.271 OA
HETATM   10  C   UNL     1      -6.841  -0.166 -34.051  1.00  0.00     0.035 C 
HETATM   11  C   UNL     1      -6.532  -1.585 -34.519  1.00  0.00     0.002 C 
HETATM   12  C   UNL     1      -5.071  -1.939 -34.258  1.00  0.00     0.002 C 
HETATM   13  C   UNL     1      -4.720  -1.800 -32.777  1.00  0.00     0.027 C 
HETATM   14  H   UNL     1      -3.061   0.298 -32.544  1.00  0.00     0.163 HD
ENDROOT
BRANCH   1  15
HETATM   15  C   UNL     1      -5.846   3.109 -33.915  1.00  0.00     0.146 C 
BRANCH  15  16
HETATM   16  C   UNL     1      -6.306   4.536 -33.868  1.00  0.00     0.224 C 
HETATM   17  N   UNL     1      -5.440   5.570 -33.724  1.00  0.00    -0.325 N 
HETATM   18  H   UNL     1      -5.913   6.475 -33.738  1.00  0.00     0.169 HD
HETATM   19  O   UNL     1      -7.509   4.782 -34.027  1.00  0.00    -0.273 OA
BRANCH  17  20
HETATM   20  C   UNL     1      -4.037   5.682 -33.599  1.00  0.00     0.073 A 
HETATM   21  C   UNL     1      -3.327   6.021 -32.448  1.00  0.00     0.033 A 
HETATM   22  C   UNL     1      -1.925   6.076 -32.472  1.00  0.00     0.002 A 
HETATM   23  C   UNL     1      -1.219   5.796 -33.641  1.00  0.00     0.003 A 
HETATM   24  C   UNL     1      -1.912   5.463 -34.798  1.00  0.00     0.044 A 
HETATM   25  C   UNL     1      -3.302   5.413 -34.767  1.00  0.00     0.143 A 
HETATM   26  F   UNL     1      -3.962   5.082 -35.889  1.00  0.00    -0.204 F 
ENDBRANCH  17  20
ENDBRANCH  15  16
ENDBRANCH   1  15
TORSDOF 3
ENDMDL
MODEL 6
REMARK VINA RESULT:      -7.6      3.961      5.476
REMARK  3 active torsions:
REMARK  status: ('A' for Active; 'I' for Inactive)
REMARK    1  A    between atoms: C_3  and  N_4 
REMARK       I    between atoms: N_4  and  C_5 
REMARK    2  A    between atoms: C_5  and  C_6 
REMARK    3  A    between atoms: C_6  and  C_7 
ROOT
HETATM    1  C   UNL     1      -5.436   4.042 -32.168  1.00  0.00     0.286 C 
HETATM    2  N   UNL     1      -4.567   4.792 -31.160  1.00  0.00    -0.056 N 
HETATM    3  H   UNL     1      -5.163   5.509 -30.728  1.00  0.00     0.278 HD
HETATM    4  H   UNL     1      -4.357   4.139 -30.375  1.00  0.00     0.278 HD
HETATM    5  C   UNL     1      -3.320   5.457 -31.664  1.00  0.00     0.209 C 
HETATM    6  C   UNL     1      -3.650   6.279 -32.932  1.00  0.00     0.115 C 
HETATM    7  N   UNL     1      -4.446   5.532 -33.903  1.00  0.00    -0.353 N 
HETATM    8  C   UNL     1      -5.492   4.719 -33.546  1.00  0.00     0.249 C 
HETATM    9  O   UNL     1      -6.374   4.462 -34.357  1.00  0.00    -0.271 OA
HETATM   10  C   UNL     1      -2.201   4.435 -31.860  1.00  0.00     0.035 C 
HETATM   11  C   UNL     1      -0.959   5.085 -32.464  1.00  0.00     0.002 C 
HETATM   12  C   UNL     1      -1.294   5.788 -33.775  1.00  0.00     0.002 C 
HETATM   13  C   UNL     1      -2.380   6.845 -33.580  1.00  0.00     0.027 C 
HETATM   14  H   UNL     1      -4.590   5.955 -34.820  1.00  0.00     0.163 HD
ENDROOT
BRANCH   1  15
HETATM   15  C   UNL     1      -5.029   2.575 -32.387  1.00  0.00     0.146 C 
BRANCH  15  16
HETATM   16  C   UNL     1      -5.329   1.681 -31.221  1.00  0.00     0.224 C 
HETATM   17  N   UNL     1      -5.554   0.352 -31.369  1.00  0.00    -0.325 N 
HETATM   18  H   UNL     1      -5.715  -0.114 -30.475  1.00  0.00     0.169 HD
HETATM   19  O   UNL     1      -5.311   2.161 -30.079  1.00  0.00    -0.273 OA
BRANCH  17  20
HETATM   20  C   UNL     1      -5.575  -0.537 -32.467  1.00  0.00     0.073 A 
HETATM   21  C   UNL     1      -4.497  -1.256 -32.979  1.00  0.00     0.033 A 
HETATM   22  C   UNL     1      -4.677  -2.119 -34.071  1.00  0.00     0.002 A 
HETATM   23  C   UNL     1      -5.929  -2.273 -34.662  1.00  0.00     0.003 A 
HETATM   24  C   UNL     1      -7.013  -1.558 -34.167  1.00  0.00     0.044 A 
HETATM   25  C   UNL     1      -6.827  -0.703 -33.086  1.00  0.00     0.143 A 
HETATM   26  F   UNL     1      -7.883  -0.023 -32.611  1.00  0.00    -0.204 F 
ENDBRANCH  17  20
ENDBRANCH  15  16
ENDBRANCH   1  15
TORSDOF 3
ENDMDL
MODEL 7
REMARK VINA RESULT:      -7.5      2.732      3.641
REMARK  3 active torsions:
REMARK  status: ('A' for Active; 'I' for Inactive)
REMARK    1  A    between atoms: C_3  and  N_4 
REMARK       I    between atoms: N_4  and  C_5 
REMARK    2  A    between atoms: C_5  and  C_6 
REMARK    3  A    between atoms: C_6  and  C_7 
ROOT
HETATM    1  C   UNL     1      -4.583   1.831 -31.296  1.00  0.00     0.286 C 
HETATM    2  N   UNL     1      -3.476   2.821 -30.939  1.00  0.00    -0.056 N 
HETATM    3  H   UNL     1      -3.646   3.121 -29.970  1.00  0.00     0.278 HD
HETATM    4  H   UNL     1      -2.582   2.287 -30.878  1.00  0.00     0.278 HD
HETATM    5  C   UNL     1      -3.324   4.045 -31.792  1.00  0.00     0.209 C 
HETATM    6  C   UNL     1      -4.707   4.707 -31.995  1.00  0.00     0.115 C 
HETATM    7  N   UNL     1      -5.744   3.752 -32.378  1.00  0.00    -0.353 N 
HETATM    8  C   UNL     1      -5.862   2.509 -31.810  1.00  0.00     0.249 C 
HETATM    9  O   UNL     1      -6.940   1.926 -31.828  1.00  0.00    -0.271 OA
HETATM   10  C   UNL     1      -2.598   3.711 -33.095  1.00  0.00     0.035 C 
HETATM   11  C   UNL     1      -2.524   4.928 -34.013  1.00  0.00     0.002 C 
HETATM   12  C   UNL     1      -3.915   5.488 -34.291  1.00  0.00     0.002 C 
HETATM   13  C   UNL     1      -4.631   5.867 -32.995  1.00  0.00     0.027 C 
HETATM   14  H   UNL     1      -6.649   4.128 -32.661  1.00  0.00     0.163 HD
ENDROOT
BRANCH   1  15
HETATM   15  C   UNL     1      -4.173   0.768 -32.329  1.00  0.00     0.146 C 
BRANCH  15  16
HETATM   16  C   UNL     1      -3.261  -0.291 -31.781  1.00  0.00     0.224 C 
HETATM   17  N   UNL     1      -3.326  -1.582 -32.191  1.00  0.00    -0.325 N 
HETATM   18  H   UNL     1      -2.619  -2.166 -31.740  1.00  0.00     0.169 HD
HETATM   19  O   UNL     1      -2.380   0.038 -30.975  1.00  0.00    -0.273 OA
BRANCH  17  20
HETATM   20  C   UNL     1      -4.118  -2.292 -33.121  1.00  0.00     0.073 A 
HETATM   21  C   UNL     1      -5.157  -1.779 -33.894  1.00  0.00     0.033 A 
HETATM   22  C   UNL     1      -5.845  -2.608 -34.794  1.00  0.00     0.002 A 
HETATM   23  C   UNL     1      -5.506  -3.953 -34.929  1.00  0.00     0.003 A 
HETATM   24  C   UNL     1      -4.477  -4.482 -34.159  1.00  0.00     0.044 A 
HETATM   25  C   UNL     1      -3.801  -3.654 -33.269  1.00  0.00     0.143 A 
HETATM   26  F   UNL     1      -2.803  -4.173 -32.536  1.00  0.00    -0.204 F 
ENDBRANCH  17  20
ENDBRANCH  15  16
ENDBRANCH   1  15
TORSDOF 3
ENDMDL
MODEL 8
REMARK VINA RESULT:      -7.3      4.533      6.406
REMARK  3 active torsions:
REMARK  status: ('A' for Active; 'I' for Inactive)
REMARK    1  A    between atoms: C_3  and  N_4 
REMARK       I    between atoms: N_4  and  C_5 
REMARK    2  A    between atoms: C_5  and  C_6 
REMARK    3  A    between atoms: C_6  and  C_7 
ROOT
HETATM    1  C   UNL     1      -4.925   5.296 -33.467  1.00  0.00     0.286 C 
HETATM    2  N   UNL     1      -4.705   6.227 -32.276  1.00  0.00    -0.056 N 
HETATM    3  H   UNL     1      -5.196   7.105 -32.489  1.00  0.00     0.278 HD
HETATM    4  H   UNL     1      -5.236   5.838 -31.467  1.00  0.00     0.278 HD
HETATM    5  C   UNL     1      -3.293   6.558 -31.892  1.00  0.00     0.209 C 
HETATM    6  C   UNL     1      -2.498   6.967 -33.154  1.00  0.00     0.115 C 
HETATM    7  N   UNL     1      -2.686   6.042 -34.270  1.00  0.00    -0.353 N 
HETATM    8  C   UNL     1      -3.905   5.504 -34.597  1.00  0.00     0.249 C 
HETATM    9  O   UNL     1      -4.112   5.101 -35.737  1.00  0.00    -0.271 OA
HETATM   10  C   UNL     1      -2.662   5.411 -31.105  1.00  0.00     0.035 C 
HETATM   11  C   UNL     1      -1.195   5.696 -30.793  1.00  0.00     0.002 C 
HETATM   12  C   UNL     1      -0.411   5.979 -32.070  1.00  0.00     0.002 C 
HETATM   13  C   UNL     1      -1.009   7.155 -32.842  1.00  0.00     0.027 C 
HETATM   14  H   UNL     1      -2.093   6.166 -35.090  1.00  0.00     0.163 HD
ENDROOT
BRANCH   1  15
HETATM   15  C   UNL     1      -4.925   3.800 -33.110  1.00  0.00     0.146 C 
BRANCH  15  16
HETATM   16  C   UNL     1      -5.976   3.414 -32.112  1.00  0.00     0.224 C 
HETATM   17  N   UNL     1      -6.712   2.282 -32.240  1.00  0.00    -0.325 N 
HETATM   18  H   UNL     1      -7.362   2.154 -31.463  1.00  0.00     0.169 HD
HETATM   19  O   UNL     1      -6.136   4.120 -31.107  1.00  0.00    -0.273 OA
BRANCH  17  20
HETATM   20  C   UNL     1      -6.756   1.224 -33.175  1.00  0.00     0.073 A 
HETATM   21  C   UNL     1      -7.212   1.293 -34.490  1.00  0.00     0.033 A 
HETATM   22  C   UNL     1      -7.177   0.156 -35.312  1.00  0.00     0.002 A 
HETATM   23  C   UNL     1      -6.691  -1.059 -34.831  1.00  0.00     0.003 A 
HETATM   24  C   UNL     1      -6.239  -1.146 -33.519  1.00  0.00     0.044 A 
HETATM   25  C   UNL     1      -6.278  -0.014 -32.711  1.00  0.00     0.143 A 
HETATM   26  F   UNL     1      -5.832  -0.107 -31.448  1.00  0.00    -0.204 F 
ENDBRANCH  17  20
ENDBRANCH  15  16
ENDBRANCH   1  15
TORSDOF 3
ENDMDL
MODEL 9
REMARK VINA RESULT:      -7.2      4.031      5.624
REMARK  3 active torsions:
REMARK  status: ('A' for Active; 'I' for Inactive)
REMARK    1  A    between atoms: C_3  and  N_4 
REMARK       I    between atoms: N_4  and  C_5 
REMARK    2  A    between atoms: C_5  and  C_6 
REMARK    3  A    between atoms: C_6  and  C_7 
ROOT
HETATM    1  C   UNL     1      -4.885   4.291 -30.825  1.00  0.00     0.286 C 
HETATM    2  N   UNL     1      -3.369   4.100 -30.804  1.00  0.00    -0.056 N 
HETATM    3  H   UNL     1      -3.044   4.399 -29.875  1.00  0.00     0.278 HD
HETATM    4  H   UNL     1      -3.180   3.074 -30.813  1.00  0.00     0.278 HD
HETATM    5  C   UNL     1      -2.555   4.814 -31.841  1.00  0.00     0.209 C 
HETATM    6  C   UNL     1      -2.993   6.297 -31.910  1.00  0.00     0.115 C 
HETATM    7  N   UNL     1      -4.443   6.459 -31.972  1.00  0.00    -0.353 N 
HETATM    8  C   UNL     1      -5.312   5.714 -31.217  1.00  0.00     0.249 C 
HETATM    9  O   UNL     1      -6.435   6.142 -30.971  1.00  0.00    -0.271 OA
HETATM   10  C   UNL     1      -2.623   4.084 -33.182  1.00  0.00     0.035 C 
HETATM   11  C   UNL     1      -1.878   4.854 -34.269  1.00  0.00     0.002 C 
HETATM   12  C   UNL     1      -2.412   6.278 -34.394  1.00  0.00     0.002 C 
HETATM   13  C   UNL     1      -2.306   7.031 -33.068  1.00  0.00     0.027 C 
HETATM   14  H   UNL     1      -4.805   7.395 -32.155  1.00  0.00     0.163 HD
ENDROOT
BRANCH   1  15
HETATM   15  C   UNL     1      -5.634   3.311 -31.743  1.00  0.00     0.146 C 
BRANCH  15  16
HETATM   16  C   UNL     1      -6.778   2.607 -31.075  1.00  0.00     0.224 C 
HETATM   17  N   UNL     1      -7.395   1.538 -31.636  1.00  0.00    -0.325 N 
HETATM   18  H   UNL     1      -8.133   1.161 -31.040  1.00  0.00     0.169 HD
HETATM   19  O   UNL     1      -7.131   2.977 -29.947  1.00  0.00    -0.273 OA
BRANCH  17  20
HETATM   20  C   UNL     1      -7.223   0.805 -32.832  1.00  0.00     0.073 A 
HETATM   21  C   UNL     1      -7.612   1.195 -34.112  1.00  0.00     0.033 A 
HETATM   22  C   UNL     1      -7.357   0.363 -35.213  1.00  0.00     0.002 A 
HETATM   23  C   UNL     1      -6.716  -0.863 -35.049  1.00  0.00     0.003 A 
HETATM   24  C   UNL     1      -6.329  -1.270 -33.778  1.00  0.00     0.044 A 
HETATM   25  C   UNL     1      -6.586  -0.441 -32.691  1.00  0.00     0.143 A 
HETATM   26  F   UNL     1      -6.200  -0.840 -31.469  1.00  0.00    -0.204 F 
ENDBRANCH  17  20
ENDBRANCH  15  16
ENDBRANCH   1  15
TORSDOF 3
ENDMDL
MODEL 10
REMARK VINA RESULT:      -7.2     13.735     15.400
REMARK  3 active torsions:
REMARK  status: ('A' for Active; 'I' for Inactive)
REMARK    1  A    between atoms: C_3  and  N_4 
REMARK       I    between atoms: N_4  and  C_5 
REMARK    2  A    between atoms: C_5  and  C_6 
REMARK    3  A    between atoms: C_6  and  C_7 
ROOT
HETATM    1  C   UNL     1      -5.659 -13.328 -38.816  1.00  0.00     0.286 C 
HETATM    2  N   UNL     1      -5.177 -12.731 -37.495  1.00  0.00    -0.056 N 
HETATM    3  H   UNL     1      -5.492 -11.752 -37.478  1.00  0.00     0.278 HD
HETATM    4  H   UNL     1      -5.723 -13.178 -36.727  1.00  0.00     0.278 HD
HETATM    5  C   UNL     1      -3.706 -12.758 -37.205  1.00  0.00     0.209 C 
HETATM    6  C   UNL     1      -2.927 -12.245 -38.439  1.00  0.00     0.115 C 
HETATM    7  N   UNL     1      -3.372 -12.858 -39.688  1.00  0.00    -0.353 N 
HETATM    8  C   UNL     1      -4.694 -13.077 -39.985  1.00  0.00     0.249 C 
HETATM    9  O   UNL     1      -5.052 -13.181 -41.153  1.00  0.00    -0.271 OA
HETATM   10  C   UNL     1      -3.272 -14.145 -36.730  1.00  0.00     0.035 C 
HETATM   11  C   UNL     1      -1.761 -14.211 -36.526  1.00  0.00     0.002 C 
HETATM   12  C   UNL     1      -1.020 -13.812 -37.797  1.00  0.00     0.002 C 
HETATM   13  C   UNL     1      -1.414 -12.408 -38.255  1.00  0.00     0.027 C 
HETATM   14  H   UNL     1      -2.821 -12.674 -40.526  1.00  0.00     0.163 HD
ENDROOT
BRANCH   1  15
HETATM   15  C   UNL     1      -5.941 -14.839 -38.762  1.00  0.00     0.146 C 
BRANCH  15  16
HETATM   16  C   UNL     1      -6.844 -15.249 -37.636  1.00  0.00     0.224 C 
HETATM   17  N   UNL     1      -8.195 -15.256 -37.761  1.00  0.00    -0.325 N 
HETATM   18  H   UNL     1      -8.658 -15.586 -36.913  1.00  0.00     0.169 HD
HETATM   19  O   UNL     1      -6.338 -15.651 -36.580  1.00  0.00    -0.273 OA
BRANCH  17  20
HETATM   20  C   UNL     1      -9.100 -14.952 -38.802  1.00  0.00     0.073 A 
HETATM   21  C   UNL     1      -9.697 -15.857 -39.678  1.00  0.00     0.033 A 
HETATM   22  C   UNL     1     -10.595 -15.405 -40.657  1.00  0.00     0.002 A 
HETATM   23  C   UNL     1     -10.904 -14.052 -40.773  1.00  0.00     0.003 A 
HETATM   24  C   UNL     1     -10.312 -13.136 -39.912  1.00  0.00     0.044 A 
HETATM   25  C   UNL     1      -9.421 -13.591 -38.945  1.00  0.00     0.143 A 
HETATM   26  F   UNL     1      -8.861 -12.699 -38.112  1.00  0.00    -0.204 F 
ENDBRANCH  17  20
ENDBRANCH  15  16
ENDBRANCH   1  15
TORSDOF 3
ENDMDL
