MODEL 1
REMARK VINA RESULT:      -9.2      0.000      0.000
REMARK  4 active torsions:
REMARK  status: ('A' for Active; 'I' for Inactive)
REMARK    1  A    between atoms: C_4  and  C_5 
REMARK    2  A    between atoms: C_8  and  C_9 
REMARK    3  A    between atoms: C_9  and  N_10 
REMARK    4  A    between atoms: N_10  and  C_11 
ROOT
HETATM    1  C   UNL     1      -6.819   3.343 -33.357  1.00  0.00     0.158 C 
ENDROOT
BRANCH   1   2
HETATM    2  C   UNL     1      -6.599   1.867 -33.567  1.00  0.00    -0.041 A 
HETATM    3  C   UNL     1      -7.006   1.246 -34.754  1.00  0.00     0.009 A 
HETATM    4  C   UNL     1      -6.756  -0.115 -34.965  1.00  0.00     0.013 A 
HETATM    5  C   UNL     1      -6.099  -0.894 -33.999  1.00  0.00    -0.026 A 
HETATM    6  C   UNL     1      -5.731  -0.269 -32.796  1.00  0.00     0.013 A 
HETATM    7  C   UNL     1      -5.983   1.091 -32.579  1.00  0.00     0.009 A 
BRANCH   5   8
HETATM    8  C   UNL     1      -5.779  -2.312 -34.250  1.00  0.00    -0.026 A 
HETATM    9  C   UNL     1      -4.498  -2.823 -33.972  1.00  0.00     0.012 A 
HETATM   10  C   UNL     1      -4.193  -4.170 -34.189  1.00  0.00     0.001 A 
HETATM   11  C   UNL     1      -5.165  -5.033 -34.687  1.00  0.00     0.000 A 
HETATM   12  C   UNL     1      -6.439  -4.550 -34.970  1.00  0.00     0.001 A 
HETATM   13  C   UNL     1      -6.742  -3.201 -34.754  1.00  0.00     0.012 A 
ENDBRANCH   5   8
ENDBRANCH   1   2
BRANCH   1  14
HETATM   14  N   UNL     1      -5.719   3.907 -32.589  1.00  0.00    -0.384 N 
HETATM   15  H   UNL     1      -6.072   4.525 -31.857  1.00  0.00     0.160 HD
BRANCH  14  16
HETATM   16  C   UNL     1      -4.546   4.367 -33.182  1.00  0.00     0.060 A 
HETATM   17  C   UNL     1      -3.293   4.557 -32.583  1.00  0.00     0.106 A 
HETATM   18  C   UNL     1      -2.208   5.090 -33.267  1.00  0.00     0.158 A 
HETATM   19  N   UNL     1      -2.775   4.337 -31.326  1.00  0.00    -0.346 N 
HETATM   20  N   UNL     1      -1.089   5.180 -32.501  1.00  0.00    -0.224 NA
HETATM   21  N   UNL     1      -2.345   5.470 -34.575  1.00  0.00    -0.349 N 
HETATM   22  C   UNL     1      -1.460   4.719 -31.328  1.00  0.00     0.210 A 
HETATM   23  H   UNL     1      -1.529   5.860 -35.039  1.00  0.00     0.167 HD
HETATM   24  C   UNL     1      -3.517   5.344 -35.191  1.00  0.00     0.092 A 
HETATM   25  C   UNL     1      -4.615   4.812 -34.520  1.00  0.00     0.048 A 
HETATM   26  H   UNL     1      -3.265   3.964 -30.524  1.00  0.00     0.167 HD
ENDBRANCH  14  16
ENDBRANCH   1  14
TORSDOF 4
ENDMDL
MODEL 2
REMARK VINA RESULT:      -9.1      1.451      2.153
REMARK  4 active torsions:
REMARK  status: ('A' for Active; 'I' for Inactive)
REMARK    1  A    between atoms: C_4  and  C_5 
REMARK    2  A    between atoms: C_8  and  C_9 
REMARK    3  A    between atoms: C_9  and  N_10 
REMARK    4  A    between atoms: N_10  and  C_11 
ROOT
HETATM    1  C   UNL     1      -4.478   3.021 -31.661  1.00  0.00     0.158 C 
ENDROOT
BRANCH   1   2
HETATM    2  C   UNL     1      -4.642   1.666 -32.299  1.00  0.00    -0.041 A 
HETATM    3  C   UNL     1      -3.670   0.673 -32.130  1.00  0.00     0.009 A 
HETATM    4  C   UNL     1      -3.850  -0.599 -32.685  1.00  0.00     0.013 A 
HETATM    5  C   UNL     1      -5.001  -0.915 -33.425  1.00  0.00    -0.026 A 
HETATM    6  C   UNL     1      -5.950   0.101 -33.622  1.00  0.00     0.013 A 
HETATM    7  C   UNL     1      -5.772   1.376 -33.073  1.00  0.00     0.009 A 
BRANCH   5   8
HETATM    8  C   UNL     1      -5.218  -2.275 -33.953  1.00  0.00    -0.026 A 
HETATM    9  C   UNL     1      -4.216  -3.257 -33.855  1.00  0.00     0.012 A 
HETATM   10  C   UNL     1      -4.422  -4.553 -34.335  1.00  0.00     0.001 A 
HETATM   11  C   UNL     1      -5.637  -4.894 -34.923  1.00  0.00     0.000 A 
HETATM   12  C   UNL     1      -6.643  -3.939 -35.033  1.00  0.00     0.001 A 
HETATM   13  C   UNL     1      -6.435  -2.641 -34.553  1.00  0.00     0.012 A 
ENDBRANCH   5   8
ENDBRANCH   1   2
BRANCH   1  14
HETATM   14  N   UNL     1      -3.079   3.253 -31.335  1.00  0.00    -0.384 N 
HETATM   15  H   UNL     1      -2.939   3.245 -30.323  1.00  0.00     0.160 HD
BRANCH  14  16
HETATM   16  C   UNL     1      -2.302   4.203 -31.992  1.00  0.00     0.060 A 
HETATM   17  C   UNL     1      -1.364   5.086 -31.436  1.00  0.00     0.106 A 
HETATM   18  C   UNL     1      -0.696   6.042 -32.189  1.00  0.00     0.158 A 
HETATM   19  N   UNL     1      -0.864   5.299 -30.170  1.00  0.00    -0.346 N 
HETATM   20  N   UNL     1       0.173   6.786 -31.455  1.00  0.00    -0.224 NA
HETATM   21  N   UNL     1      -0.957   6.161 -33.527  1.00  0.00    -0.349 N 
HETATM   22  C   UNL     1       0.050   6.317 -30.234  1.00  0.00     0.210 A 
HETATM   23  H   UNL     1      -0.450   6.876 -34.043  1.00  0.00     0.167 HD
HETATM   24  C   UNL     1      -1.857   5.374 -34.109  1.00  0.00     0.092 A 
HETATM   25  C   UNL     1      -2.537   4.410 -33.368  1.00  0.00     0.048 A 
HETATM   26  H   UNL     1      -1.117   4.803 -29.326  1.00  0.00     0.167 HD
ENDBRANCH  14  16
ENDBRANCH   1  14
TORSDOF 4
ENDMDL
MODEL 3
REMARK VINA RESULT:      -9.0      4.165      6.372
REMARK  4 active torsions:
REMARK  status: ('A' for Active; 'I' for Inactive)
REMARK    1  A    between atoms: C_4  and  C_5 
REMARK    2  A    between atoms: C_8  and  C_9 
REMARK    3  A    between atoms: C_9  and  N_10 
REMARK    4  A    between atoms: N_10  and  C_11 
ROOT
HETATM    1  C   UNL     1      -8.190   2.876 -32.947  1.00  0.00     0.158 C 
ENDROOT
BRANCH   1   2
HETATM    2  C   UNL     1      -7.555   1.551 -33.283  1.00  0.00    -0.041 A 
HETATM    3  C   UNL     1      -6.986   0.757 -32.281  1.00  0.00     0.009 A 
HETATM    4  C   UNL     1      -6.440  -0.494 -32.591  1.00  0.00     0.013 A 
HETATM    5  C   UNL     1      -6.443  -0.985 -33.907  1.00  0.00    -0.026 A 
HETATM    6  C   UNL     1      -6.980  -0.161 -34.910  1.00  0.00     0.013 A 
HETATM    7  C   UNL     1      -7.523   1.092 -34.605  1.00  0.00     0.009 A 
BRANCH   5   8
HETATM    8  C   UNL     1      -5.927  -2.330 -34.221  1.00  0.00    -0.026 A 
HETATM    9  C   UNL     1      -4.600  -2.683 -33.917  1.00  0.00     0.012 A 
HETATM   10  C   UNL     1      -4.108  -3.962 -34.194  1.00  0.00     0.001 A 
HETATM   11  C   UNL     1      -4.937  -4.915 -34.778  1.00  0.00     0.000 A 
HETATM   12  C   UNL     1      -6.254  -4.590 -35.089  1.00  0.00     0.001 A 
HETATM   13  C   UNL     1      -6.743  -3.309 -34.813  1.00  0.00     0.012 A 
ENDBRANCH   5   8
ENDBRANCH   1   2
BRANCH   1  14
HETATM   14  N   UNL     1      -9.607   2.694 -32.671  1.00  0.00    -0.384 N 
HETATM   15  H   UNL     1      -9.749   1.921 -32.017  1.00  0.00     0.160 HD
BRANCH  14  16
HETATM   16  C   UNL     1     -10.582   2.765 -33.662  1.00  0.00     0.060 A 
HETATM   17  C   UNL     1     -11.656   1.891 -33.881  1.00  0.00     0.106 A 
HETATM   18  C   UNL     1     -12.529   2.029 -34.952  1.00  0.00     0.158 A 
HETATM   19  N   UNL     1     -12.143   0.773 -33.240  1.00  0.00    -0.346 N 
HETATM   20  N   UNL     1     -13.502   1.080 -34.971  1.00  0.00    -0.224 NA
HETATM   21  N   UNL     1     -12.346   3.040 -35.856  1.00  0.00    -0.349 N 
HETATM   22  C   UNL     1     -13.244   0.329 -33.924  1.00  0.00     0.210 A 
HETATM   23  H   UNL     1     -13.004   3.105 -36.628  1.00  0.00     0.167 HD
HETATM   24  C   UNL     1     -11.327   3.885 -35.721  1.00  0.00     0.092 A 
HETATM   25  C   UNL     1     -10.442   3.760 -34.653  1.00  0.00     0.048 A 
HETATM   26  H   UNL     1     -11.766   0.336 -32.410  1.00  0.00     0.167 HD
ENDBRANCH  14  16
ENDBRANCH   1  14
TORSDOF 4
ENDMDL
MODEL 4
REMARK VINA RESULT:      -8.7      4.985      7.325
REMARK  4 active torsions:
REMARK  status: ('A' for Active; 'I' for Inactive)
REMARK    1  A    between atoms: C_4  and  C_5 
REMARK    2  A    between atoms: C_8  and  C_9 
REMARK    3  A    between atoms: C_9  and  N_10 
REMARK    4  A    between atoms: N_10  and  C_11 
ROOT
HETATM    1  C   UNL     1      -9.577   2.456 -33.488  1.00  0.00     0.158 C 
ENDROOT
BRANCH   1   2
HETATM    2  C   UNL     1      -8.676   1.262 -33.679  1.00  0.00    -0.041 A 
HETATM    3  C   UNL     1      -8.041   0.664 -32.585  1.00  0.00     0.009 A 
HETATM    4  C   UNL     1      -7.245  -0.473 -32.761  1.00  0.00     0.013 A 
HETATM    5  C   UNL     1      -7.056  -1.042 -34.031  1.00  0.00    -0.026 A 
HETATM    6  C   UNL     1      -7.666  -0.409 -35.127  1.00  0.00     0.013 A 
HETATM    7  C   UNL     1      -8.459   0.732 -34.956  1.00  0.00     0.009 A 
BRANCH   5   8
HETATM    8  C   UNL     1      -6.270  -2.277 -34.206  1.00  0.00    -0.026 A 
HETATM    9  C   UNL     1      -6.864  -3.446 -34.713  1.00  0.00     0.012 A 
HETATM   10  C   UNL     1      -6.122  -4.616 -34.900  1.00  0.00     0.001 A 
HETATM   11  C   UNL     1      -4.766  -4.637 -34.583  1.00  0.00     0.000 A 
HETATM   12  C   UNL     1      -4.156  -3.493 -34.079  1.00  0.00     0.001 A 
HETATM   13  C   UNL     1      -4.901  -2.324 -33.891  1.00  0.00     0.012 A 
ENDBRANCH   5   8
ENDBRANCH   1   2
BRANCH   1  14
HETATM   14  N   UNL     1     -10.739   2.349 -34.357  1.00  0.00    -0.384 N 
HETATM   15  H   UNL     1     -10.744   3.105 -35.044  1.00  0.00     0.160 HD
BRANCH  14  16
HETATM   16  C   UNL     1     -12.006   2.025 -33.882  1.00  0.00     0.060 A 
HETATM   17  C   UNL     1     -12.850   2.803 -33.075  1.00  0.00     0.106 A 
HETATM   18  C   UNL     1     -14.072   2.341 -32.605  1.00  0.00     0.158 A 
HETATM   19  N   UNL     1     -12.783   4.070 -32.541  1.00  0.00    -0.346 N 
HETATM   20  N   UNL     1     -14.732   3.258 -31.849  1.00  0.00    -0.224 NA
HETATM   21  N   UNL     1     -14.487   1.074 -32.912  1.00  0.00    -0.349 N 
HETATM   22  C   UNL     1     -13.928   4.296 -31.823  1.00  0.00     0.210 A 
HETATM   23  H   UNL     1     -15.386   0.772 -32.546  1.00  0.00     0.167 HD
HETATM   24  C   UNL     1     -13.718   0.275 -33.648  1.00  0.00     0.092 A 
HETATM   25  C   UNL     1     -12.489   0.722 -34.126  1.00  0.00     0.048 A 
HETATM   26  H   UNL     1     -12.028   4.734 -32.644  1.00  0.00     0.167 HD
ENDBRANCH  14  16
ENDBRANCH   1  14
TORSDOF 4
ENDMDL
MODEL 5
REMARK VINA RESULT:      -8.7      4.518      7.650
REMARK  4 active torsions:
REMARK  status: ('A' for Active; 'I' for Inactive)
REMARK    1  A    between atoms: C_4  and  C_5 
REMARK    2  A    between atoms: C_8  and  C_9 
REMARK    3  A    between atoms: C_9  and  N_10 
REMARK    4  A    between atoms: N_10  and  C_11 
ROOT
HETATM    1  C   UNL     1      -5.325  -0.049 -32.476  1.00  0.00     0.158 C 
ENDROOT
BRANCH   1   2
HETATM    2  C   UNL     1      -6.781   0.126 -32.823  1.00  0.00    -0.041 A 
HETATM    3  C   UNL     1      -7.741   0.292 -31.818  1.00  0.00     0.009 A 
HETATM    4  C   UNL     1      -9.084   0.503 -32.147  1.00  0.00     0.013 A 
HETATM    5  C   UNL     1      -9.509   0.550 -33.485  1.00  0.00    -0.026 A 
HETATM    6  C   UNL     1      -8.544   0.342 -34.484  1.00  0.00     0.013 A 
HETATM    7  C   UNL     1      -7.199   0.126 -34.159  1.00  0.00     0.009 A 
BRANCH   5   8
HETATM    8  C   UNL     1     -10.914   0.837 -33.830  1.00  0.00    -0.026 A 
HETATM    9  C   UNL     1     -11.250   1.954 -34.617  1.00  0.00     0.012 A 
HETATM   10  C   UNL     1     -12.577   2.222 -34.965  1.00  0.00     0.001 A 
HETATM   11  C   UNL     1     -13.595   1.375 -34.534  1.00  0.00     0.000 A 
HETATM   12  C   UNL     1     -13.286   0.265 -33.755  1.00  0.00     0.001 A 
HETATM   13  C   UNL     1     -11.958  -0.001 -33.405  1.00  0.00     0.012 A 
ENDBRANCH   5   8
ENDBRANCH   1   2
BRANCH   1  14
HETATM   14  N   UNL     1      -4.636  -0.748 -33.551  1.00  0.00    -0.384 N 
HETATM   15  H   UNL     1      -4.973  -0.428 -34.461  1.00  0.00     0.160 HD
BRANCH  14  16
HETATM   16  C   UNL     1      -4.369  -2.113 -33.510  1.00  0.00     0.060 A 
HETATM   17  C   UNL     1      -4.994  -3.137 -34.235  1.00  0.00     0.106 A 
HETATM   18  C   UNL     1      -4.685  -4.479 -34.057  1.00  0.00     0.158 A 
HETATM   19  N   UNL     1      -5.974  -3.182 -35.202  1.00  0.00    -0.346 N 
HETATM   20  N   UNL     1      -5.402  -5.302 -34.866  1.00  0.00    -0.224 NA
HETATM   21  N   UNL     1      -3.747  -4.846 -33.131  1.00  0.00    -0.349 N 
HETATM   22  C   UNL     1      -6.178  -4.491 -35.549  1.00  0.00     0.210 A 
HETATM   23  H   UNL     1      -3.551  -5.839 -33.028  1.00  0.00     0.167 HD
HETATM   24  C   UNL     1      -3.139  -3.924 -32.389  1.00  0.00     0.092 A 
HETATM   25  C   UNL     1      -3.439  -2.574 -32.554  1.00  0.00     0.048 A 
HETATM   26  H   UNL     1      -6.472  -2.397 -35.599  1.00  0.00     0.167 HD
ENDBRANCH  14  16
ENDBRANCH   1  14
TORSDOF 4
ENDMDL
MODEL 6
REMARK VINA RESULT:      -8.5      1.656      2.758
REMARK  4 active torsions:
REMARK  status: ('A' for Active; 'I' for Inactive)
REMARK    1  A    between atoms: C_4  and  C_5 
REMARK    2  A    between atoms: C_8  and  C_9 
REMARK    3  A    between atoms: C_9  and  N_10 
REMARK    4  A    between atoms: N_10  and  C_11 
ROOT
HETATM    1  C   UNL     1      -3.497   2.553 -31.352  1.00  0.00     0.158 C 
ENDROOT
BRANCH   1   2
HETATM    2  C   UNL     1      -3.882   1.278 -32.056  1.00  0.00    -0.041 A 
HETATM    3  C   UNL     1      -3.047   0.156 -32.010  1.00  0.00     0.009 A 
HETATM    4  C   UNL     1      -3.431  -1.041 -32.625  1.00  0.00     0.013 A 
HETATM    5  C   UNL     1      -4.655  -1.151 -33.305  1.00  0.00    -0.026 A 
HETATM    6  C   UNL     1      -5.466  -0.007 -33.379  1.00  0.00     0.013 A 
HETATM    7  C   UNL     1      -5.083   1.194 -32.770  1.00  0.00     0.009 A 
BRANCH   5   8
HETATM    8  C   UNL     1      -5.088  -2.431 -33.896  1.00  0.00    -0.026 A 
HETATM    9  C   UNL     1      -6.338  -2.549 -34.529  1.00  0.00     0.012 A 
HETATM   10  C   UNL     1      -6.747  -3.753 -35.109  1.00  0.00     0.001 A 
HETATM   11  C   UNL     1      -5.911  -4.865 -35.068  1.00  0.00     0.000 A 
HETATM   12  C   UNL     1      -4.669  -4.774 -34.446  1.00  0.00     0.001 A 
HETATM   13  C   UNL     1      -4.262  -3.568 -33.865  1.00  0.00     0.012 A 
ENDBRANCH   5   8
ENDBRANCH   1   2
BRANCH   1  14
HETATM   14  N   UNL     1      -4.137   3.691 -31.994  1.00  0.00    -0.384 N 
HETATM   15  H   UNL     1      -4.635   3.395 -32.835  1.00  0.00     0.160 HD
BRANCH  14  16
HETATM   16  C   UNL     1      -3.512   4.928 -32.129  1.00  0.00     0.060 A 
HETATM   17  C   UNL     1      -2.599   5.331 -33.115  1.00  0.00     0.106 A 
HETATM   18  C   UNL     1      -1.987   6.577 -33.105  1.00  0.00     0.158 A 
HETATM   19  N   UNL     1      -2.063   4.743 -34.239  1.00  0.00    -0.346 N 
HETATM   20  N   UNL     1      -1.146   6.765 -34.155  1.00  0.00    -0.224 NA
HETATM   21  N   UNL     1      -2.255   7.461 -32.095  1.00  0.00    -0.349 N 
HETATM   22  C   UNL     1      -1.208   5.637 -34.827  1.00  0.00     0.210 A 
HETATM   23  H   UNL     1      -1.783   8.362 -32.122  1.00  0.00     0.167 HD
HETATM   24  C   UNL     1      -3.088   7.128 -31.113  1.00  0.00     0.092 A 
HETATM   25  C   UNL     1      -3.709   5.881 -31.108  1.00  0.00     0.048 A 
HETATM   26  H   UNL     1      -2.252   3.813 -34.587  1.00  0.00     0.167 HD
ENDBRANCH  14  16
ENDBRANCH   1  14
TORSDOF 4
ENDMDL
MODEL 7
REMARK VINA RESULT:      -8.4      4.184      6.206
REMARK  4 active torsions:
REMARK  status: ('A' for Active; 'I' for Inactive)
REMARK    1  A    between atoms: C_4  and  C_5 
REMARK    2  A    between atoms: C_8  and  C_9 
REMARK    3  A    between atoms: C_9  and  N_10 
REMARK    4  A    between atoms: N_10  and  C_11 
ROOT
HETATM    1  C   UNL     1      -8.283   2.924 -33.449  1.00  0.00     0.158 C 
ENDROOT
BRANCH   1   2
HETATM    2  C   UNL     1      -7.758   1.525 -33.651  1.00  0.00    -0.041 A 
HETATM    3  C   UNL     1      -7.815   0.915 -34.909  1.00  0.00     0.009 A 
HETATM    4  C   UNL     1      -7.284  -0.364 -35.103  1.00  0.00     0.013 A 
HETATM    5  C   UNL     1      -6.684  -1.072 -34.048  1.00  0.00    -0.026 A 
HETATM    6  C   UNL     1      -6.669  -0.466 -32.781  1.00  0.00     0.013 A 
HETATM    7  C   UNL     1      -7.204   0.812 -32.582  1.00  0.00     0.009 A 
BRANCH   5   8
HETATM    8  C   UNL     1      -6.067  -2.393 -34.268  1.00  0.00    -0.026 A 
HETATM    9  C   UNL     1      -4.709  -2.613 -33.976  1.00  0.00     0.012 A 
HETATM   10  C   UNL     1      -4.121  -3.867 -34.163  1.00  0.00     0.001 A 
HETATM   11  C   UNL     1      -4.882  -4.928 -34.647  1.00  0.00     0.000 A 
HETATM   12  C   UNL     1      -6.227  -4.734 -34.944  1.00  0.00     0.001 A 
HETATM   13  C   UNL     1      -6.814  -3.478 -34.758  1.00  0.00     0.012 A 
ENDBRANCH   5   8
ENDBRANCH   1   2
BRANCH   1  14
HETATM   14  N   UNL     1      -9.622   2.878 -32.883  1.00  0.00    -0.384 N 
HETATM   15  H   UNL     1      -9.663   2.209 -32.111  1.00  0.00     0.160 HD
BRANCH  14  16
HETATM   16  C   UNL     1     -10.771   2.886 -33.668  1.00  0.00     0.060 A 
HETATM   17  C   UNL     1     -11.349   3.971 -34.342  1.00  0.00     0.106 A 
HETATM   18  C   UNL     1     -12.543   3.869 -35.043  1.00  0.00     0.158 A 
HETATM   19  N   UNL     1     -11.013   5.296 -34.514  1.00  0.00    -0.346 N 
HETATM   20  N   UNL     1     -12.918   5.037 -35.628  1.00  0.00    -0.224 NA
HETATM   21  N   UNL     1     -13.213   2.676 -35.080  1.00  0.00    -0.349 N 
HETATM   22  C   UNL     1     -11.975   5.887 -35.290  1.00  0.00     0.210 A 
HETATM   23  H   UNL     1     -14.086   2.644 -35.600  1.00  0.00     0.167 HD
HETATM   24  C   UNL     1     -12.733   1.616 -34.435  1.00  0.00     0.092 A 
HETATM   25  C   UNL     1     -11.538   1.702 -33.726  1.00  0.00     0.048 A 
HETATM   26  H   UNL     1     -10.204   5.771 -34.139  1.00  0.00     0.167 HD
ENDBRANCH  14  16
ENDBRANCH   1  14
TORSDOF 4
ENDMDL
MODEL 8
REMARK VINA RESULT:      -8.3      1.212      2.017
REMARK  4 active torsions:
REMARK  status: ('A' for Active; 'I' for Inactive)
REMARK    1  A    between atoms: C_4  and  C_5 
REMARK    2  A    between atoms: C_8  and  C_9 
REMARK    3  A    between atoms: C_9  and  N_10 
REMARK    4  A    between atoms: N_10  and  C_11 
ROOT
HETATM    1  C   UNL     1      -7.072   3.278 -32.897  1.00  0.00     0.158 C 
ENDROOT
BRANCH   1   2
HETATM    2  C   UNL     1      -6.812   1.827 -33.208  1.00  0.00    -0.041 A 
HETATM    3  C   UNL     1      -7.039   1.319 -34.492  1.00  0.00     0.009 A 
HETATM    4  C   UNL     1      -6.751  -0.017 -34.788  1.00  0.00     0.013 A 
HETATM    5  C   UNL     1      -6.231  -0.885 -33.813  1.00  0.00    -0.026 A 
HETATM    6  C   UNL     1      -6.046  -0.375 -32.518  1.00  0.00     0.013 A 
HETATM    7  C   UNL     1      -6.338   0.960 -32.216  1.00  0.00     0.009 A 
BRANCH   5   8
HETATM    8  C   UNL     1      -5.867  -2.275 -34.145  1.00  0.00    -0.026 A 
HETATM    9  C   UNL     1      -4.566  -2.756 -33.912  1.00  0.00     0.012 A 
HETATM   10  C   UNL     1      -4.217  -4.077 -34.205  1.00  0.00     0.001 A 
HETATM   11  C   UNL     1      -5.167  -4.946 -34.735  1.00  0.00     0.000 A 
HETATM   12  C   UNL     1      -6.460  -4.494 -34.976  1.00  0.00     0.001 A 
HETATM   13  C   UNL     1      -6.807  -3.170 -34.684  1.00  0.00     0.012 A 
ENDBRANCH   5   8
ENDBRANCH   1   2
BRANCH   1  14
HETATM   14  N   UNL     1      -6.187   3.728 -31.833  1.00  0.00    -0.384 N 
HETATM   15  H   UNL     1      -6.693   3.792 -30.948  1.00  0.00     0.160 HD
BRANCH  14  16
HETATM   16  C   UNL     1      -5.254   4.745 -32.010  1.00  0.00     0.060 A 
HETATM   17  C   UNL     1      -4.559   5.085 -33.180  1.00  0.00     0.106 A 
HETATM   18  C   UNL     1      -3.595   6.083 -33.217  1.00  0.00     0.158 A 
HETATM   19  N   UNL     1      -4.566   4.628 -34.480  1.00  0.00    -0.346 N 
HETATM   20  N   UNL     1      -3.053   6.254 -34.452  1.00  0.00    -0.224 NA
HETATM   21  N   UNL     1      -3.279   6.769 -32.075  1.00  0.00    -0.349 N 
HETATM   22  C   UNL     1      -3.657   5.358 -35.198  1.00  0.00     0.210 A 
HETATM   23  H   UNL     1      -2.565   7.490 -32.143  1.00  0.00     0.167 HD
HETATM   24  C   UNL     1      -3.880   6.473 -30.926  1.00  0.00     0.092 A 
HETATM   25  C   UNL     1      -4.848   5.473 -30.872  1.00  0.00     0.048 A 
HETATM   26  H   UNL     1      -5.134   3.882 -34.859  1.00  0.00     0.167 HD
ENDBRANCH  14  16
ENDBRANCH   1  14
TORSDOF 4
ENDMDL
MODEL 9
REMARK VINA RESULT:      -8.2      1.491      2.262
REMARK  4 active torsions:
REMARK  status: ('A' for Active; 'I' for Inactive)
REMARK    1  A    between atoms: C_4  and  C_5 
REMARK    2  A    between atoms: C_8  and  C_9 
REMARK    3  A    between atoms: C_9  and  N_10 
REMARK    4  A    between atoms: N_10  and  C_11 
ROOT
HETATM    1  C   UNL     1      -7.273   3.170 -33.799  1.00  0.00     0.158 C 
ENDROOT
BRANCH   1   2
HETATM    2  C   UNL     1      -6.827   1.743 -33.983  1.00  0.00    -0.041 A 
HETATM    3  C   UNL     1      -5.745   1.233 -33.256  1.00  0.00     0.009 A 
HETATM    4  C   UNL     1      -5.365  -0.107 -33.394  1.00  0.00     0.013 A 
HETATM    5  C   UNL     1      -6.049  -0.973 -34.262  1.00  0.00    -0.026 A 
HETATM    6  C   UNL     1      -7.107  -0.440 -35.016  1.00  0.00     0.013 A 
HETATM    7  C   UNL     1      -7.487   0.901 -34.885  1.00  0.00     0.009 A 
BRANCH   5   8
HETATM    8  C   UNL     1      -5.688  -2.400 -34.358  1.00  0.00    -0.026 A 
HETATM    9  C   UNL     1      -6.597  -3.342 -34.873  1.00  0.00     0.012 A 
HETATM   10  C   UNL     1      -6.256  -4.692 -34.985  1.00  0.00     0.001 A 
HETATM   11  C   UNL     1      -4.996  -5.128 -34.585  1.00  0.00     0.000 A 
HETATM   12  C   UNL     1      -4.080  -4.215 -34.070  1.00  0.00     0.001 A 
HETATM   13  C   UNL     1      -4.424  -2.864 -33.957  1.00  0.00     0.012 A 
ENDBRANCH   5   8
ENDBRANCH   1   2
BRANCH   1  14
HETATM   14  N   UNL     1      -6.909   3.640 -32.471  1.00  0.00    -0.384 N 
HETATM   15  H   UNL     1      -7.707   3.574 -31.836  1.00  0.00     0.160 HD
BRANCH  14  16
HETATM   16  C   UNL     1      -6.129   4.774 -32.262  1.00  0.00     0.060 A 
HETATM   17  C   UNL     1      -4.760   4.837 -31.965  1.00  0.00     0.106 A 
HETATM   18  C   UNL     1      -4.103   6.033 -31.708  1.00  0.00     0.158 A 
HETATM   19  N   UNL     1      -3.753   3.907 -31.829  1.00  0.00    -0.346 N 
HETATM   20  N   UNL     1      -2.779   5.868 -31.451  1.00  0.00    -0.224 NA
HETATM   21  N   UNL     1      -4.799   7.211 -31.723  1.00  0.00    -0.349 N 
HETATM   22  C   UNL     1      -2.593   4.570 -31.528  1.00  0.00     0.210 A 
HETATM   23  H   UNL     1      -4.283   8.065 -31.526  1.00  0.00     0.167 HD
HETATM   24  C   UNL     1      -6.107   7.216 -31.968  1.00  0.00     0.092 A 
HETATM   25  C   UNL     1      -6.781   6.025 -32.226  1.00  0.00     0.048 A 
HETATM   26  H   UNL     1      -3.835   2.905 -31.927  1.00  0.00     0.167 HD
ENDBRANCH  14  16
ENDBRANCH   1  14
TORSDOF 4
ENDMDL
MODEL 10
REMARK VINA RESULT:      -8.1      1.808      2.870
REMARK  4 active torsions:
REMARK  status: ('A' for Active; 'I' for Inactive)
REMARK    1  A    between atoms: C_4  and  C_5 
REMARK    2  A    between atoms: C_8  and  C_9 
REMARK    3  A    between atoms: C_9  and  N_10 
REMARK    4  A    between atoms: N_10  and  C_11 
ROOT
HETATM    1  C   UNL     1      -8.811   2.943 -33.397  1.00  0.00     0.158 C 
ENDROOT
BRANCH   1   2
HETATM    2  C   UNL     1      -8.190   1.600 -33.681  1.00  0.00    -0.041 A 
HETATM    3  C   UNL     1      -7.118   1.483 -34.574  1.00  0.00     0.009 A 
HETATM    4  C   UNL     1      -6.513   0.242 -34.798  1.00  0.00     0.013 A 
HETATM    5  C   UNL     1      -6.961  -0.917 -34.143  1.00  0.00    -0.026 A 
HETATM    6  C   UNL     1      -8.062  -0.794 -33.280  1.00  0.00     0.013 A 
HETATM    7  C   UNL     1      -8.674   0.445 -33.057  1.00  0.00     0.009 A 
BRANCH   5   8
HETATM    8  C   UNL     1      -6.280  -2.212 -34.331  1.00  0.00    -0.026 A 
HETATM    9  C   UNL     1      -4.893  -2.334 -34.132  1.00  0.00     0.012 A 
HETATM   10  C   UNL     1      -4.244  -3.562 -34.289  1.00  0.00     0.001 A 
HETATM   11  C   UNL     1      -4.971  -4.693 -34.648  1.00  0.00     0.000 A 
HETATM   12  C   UNL     1      -6.344  -4.597 -34.852  1.00  0.00     0.001 A 
HETATM   13  C   UNL     1      -6.992  -3.367 -34.696  1.00  0.00     0.012 A 
ENDBRANCH   5   8
ENDBRANCH   1   2
BRANCH   1  14
HETATM   14  N   UNL     1      -8.510   3.354 -32.033  1.00  0.00    -0.384 N 
HETATM   15  H   UNL     1      -9.167   4.072 -31.722  1.00  0.00     0.160 HD
BRANCH  14  16
HETATM   16  C   UNL     1      -7.211   3.559 -31.580  1.00  0.00     0.060 A 
HETATM   17  C   UNL     1      -6.228   4.397 -32.126  1.00  0.00     0.106 A 
HETATM   18  C   UNL     1      -4.936   4.467 -31.621  1.00  0.00     0.158 A 
HETATM   19  N   UNL     1      -6.186   5.286 -33.177  1.00  0.00    -0.346 N 
HETATM   20  N   UNL     1      -4.149   5.347 -32.292  1.00  0.00    -0.224 NA
HETATM   21  N   UNL     1      -4.576   3.683 -30.558  1.00  0.00    -0.349 N 
HETATM   22  C   UNL     1      -4.930   5.829 -33.233  1.00  0.00     0.210 A 
HETATM   23  H   UNL     1      -3.620   3.760 -30.220  1.00  0.00     0.167 HD
HETATM   24  C   UNL     1      -5.454   2.844 -30.014  1.00  0.00     0.092 A 
HETATM   25  C   UNL     1      -6.753   2.761 -30.509  1.00  0.00     0.048 A 
HETATM   26  H   UNL     1      -6.939   5.511 -33.813  1.00  0.00     0.167 HD
ENDBRANCH  14  16
ENDBRANCH   1  14
TORSDOF 4
ENDMDL
