MODEL 1
REMARK VINA RESULT:      -7.7      0.000      0.000
REMARK  6 active torsions:
REMARK  status: ('A' for Active; 'I' for Inactive)
REMARK    1  A    between atoms: C_2  and  N_3 
REMARK    2  A    between atoms: C_2  and  C_18 
REMARK    3  A    between atoms: N_3  and  C_6 
REMARK    4  A    between atoms: C_6  and  C_7 
REMARK    5  A    between atoms: C_10  and  N_11 
REMARK       I    between atoms: N_11  and  C_12 
REMARK    6  A    between atoms: C_12  and  O_13 
ROOT
HETATM    1  N   UNL     1      -7.290   3.111 -32.755  1.00  0.00    -0.063 N 
HETATM    2  H   UNL     1      -7.827   3.186 -33.629  1.00  0.00     0.278 HD
HETATM    3  H   UNL     1      -7.131   4.081 -32.463  1.00  0.00     0.278 HD
ENDROOT
BRANCH   1   4
HETATM    4  C   UNL     1      -8.138   2.402 -31.740  1.00  0.00     0.216 C 
HETATM    5  C   UNL     1      -8.401   3.314 -30.542  1.00  0.00     0.045 C 
BRANCH   4   6
HETATM    6  C   UNL     1      -9.425   1.926 -32.370  1.00  0.00    -0.009 A 
HETATM    7  C   UNL     1      -9.677   0.564 -32.505  1.00  0.00     0.126 A 
HETATM    8  N   UNL     1     -10.777   0.022 -33.057  1.00  0.00    -0.259 NA
HETATM    9  C   UNL     1     -11.721   0.893 -33.498  1.00  0.00     0.074 A 
HETATM   10  C   UNL     1     -11.566   2.275 -33.405  1.00  0.00     0.034 A 
HETATM   11  C   UNL     1     -12.963   0.535 -34.096  1.00  0.00     0.040 A 
HETATM   12  S   UNL     1     -12.930   3.099 -34.048  1.00  0.00    -0.100 SA
HETATM   13  C   UNL     1     -10.402   2.817 -32.836  1.00  0.00     0.032 A 
HETATM   14  C   UNL     1     -13.717   1.633 -34.440  1.00  0.00     0.053 A 
ENDBRANCH   4   6
ENDBRANCH   1   4
BRANCH   1  15
HETATM   15  C   UNL     1      -5.977   2.487 -33.091  1.00  0.00     0.271 C 
BRANCH  15  16
HETATM   16  C   UNL     1      -6.146   1.049 -33.495  1.00  0.00    -0.033 A 
HETATM   17  C   UNL     1      -5.695   0.014 -32.665  1.00  0.00     0.011 A 
HETATM   18  C   UNL     1      -5.836  -1.328 -33.049  1.00  0.00     0.030 A 
HETATM   19  C   UNL     1      -6.434  -1.663 -34.262  1.00  0.00     0.036 A 
HETATM   20  C   UNL     1      -6.895  -0.627 -35.084  1.00  0.00     0.030 A 
HETATM   21  C   UNL     1      -6.750   0.714 -34.712  1.00  0.00     0.011 A 
BRANCH  19  22
HETATM   22  N   UNL     1      -6.630  -2.972 -34.730  1.00  0.00    -0.303 N 
HETATM   23  C   UNL     1      -5.773  -4.021 -34.935  1.00  0.00     0.364 C 
HETATM   24  O   UNL     1      -6.206  -5.098 -35.333  1.00  0.00    -0.238 OA
HETATM   25  H   UNL     1      -7.573  -3.240 -34.985  1.00  0.00     0.171 HD
BRANCH  23  26
HETATM   26  O   UNL     1      -4.463  -3.768 -34.696  1.00  0.00    -0.309 OA
HETATM   27  C   UNL     1      -3.841  -4.703 -33.811  1.00  0.00     0.215 C 
ENDBRANCH  23  26
ENDBRANCH  19  22
ENDBRANCH  15  16
ENDBRANCH   1  15
TORSDOF 6
ENDMDL
MODEL 2
REMARK VINA RESULT:      -7.3      3.965      7.263
REMARK  6 active torsions:
REMARK  status: ('A' for Active; 'I' for Inactive)
REMARK    1  A    between atoms: C_2  and  N_3 
REMARK    2  A    between atoms: C_2  and  C_18 
REMARK    3  A    between atoms: N_3  and  C_6 
REMARK    4  A    between atoms: C_6  and  C_7 
REMARK    5  A    between atoms: C_10  and  N_11 
REMARK       I    between atoms: N_11  and  C_12 
REMARK    6  A    between atoms: C_12  and  O_13 
ROOT
HETATM    1  N   UNL     1      -5.759   0.884 -30.886  1.00  0.00    -0.063 N 
HETATM    2  H   UNL     1      -6.250  -0.015 -30.791  1.00  0.00     0.278 HD
HETATM    3  H   UNL     1      -5.137   0.927 -30.070  1.00  0.00     0.278 HD
ENDROOT
BRANCH   1   4
HETATM    4  C   UNL     1      -4.947   0.847 -32.147  1.00  0.00     0.216 C 
HETATM    5  C   UNL     1      -3.705   1.725 -32.002  1.00  0.00     0.045 C 
BRANCH   4   6
HETATM    6  C   UNL     1      -4.586  -0.576 -32.499  1.00  0.00    -0.009 A 
HETATM    7  C   UNL     1      -3.551  -1.222 -31.830  1.00  0.00     0.126 A 
HETATM    8  N   UNL     1      -3.131  -2.478 -32.062  1.00  0.00    -0.259 NA
HETATM    9  C   UNL     1      -3.801  -3.168 -33.021  1.00  0.00     0.074 A 
HETATM   10  C   UNL     1      -4.854  -2.614 -33.745  1.00  0.00     0.034 A 
HETATM   11  C   UNL     1      -3.534  -4.512 -33.412  1.00  0.00     0.040 A 
HETATM   12  S   UNL     1      -5.489  -3.737 -34.880  1.00  0.00    -0.100 SA
HETATM   13  C   UNL     1      -5.264  -1.295 -33.494  1.00  0.00     0.032 A 
HETATM   14  C   UNL     1      -4.377  -4.947 -34.409  1.00  0.00     0.053 A 
ENDBRANCH   4   6
ENDBRANCH   1   4
BRANCH   1  15
HETATM   15  C   UNL     1      -6.781   1.964 -30.771  1.00  0.00     0.271 C 
BRANCH  15  16
HETATM   16  C   UNL     1      -7.847   1.817 -31.820  1.00  0.00    -0.033 A 
HETATM   17  C   UNL     1      -8.647   0.668 -31.872  1.00  0.00     0.011 A 
HETATM   18  C   UNL     1      -9.630   0.521 -32.861  1.00  0.00     0.030 A 
HETATM   19  C   UNL     1      -9.839   1.517 -33.813  1.00  0.00     0.036 A 
HETATM   20  C   UNL     1      -9.046   2.670 -33.751  1.00  0.00     0.030 A 
HETATM   21  C   UNL     1      -8.057   2.820 -32.773  1.00  0.00     0.011 A 
BRANCH  19  22
HETATM   22  N   UNL     1     -10.801   1.469 -34.834  1.00  0.00    -0.303 N 
HETATM   23  C   UNL     1     -12.104   1.889 -34.901  1.00  0.00     0.364 C 
HETATM   24  O   UNL     1     -12.738   1.755 -35.942  1.00  0.00    -0.238 OA
HETATM   25  H   UNL     1     -10.528   1.043 -35.712  1.00  0.00     0.171 HD
BRANCH  23  26
HETATM   26  O   UNL     1     -12.613   2.416 -33.760  1.00  0.00    -0.309 OA
HETATM   27  C   UNL     1     -13.813   1.782 -33.311  1.00  0.00     0.215 C 
ENDBRANCH  23  26
ENDBRANCH  19  22
ENDBRANCH  15  16
ENDBRANCH   1  15
TORSDOF 6
ENDMDL
MODEL 3
REMARK VINA RESULT:      -7.2      4.071      6.610
REMARK  6 active torsions:
REMARK  status: ('A' for Active; 'I' for Inactive)
REMARK    1  A    between atoms: C_2  and  N_3 
REMARK    2  A    between atoms: C_2  and  C_18 
REMARK    3  A    between atoms: N_3  and  C_6 
REMARK    4  A    between atoms: C_6  and  C_7 
REMARK    5  A    between atoms: C_10  and  N_11 
REMARK       I    between atoms: N_11  and  C_12 
REMARK    6  A    between atoms: C_12  and  O_13 
ROOT
HETATM    1  N   UNL     1      -5.968   2.854 -32.011  1.00  0.00    -0.063 N 
HETATM    2  H   UNL     1      -5.082   2.350 -31.878  1.00  0.00     0.278 HD
HETATM    3  H   UNL     1      -6.629   2.391 -31.378  1.00  0.00     0.278 HD
ENDROOT
BRANCH   1   4
HETATM    4  C   UNL     1      -5.767   4.280 -31.588  1.00  0.00     0.216 C 
HETATM    5  C   UNL     1      -6.434   4.528 -30.235  1.00  0.00     0.045 C 
BRANCH   4   6
HETATM    6  C   UNL     1      -4.296   4.617 -31.554  1.00  0.00    -0.009 A 
HETATM    7  C   UNL     1      -3.345   3.601 -31.553  1.00  0.00     0.126 A 
HETATM    8  N   UNL     1      -2.012   3.775 -31.513  1.00  0.00    -0.259 NA
HETATM    9  C   UNL     1      -1.574   5.061 -31.494  1.00  0.00     0.074 A 
HETATM   10  C   UNL     1      -2.445   6.149 -31.497  1.00  0.00     0.034 A 
HETATM   11  C   UNL     1      -0.210   5.470 -31.469  1.00  0.00     0.040 A 
HETATM   12  S   UNL     1      -1.584   7.636 -31.468  1.00  0.00    -0.100 SA
HETATM   13  C   UNL     1      -3.833   5.940 -31.525  1.00  0.00     0.032 A 
HETATM   14  C   UNL     1      -0.072   6.840 -31.456  1.00  0.00     0.053 A 
ENDBRANCH   4   6
ENDBRANCH   1   4
BRANCH   1  15
HETATM   15  C   UNL     1      -6.405   2.623 -33.419  1.00  0.00     0.271 C 
BRANCH  15  16
HETATM   16  C   UNL     1      -6.494   1.154 -33.725  1.00  0.00    -0.033 A 
HETATM   17  C   UNL     1      -5.951   0.205 -32.849  1.00  0.00     0.011 A 
HETATM   18  C   UNL     1      -6.018  -1.165 -33.143  1.00  0.00     0.030 A 
HETATM   19  C   UNL     1      -6.632  -1.615 -34.310  1.00  0.00     0.036 A 
HETATM   20  C   UNL     1      -7.185  -0.665 -35.178  1.00  0.00     0.030 A 
HETATM   21  C   UNL     1      -7.114   0.705 -34.896  1.00  0.00     0.011 A 
BRANCH  19  22
HETATM   22  N   UNL     1      -6.758  -2.961 -34.688  1.00  0.00    -0.303 N 
HETATM   23  C   UNL     1      -5.841  -3.963 -34.868  1.00  0.00     0.364 C 
HETATM   24  O   UNL     1      -6.217  -5.088 -35.179  1.00  0.00    -0.238 OA
HETATM   25  H   UNL     1      -7.691  -3.305 -34.881  1.00  0.00     0.171 HD
BRANCH  23  26
HETATM   26  O   UNL     1      -4.542  -3.610 -34.708  1.00  0.00    -0.309 OA
HETATM   27  C   UNL     1      -3.811  -4.465 -33.826  1.00  0.00     0.215 C 
ENDBRANCH  23  26
ENDBRANCH  19  22
ENDBRANCH  15  16
ENDBRANCH   1  15
TORSDOF 6
ENDMDL
MODEL 4
REMARK VINA RESULT:      -7.1      4.813      7.855
REMARK  6 active torsions:
REMARK  status: ('A' for Active; 'I' for Inactive)
REMARK    1  A    between atoms: C_2  and  N_3 
REMARK    2  A    between atoms: C_2  and  C_18 
REMARK    3  A    between atoms: N_3  and  C_6 
REMARK    4  A    between atoms: C_6  and  C_7 
REMARK    5  A    between atoms: C_10  and  N_11 
REMARK       I    between atoms: N_11  and  C_12 
REMARK    6  A    between atoms: C_12  and  O_13 
ROOT
HETATM    1  N   UNL     1      -6.425   1.961 -34.082  1.00  0.00    -0.063 N 
HETATM    2  H   UNL     1      -5.437   1.693 -33.973  1.00  0.00     0.278 HD
HETATM    3  H   UNL     1      -6.507   2.259 -35.060  1.00  0.00     0.278 HD
ENDROOT
BRANCH   1   4
HETATM    4  C   UNL     1      -7.272   0.746 -33.842  1.00  0.00     0.216 C 
HETATM    5  C   UNL     1      -8.439   0.713 -34.830  1.00  0.00     0.045 C 
BRANCH   4   6
HETATM    6  C   UNL     1      -6.434  -0.506 -33.929  1.00  0.00    -0.009 A 
HETATM    7  C   UNL     1      -5.104  -0.489 -33.519  1.00  0.00     0.126 A 
HETATM    8  N   UNL     1      -4.257  -1.533 -33.559  1.00  0.00    -0.259 NA
HETATM    9  C   UNL     1      -4.768  -2.703 -34.024  1.00  0.00     0.074 A 
HETATM   10  C   UNL     1      -6.087  -2.826 -34.455  1.00  0.00     0.034 A 
HETATM   11  C   UNL     1      -4.054  -3.931 -34.133  1.00  0.00     0.040 A 
HETATM   12  S   UNL     1      -6.423  -4.426 -34.982  1.00  0.00    -0.100 SA
HETATM   13  C   UNL     1      -6.947  -1.717 -34.416  1.00  0.00     0.032 A 
HETATM   14  C   UNL     1      -4.833  -4.948 -34.636  1.00  0.00     0.053 A 
ENDBRANCH   4   6
ENDBRANCH   1   4
BRANCH   1  15
HETATM   15  C   UNL     1      -6.666   3.138 -33.197  1.00  0.00     0.271 C 
BRANCH  15  16
HETATM   16  C   UNL     1      -5.383   3.639 -32.597  1.00  0.00    -0.033 A 
HETATM   17  C   UNL     1      -4.214   2.868 -32.658  1.00  0.00     0.011 A 
HETATM   18  C   UNL     1      -3.020   3.327 -32.083  1.00  0.00     0.030 A 
HETATM   19  C   UNL     1      -2.966   4.564 -31.442  1.00  0.00     0.036 A 
HETATM   20  C   UNL     1      -4.132   5.337 -31.394  1.00  0.00     0.030 A 
HETATM   21  C   UNL     1      -5.330   4.882 -31.958  1.00  0.00     0.011 A 
BRANCH  19  22
HETATM   22  N   UNL     1      -1.820   5.114 -30.846  1.00  0.00    -0.303 N 
HETATM   23  C   UNL     1      -0.752   5.805 -31.354  1.00  0.00     0.364 C 
HETATM   24  O   UNL     1       0.127   6.214 -30.603  1.00  0.00    -0.238 OA
HETATM   25  H   UNL     1      -1.714   4.997 -29.845  1.00  0.00     0.171 HD
BRANCH  23  26
HETATM   26  O   UNL     1      -0.741   5.967 -32.700  1.00  0.00    -0.309 OA
HETATM   27  C   UNL     1      -1.241   7.232 -33.139  1.00  0.00     0.215 C 
ENDBRANCH  23  26
ENDBRANCH  19  22
ENDBRANCH  15  16
ENDBRANCH   1  15
TORSDOF 6
ENDMDL
MODEL 5
REMARK VINA RESULT:      -6.8     14.693     17.534
REMARK  6 active torsions:
REMARK  status: ('A' for Active; 'I' for Inactive)
REMARK    1  A    between atoms: C_2  and  N_3 
REMARK    2  A    between atoms: C_2  and  C_18 
REMARK    3  A    between atoms: N_3  and  C_6 
REMARK    4  A    between atoms: C_6  and  C_7 
REMARK    5  A    between atoms: C_10  and  N_11 
REMARK       I    between atoms: N_11  and  C_12 
REMARK    6  A    between atoms: C_12  and  O_13 
ROOT
HETATM    1  N   UNL     1      -3.433 -12.561 -39.562  1.00  0.00    -0.063 N 
HETATM    2  H   UNL     1      -2.847 -11.723 -39.682  1.00  0.00     0.278 HD
HETATM    3  H   UNL     1      -3.955 -12.641 -40.441  1.00  0.00     0.278 HD
ENDROOT
BRANCH   1   4
HETATM    4  C   UNL     1      -2.529 -13.747 -39.393  1.00  0.00     0.216 C 
HETATM    5  C   UNL     1      -2.954 -14.565 -38.174  1.00  0.00     0.045 C 
BRANCH   4   6
HETATM    6  C   UNL     1      -2.521 -14.584 -40.649  1.00  0.00    -0.009 A 
HETATM    7  C   UNL     1      -1.671 -15.681 -40.755  1.00  0.00     0.126 A 
HETATM    8  N   UNL     1      -1.565 -16.492 -41.823  1.00  0.00    -0.259 NA
HETATM    9  C   UNL     1      -2.382 -16.212 -42.872  1.00  0.00     0.074 A 
HETATM   10  C   UNL     1      -3.272 -15.140 -42.864  1.00  0.00     0.034 A 
HETATM   11  C   UNL     1      -2.446 -16.950 -44.089  1.00  0.00     0.040 A 
HETATM   12  S   UNL     1      -4.158 -15.057 -44.333  1.00  0.00    -0.100 SA
HETATM   13  C   UNL     1      -3.352 -14.300 -41.742  1.00  0.00     0.032 A 
HETATM   14  C   UNL     1      -3.370 -16.433 -44.969  1.00  0.00     0.053 A 
ENDBRANCH   4   6
ENDBRANCH   1   4
BRANCH   1  15
HETATM   15  C   UNL     1      -4.392 -12.279 -38.454  1.00  0.00     0.271 C 
BRANCH  15  16
HETATM   16  C   UNL     1      -5.814 -12.392 -38.925  1.00  0.00    -0.033 A 
HETATM   17  C   UNL     1      -6.132 -12.254 -40.283  1.00  0.00     0.011 A 
HETATM   18  C   UNL     1      -7.462 -12.340 -40.722  1.00  0.00     0.030 A 
HETATM   19  C   UNL     1      -8.497 -12.573 -39.818  1.00  0.00     0.036 A 
HETATM   20  C   UNL     1      -8.175 -12.724 -38.464  1.00  0.00     0.030 A 
HETATM   21  C   UNL     1      -6.852 -12.629 -38.017  1.00  0.00     0.011 A 
BRANCH  19  22
HETATM   22  N   UNL     1      -9.855 -12.687 -40.159  1.00  0.00    -0.303 N 
HETATM   23  C   UNL     1     -10.678 -13.766 -40.337  1.00  0.00     0.364 C 
HETATM   24  O   UNL     1     -11.862 -13.595 -40.610  1.00  0.00    -0.238 OA
HETATM   25  H   UNL     1     -10.368 -11.828 -40.321  1.00  0.00     0.171 HD
BRANCH  23  26
HETATM   26  O   UNL     1     -10.091 -14.983 -40.217  1.00  0.00    -0.309 OA
HETATM   27  C   UNL     1      -9.818 -15.623 -41.465  1.00  0.00     0.215 C 
ENDBRANCH  23  26
ENDBRANCH  19  22
ENDBRANCH  15  16
ENDBRANCH   1  15
TORSDOF 6
ENDMDL
MODEL 6
REMARK VINA RESULT:      -6.8      3.330      5.600
REMARK  6 active torsions:
REMARK  status: ('A' for Active; 'I' for Inactive)
REMARK    1  A    between atoms: C_2  and  N_3 
REMARK    2  A    between atoms: C_2  and  C_18 
REMARK    3  A    between atoms: N_3  and  C_6 
REMARK    4  A    between atoms: C_6  and  C_7 
REMARK    5  A    between atoms: C_10  and  N_11 
REMARK       I    between atoms: N_11  and  C_12 
REMARK    6  A    between atoms: C_12  and  O_13 
ROOT
HETATM    1  N   UNL     1      -8.355   3.104 -32.306  1.00  0.00    -0.063 N 
HETATM    2  H   UNL     1      -9.306   3.491 -32.378  1.00  0.00     0.278 HD
HETATM    3  H   UNL     1      -8.045   2.995 -33.278  1.00  0.00     0.278 HD
ENDROOT
BRANCH   1   4
HETATM    4  C   UNL     1      -7.490   4.108 -31.602  1.00  0.00     0.216 C 
HETATM    5  C   UNL     1      -7.161   3.622 -30.190  1.00  0.00     0.045 C 
BRANCH   4   6
HETATM    6  C   UNL     1      -6.240   4.379 -32.403  1.00  0.00    -0.009 A 
HETATM    7  C   UNL     1      -6.330   4.706 -33.753  1.00  0.00     0.126 A 
HETATM    8  N   UNL     1      -5.292   4.957 -34.570  1.00  0.00    -0.259 NA
HETATM    9  C   UNL     1      -4.057   4.901 -34.007  1.00  0.00     0.074 A 
HETATM   10  C   UNL     1      -3.859   4.587 -32.663  1.00  0.00     0.034 A 
HETATM   11  C   UNL     1      -2.827   5.149 -34.683  1.00  0.00     0.040 A 
HETATM   12  S   UNL     1      -2.189   4.598 -32.260  1.00  0.00    -0.100 SA
HETATM   13  C   UNL     1      -4.960   4.315 -31.835  1.00  0.00     0.032 A 
HETATM   14  C   UNL     1      -1.736   5.021 -33.853  1.00  0.00     0.053 A 
ENDBRANCH   4   6
ENDBRANCH   1   4
BRANCH   1  15
HETATM   15  C   UNL     1      -8.470   1.754 -31.682  1.00  0.00     0.271 C 
BRANCH  15  16
HETATM   16  C   UNL     1      -7.482   0.793 -32.281  1.00  0.00    -0.033 A 
HETATM   17  C   UNL     1      -7.446   0.571 -33.664  1.00  0.00     0.011 A 
HETATM   18  C   UNL     1      -6.537  -0.339 -34.223  1.00  0.00     0.030 A 
HETATM   19  C   UNL     1      -5.642  -1.039 -33.416  1.00  0.00     0.036 A 
HETATM   20  C   UNL     1      -5.671  -0.806 -32.035  1.00  0.00     0.030 A 
HETATM   21  C   UNL     1      -6.582   0.094 -31.469  1.00  0.00     0.011 A 
BRANCH  19  22
HETATM   22  N   UNL     1      -4.690  -1.961 -33.879  1.00  0.00    -0.303 N 
HETATM   23  C   UNL     1      -4.793  -3.244 -34.347  1.00  0.00     0.364 C 
HETATM   24  O   UNL     1      -3.791  -3.840 -34.727  1.00  0.00    -0.238 OA
HETATM   25  H   UNL     1      -3.720  -1.668 -33.881  1.00  0.00     0.171 HD
BRANCH  23  26
HETATM   26  O   UNL     1      -6.038  -3.780 -34.329  1.00  0.00    -0.309 OA
HETATM   27  C   UNL     1      -6.342  -4.587 -35.469  1.00  0.00     0.215 C 
ENDBRANCH  23  26
ENDBRANCH  19  22
ENDBRANCH  15  16
ENDBRANCH   1  15
TORSDOF 6
ENDMDL
MODEL 7
REMARK VINA RESULT:      -6.7      4.290      7.292
REMARK  6 active torsions:
REMARK  status: ('A' for Active; 'I' for Inactive)
REMARK    1  A    between atoms: C_2  and  N_3 
REMARK    2  A    between atoms: C_2  and  C_18 
REMARK    3  A    between atoms: N_3  and  C_6 
REMARK    4  A    between atoms: C_6  and  C_7 
REMARK    5  A    between atoms: C_10  and  N_11 
REMARK       I    between atoms: N_11  and  C_12 
REMARK    6  A    between atoms: C_12  and  O_13 
ROOT
HETATM    1  N   UNL     1      -6.131   1.254 -30.548  1.00  0.00    -0.063 N 
HETATM    2  H   UNL     1      -6.168   1.290 -29.520  1.00  0.00     0.278 HD
HETATM    3  H   UNL     1      -6.561   2.133 -30.854  1.00  0.00     0.278 HD
ENDROOT
BRANCH   1   4
HETATM    4  C   UNL     1      -4.691   1.214 -30.967  1.00  0.00     0.216 C 
HETATM    5  C   UNL     1      -4.374  -0.120 -31.642  1.00  0.00     0.045 C 
BRANCH   4   6
HETATM    6  C   UNL     1      -4.373   2.384 -31.866  1.00  0.00    -0.009 A 
HETATM    7  C   UNL     1      -5.326   2.858 -32.762  1.00  0.00     0.126 A 
HETATM    8  N   UNL     1      -5.157   3.881 -33.619  1.00  0.00    -0.259 NA
HETATM    9  C   UNL     1      -3.951   4.506 -33.578  1.00  0.00     0.074 A 
HETATM   10  C   UNL     1      -2.931   4.111 -32.714  1.00  0.00     0.034 A 
HETATM   11  C   UNL     1      -3.568   5.618 -34.382  1.00  0.00     0.040 A 
HETATM   12  S   UNL     1      -1.537   5.097 -32.905  1.00  0.00    -0.100 SA
HETATM   13  C   UNL     1      -3.129   3.030 -31.839  1.00  0.00     0.032 A 
HETATM   14  C   UNL     1      -2.285   6.040 -34.118  1.00  0.00     0.053 A 
ENDBRANCH   4   6
ENDBRANCH   1   4
BRANCH   1  15
HETATM   15  C   UNL     1      -6.993   0.117 -30.985  1.00  0.00     0.271 C 
BRANCH  15  16
HETATM   16  C   UNL     1      -7.983   0.555 -32.027  1.00  0.00    -0.033 A 
HETATM   17  C   UNL     1      -7.899   0.079 -33.341  1.00  0.00     0.011 A 
HETATM   18  C   UNL     1      -8.811   0.501 -34.319  1.00  0.00     0.030 A 
HETATM   19  C   UNL     1      -9.829   1.400 -34.004  1.00  0.00     0.036 A 
HETATM   20  C   UNL     1      -9.918   1.866 -32.686  1.00  0.00     0.030 A 
HETATM   21  C   UNL     1      -9.005   1.456 -31.707  1.00  0.00     0.011 A 
BRANCH  19  22
HETATM   22  N   UNL     1     -10.794   1.874 -34.906  1.00  0.00    -0.303 N 
HETATM   23  C   UNL     1     -12.126   1.598 -35.068  1.00  0.00     0.364 C 
HETATM   24  O   UNL     1     -12.772   2.181 -35.933  1.00  0.00    -0.238 OA
HETATM   25  H   UNL     1     -10.493   2.552 -35.598  1.00  0.00     0.171 HD
BRANCH  23  26
HETATM   26  O   UNL     1     -12.636   0.650 -34.245  1.00  0.00    -0.309 OA
HETATM   27  C   UNL     1     -13.793   1.070 -33.518  1.00  0.00     0.215 C 
ENDBRANCH  23  26
ENDBRANCH  19  22
ENDBRANCH  15  16
ENDBRANCH   1  15
TORSDOF 6
ENDMDL
MODEL 8
REMARK VINA RESULT:      -6.7      4.464      7.299
REMARK  6 active torsions:
REMARK  status: ('A' for Active; 'I' for Inactive)
REMARK    1  A    between atoms: C_2  and  N_3 
REMARK    2  A    between atoms: C_2  and  C_18 
REMARK    3  A    between atoms: N_3  and  C_6 
REMARK    4  A    between atoms: C_6  and  C_7 
REMARK    5  A    between atoms: C_10  and  N_11 
REMARK       I    between atoms: N_11  and  C_12 
REMARK    6  A    between atoms: C_12  and  O_13 
ROOT
HETATM    1  N   UNL     1      -7.788   2.348 -32.105  1.00  0.00    -0.063 N 
HETATM    2  H   UNL     1      -8.257   2.370 -31.191  1.00  0.00     0.278 HD
HETATM    3  H   UNL     1      -6.789   2.265 -31.883  1.00  0.00     0.278 HD
ENDROOT
BRANCH   1   4
HETATM    4  C   UNL     1      -8.251   1.127 -32.845  1.00  0.00     0.216 C 
HETATM    5  C   UNL     1      -8.843   1.522 -34.197  1.00  0.00     0.045 C 
BRANCH   4   6
HETATM    6  C   UNL     1      -7.116   0.144 -32.999  1.00  0.00    -0.009 A 
HETATM    7  C   UNL     1      -5.954   0.290 -32.248  1.00  0.00     0.126 A 
HETATM    8  N   UNL     1      -4.876  -0.511 -32.306  1.00  0.00    -0.259 NA
HETATM    9  C   UNL     1      -4.954  -1.561 -33.164  1.00  0.00     0.074 A 
HETATM   10  C   UNL     1      -6.074  -1.799 -33.958  1.00  0.00     0.034 A 
HETATM   11  C   UNL     1      -3.938  -2.540 -33.368  1.00  0.00     0.040 A 
HETATM   12  S   UNL     1      -5.862  -3.199 -34.931  1.00  0.00    -0.100 SA
HETATM   13  C   UNL     1      -7.182  -0.938 -33.889  1.00  0.00     0.032 A 
HETATM   14  C   UNL     1      -4.301  -3.487 -34.299  1.00  0.00     0.053 A 
ENDBRANCH   4   6
ENDBRANCH   1   4
BRANCH   1  15
HETATM   15  C   UNL     1      -8.028   3.666 -32.761  1.00  0.00     0.271 C 
BRANCH  15  16
HETATM   16  C   UNL     1      -6.733   4.342 -33.114  1.00  0.00    -0.033 A 
HETATM   17  C   UNL     1      -6.277   5.445 -32.380  1.00  0.00     0.011 A 
HETATM   18  C   UNL     1      -5.078   6.088 -32.719  1.00  0.00     0.030 A 
HETATM   19  C   UNL     1      -4.307   5.641 -33.790  1.00  0.00     0.036 A 
HETATM   20  C   UNL     1      -4.758   4.530 -34.514  1.00  0.00     0.030 A 
HETATM   21  C   UNL     1      -5.959   3.889 -34.188  1.00  0.00     0.011 A 
BRANCH  19  22
HETATM   22  N   UNL     1      -3.090   6.209 -34.201  1.00  0.00    -0.303 N 
HETATM   23  C   UNL     1      -1.784   5.899 -33.928  1.00  0.00     0.364 C 
HETATM   24  O   UNL     1      -0.880   6.546 -34.447  1.00  0.00    -0.238 OA
HETATM   25  H   UNL     1      -3.135   7.011 -34.818  1.00  0.00     0.171 HD
BRANCH  23  26
HETATM   26  O   UNL     1      -1.589   4.882 -33.053  1.00  0.00    -0.309 OA
HETATM   27  C   UNL     1      -0.790   5.232 -31.921  1.00  0.00     0.215 C 
ENDBRANCH  23  26
ENDBRANCH  19  22
ENDBRANCH  15  16
ENDBRANCH   1  15
TORSDOF 6
ENDMDL
MODEL 9
REMARK VINA RESULT:      -6.7      3.650      5.411
REMARK  6 active torsions:
REMARK  status: ('A' for Active; 'I' for Inactive)
REMARK    1  A    between atoms: C_2  and  N_3 
REMARK    2  A    between atoms: C_2  and  C_18 
REMARK    3  A    between atoms: N_3  and  C_6 
REMARK    4  A    between atoms: C_6  and  C_7 
REMARK    5  A    between atoms: C_10  and  N_11 
REMARK       I    between atoms: N_11  and  C_12 
REMARK    6  A    between atoms: C_12  and  O_13 
ROOT
HETATM    1  N   UNL     1      -7.500  -0.120 -32.678  1.00  0.00    -0.063 N 
HETATM    2  H   UNL     1      -8.318  -0.741 -32.619  1.00  0.00     0.278 HD
HETATM    3  H   UNL     1      -6.730  -0.733 -32.968  1.00  0.00     0.278 HD
ENDROOT
BRANCH   1   4
HETATM    4  C   UNL     1      -7.763   0.909 -33.738  1.00  0.00     0.216 C 
HETATM    5  C   UNL     1      -7.543   0.307 -35.125  1.00  0.00     0.045 C 
BRANCH   4   6
HETATM    6  C   UNL     1      -9.156   1.472 -33.589  1.00  0.00    -0.009 A 
HETATM    7  C   UNL     1      -9.340   2.814 -33.270  1.00  0.00     0.126 A 
HETATM    8  N   UNL     1     -10.525   3.425 -33.101  1.00  0.00    -0.259 NA
HETATM    9  C   UNL     1     -11.630   2.654 -33.281  1.00  0.00     0.074 A 
HETATM   10  C   UNL     1     -11.554   1.301 -33.607  1.00  0.00     0.034 A 
HETATM   11  C   UNL     1     -12.978   3.101 -33.170  1.00  0.00     0.040 A 
HETATM   12  S   UNL     1     -13.119   0.611 -33.766  1.00  0.00    -0.100 SA
HETATM   13  C   UNL     1     -10.303   0.684 -33.764  1.00  0.00     0.032 A 
HETATM   14  C   UNL     1     -13.887   2.095 -33.410  1.00  0.00     0.053 A 
ENDBRANCH   4   6
ENDBRANCH   1   4
BRANCH   1  15
HETATM   15  C   UNL     1      -7.223   0.384 -31.301  1.00  0.00     0.271 C 
BRANCH  15  16
HETATM   16  C   UNL     1      -6.011   1.271 -31.281  1.00  0.00    -0.033 A 
HETATM   17  C   UNL     1      -6.134   2.647 -31.049  1.00  0.00     0.011 A 
HETATM   18  C   UNL     1      -5.005   3.480 -31.048  1.00  0.00     0.030 A 
HETATM   19  C   UNL     1      -3.732   2.956 -31.271  1.00  0.00     0.036 A 
HETATM   20  C   UNL     1      -3.611   1.578 -31.490  1.00  0.00     0.030 A 
HETATM   21  C   UNL     1      -4.734   0.743 -31.502  1.00  0.00     0.011 A 
BRANCH  19  22
HETATM   22  N   UNL     1      -2.543   3.702 -31.279  1.00  0.00    -0.303 N 
HETATM   23  C   UNL     1      -1.880   4.377 -32.270  1.00  0.00     0.364 C 
HETATM   24  O   UNL     1      -0.850   4.990 -32.009  1.00  0.00    -0.238 OA
HETATM   25  H   UNL     1      -2.037   3.782 -30.405  1.00  0.00     0.171 HD
BRANCH  23  26
HETATM   26  O   UNL     1      -2.421   4.289 -33.509  1.00  0.00    -0.309 OA
HETATM   27  C   UNL     1      -1.778   5.110 -34.486  1.00  0.00     0.215 C 
ENDBRANCH  23  26
ENDBRANCH  19  22
ENDBRANCH  15  16
ENDBRANCH   1  15
TORSDOF 6
ENDMDL
MODEL 10
REMARK VINA RESULT:      -6.6      4.782      7.303
REMARK  6 active torsions:
REMARK  status: ('A' for Active; 'I' for Inactive)
REMARK    1  A    between atoms: C_2  and  N_3 
REMARK    2  A    between atoms: C_2  and  C_18 
REMARK    3  A    between atoms: N_3  and  C_6 
REMARK    4  A    between atoms: C_6  and  C_7 
REMARK    5  A    between atoms: C_10  and  N_11 
REMARK       I    between atoms: N_11  and  C_12 
REMARK    6  A    between atoms: C_12  and  O_13 
ROOT
HETATM    1  N   UNL     1      -5.472   3.425 -32.108  1.00  0.00    -0.063 N 
HETATM    2  H   UNL     1      -5.955   4.235 -31.696  1.00  0.00     0.278 HD
HETATM    3  H   UNL     1      -6.207   2.911 -32.606  1.00  0.00     0.278 HD
ENDROOT
BRANCH   1   4
HETATM    4  C   UNL     1      -4.449   3.931 -33.082  1.00  0.00     0.216 C 
HETATM    5  C   UNL     1      -5.115   4.820 -34.133  1.00  0.00     0.045 C 
BRANCH   4   6
HETATM    6  C   UNL     1      -3.346   4.660 -32.354  1.00  0.00    -0.009 A 
HETATM    7  C   UNL     1      -2.014   4.326 -32.585  1.00  0.00     0.126 A 
HETATM    8  N   UNL     1      -0.950   4.894 -31.991  1.00  0.00    -0.259 NA
HETATM    9  C   UNL     1      -1.215   5.891 -31.108  1.00  0.00     0.074 A 
HETATM   10  C   UNL     1      -2.512   6.303 -30.811  1.00  0.00     0.034 A 
HETATM   11  C   UNL     1      -0.239   6.636 -30.384  1.00  0.00     0.040 A 
HETATM   12  S   UNL     1      -2.512   7.580 -29.660  1.00  0.00    -0.100 SA
HETATM   13  C   UNL     1      -3.608   5.685 -31.434  1.00  0.00     0.032 A 
HETATM   14  C   UNL     1      -0.805   7.586 -29.564  1.00  0.00     0.053 A 
ENDBRANCH   4   6
ENDBRANCH   1   4
BRANCH   1  15
HETATM   15  C   UNL     1      -4.974   2.583 -30.982  1.00  0.00     0.271 C 
BRANCH  15  16
HETATM   16  C   UNL     1      -4.655   1.189 -31.445  1.00  0.00    -0.033 A 
HETATM   17  C   UNL     1      -5.678   0.305 -31.812  1.00  0.00     0.011 A 
HETATM   18  C   UNL     1      -5.383  -1.002 -32.227  1.00  0.00     0.030 A 
HETATM   19  C   UNL     1      -4.065  -1.450 -32.292  1.00  0.00     0.036 A 
HETATM   20  C   UNL     1      -3.044  -0.559 -31.937  1.00  0.00     0.030 A 
HETATM   21  C   UNL     1      -3.331   0.743 -31.512  1.00  0.00     0.011 A 
BRANCH  19  22
HETATM   22  N   UNL     1      -3.668  -2.732 -32.703  1.00  0.00    -0.303 N 
HETATM   23  C   UNL     1      -3.983  -3.493 -33.797  1.00  0.00     0.364 C 
HETATM   24  O   UNL     1      -3.468  -4.597 -33.945  1.00  0.00    -0.238 OA
HETATM   25  H   UNL     1      -3.026  -3.236 -32.102  1.00  0.00     0.171 HD
BRANCH  23  26
HETATM   26  O   UNL     1      -4.893  -2.957 -34.647  1.00  0.00    -0.309 OA
HETATM   27  C   UNL     1      -5.924  -3.863 -35.045  1.00  0.00     0.215 C 
ENDBRANCH  23  26
ENDBRANCH  19  22
ENDBRANCH  15  16
ENDBRANCH   1  15
TORSDOF 6
ENDMDL
