MODEL 1
REMARK VINA RESULT:      -9.7      0.000      0.000
REMARK  9 active torsions:
REMARK  status: ('A' for Active; 'I' for Inactive)
REMARK    1  A    between atoms: C_2  and  C_3 
REMARK    2  A    between atoms: C_3  and  C_4 
REMARK    3  A    between atoms: C_3  and  C_39 
REMARK    4  A    between atoms: C_6  and  C_7 
REMARK    5  A    between atoms: C_14  and  C_15 
REMARK    6  A    between atoms: C_18  and  C_19 
REMARK    7  A    between atoms: C_19  and  N_20 
REMARK       I    between atoms: N_20  and  C_21 
REMARK       I    between atoms: C_21  and  N_22 
REMARK    8  A    between atoms: N_22  and  C_23 
REMARK    9  A    between atoms: C_25  and  C_26 
ROOT
HETATM    1  C   UNL     1      -9.416   0.865 -32.894  1.00  0.00     0.068 C 
HETATM    2  C   UNL     1     -10.044   1.368 -34.224  1.00  0.00     0.001 C 
HETATM    3  C   UNL     1      -9.484   2.768 -34.575  1.00  0.00     0.040 C 
HETATM    4  C   UNL     1      -9.908   3.804 -33.517  1.00  0.00     0.206 C 
HETATM    5  N   UNL     1     -10.532   3.018 -32.369  1.00  0.00    -0.065 N 
HETATM    6  H   UNL     1     -10.692   3.685 -31.583  1.00  0.00     0.280 HD
HETATM    7  C   UNL     1      -9.615   1.940 -31.809  1.00  0.00     0.246 C 
HETATM    8  C   UNL     1     -11.567   1.509 -33.995  1.00  0.00     0.033 C 
HETATM    9  C   UNL     1     -11.848   2.423 -32.796  1.00  0.00     0.236 C 
ENDROOT
BRANCH   1  10
HETATM   10  C   UNL     1      -7.975   0.431 -33.056  1.00  0.00     0.045 A 
HETATM   11  N   UNL     1      -7.733  -0.808 -33.533  1.00  0.00    -0.233 NA
HETATM   12  C   UNL     1      -6.438  -1.184 -33.634  1.00  0.00     0.160 A 
HETATM   13  N   UNL     1      -5.399  -0.420 -33.256  1.00  0.00    -0.233 NA
HETATM   14  C   UNL     1      -5.664   0.810 -32.776  1.00  0.00     0.043 A 
HETATM   15  C   UNL     1      -6.957   1.281 -32.659  1.00  0.00     0.055 A 
BRANCH  12  16
HETATM   16  C   UNL     1      -6.134  -2.520 -34.179  1.00  0.00     0.014 A 
HETATM   17  C   UNL     1      -4.848  -3.074 -34.077  1.00  0.00     0.034 A 
HETATM   18  C   UNL     1      -4.604  -4.335 -34.597  1.00  0.00     0.117 A 
HETATM   19  N   UNL     1      -5.542  -5.085 -35.207  1.00  0.00    -0.273 NA
HETATM   20  C   UNL     1      -6.770  -4.546 -35.318  1.00  0.00     0.117 A 
HETATM   21  C   UNL     1      -7.107  -3.293 -34.831  1.00  0.00     0.034 A 
ENDBRANCH  12  16
BRANCH  14  22
HETATM   22  C   UNL     1      -4.491   1.661 -32.319  1.00  0.00     0.037 C 
BRANCH  22  23
HETATM   23  C   UNL     1      -3.157   0.888 -32.406  1.00  0.00     0.006 C 
HETATM   24  C   UNL     1      -2.921  -0.040 -31.221  1.00  0.00     0.006 C 
ENDBRANCH  22  23
BRANCH  22  25
HETATM   25  C   UNL     1      -4.710   2.166 -30.877  1.00  0.00     0.006 C 
HETATM   26  C   UNL     1      -4.706   3.686 -30.761  1.00  0.00     0.006 C 
ENDBRANCH  22  25
ENDBRANCH  14  22
ENDBRANCH   1  10
BRANCH   4  27
HETATM   27  C   UNL     1      -8.756   4.749 -33.081  1.00  0.00     0.157 C 
BRANCH  27  28
HETATM   28  N   UNL     1      -7.521   4.669 -33.868  1.00  0.00    -0.341 N 
HETATM   29  C   UNL     1      -6.390   5.368 -33.518  1.00  0.00     0.320 C 
HETATM   30  N   UNL     1      -5.285   4.978 -34.227  1.00  0.00    -0.309 N 
HETATM   31  O   UNL     1      -6.442   6.260 -32.679  1.00  0.00    -0.247 OA
HETATM   32  H   UNL     1      -5.442   4.427 -35.059  1.00  0.00     0.170 HD
HETATM   33  H   UNL     1      -7.333   3.761 -34.278  1.00  0.00     0.164 HD
BRANCH  30  34
HETATM   34  C   UNL     1      -3.957   5.409 -34.003  1.00  0.00     0.037 A 
HETATM   35  C   UNL     1      -3.607   6.363 -33.043  1.00  0.00     0.044 A 
HETATM   36  C   UNL     1      -2.270   6.751 -32.858  1.00  0.00     0.011 A 
HETATM   37  C   UNL     1      -1.270   6.171 -33.643  1.00  0.00     0.015 A 
HETATM   38  C   UNL     1      -1.610   5.207 -34.595  1.00  0.00     0.003 A 
HETATM   39  C   UNL     1      -2.944   4.826 -34.772  1.00  0.00     0.029 A 
BRANCH  36  40
HETATM   40  C   UNL     1      -1.979   7.785 -31.821  1.00  0.00     0.155 C 
HETATM   41  C   UNL     1      -1.816   7.358 -30.386  1.00  0.00     0.096 C 
HETATM   42  O   UNL     1      -1.866   8.964 -32.152  1.00  0.00    -0.293 OA
ENDBRANCH  36  40
ENDBRANCH  30  34
ENDBRANCH  27  28
ENDBRANCH   4  27
TORSDOF 9
ENDMDL
MODEL 2
REMARK VINA RESULT:      -9.4      1.206      2.017
REMARK  9 active torsions:
REMARK  status: ('A' for Active; 'I' for Inactive)
REMARK    1  A    between atoms: C_2  and  C_3 
REMARK    2  A    between atoms: C_3  and  C_4 
REMARK    3  A    between atoms: C_3  and  C_39 
REMARK    4  A    between atoms: C_6  and  C_7 
REMARK    5  A    between atoms: C_14  and  C_15 
REMARK    6  A    between atoms: C_18  and  C_19 
REMARK    7  A    between atoms: C_19  and  N_20 
REMARK       I    between atoms: N_20  and  C_21 
REMARK       I    between atoms: C_21  and  N_22 
REMARK    8  A    between atoms: N_22  and  C_23 
REMARK    9  A    between atoms: C_25  and  C_26 
ROOT
HETATM    1  C   UNL     1     -10.162   1.031 -32.946  1.00  0.00     0.068 C 
HETATM    2  C   UNL     1     -10.705   1.363 -34.365  1.00  0.00     0.001 C 
HETATM    3  C   UNL     1     -10.325   2.813 -34.748  1.00  0.00     0.040 C 
HETATM    4  C   UNL     1     -11.017   3.822 -33.811  1.00  0.00     0.206 C 
HETATM    5  N   UNL     1     -11.642   3.006 -32.684  1.00  0.00    -0.065 N 
HETATM    6  H   UNL     1     -11.987   3.678 -31.965  1.00  0.00     0.280 HD
HETATM    7  C   UNL     1     -10.641   2.114 -31.962  1.00  0.00     0.246 C 
HETATM    8  C   UNL     1     -12.248   1.275 -34.305  1.00  0.00     0.033 C 
HETATM    9  C   UNL     1     -12.796   2.191 -33.206  1.00  0.00     0.236 C 
ENDROOT
BRANCH   1  10
HETATM   10  C   UNL     1      -8.664   0.821 -32.928  1.00  0.00     0.045 A 
HETATM   11  N   UNL     1      -8.178  -0.339 -33.418  1.00  0.00    -0.233 NA
HETATM   12  C   UNL     1      -6.838  -0.517 -33.357  1.00  0.00     0.160 A 
HETATM   13  N   UNL     1      -5.984   0.365 -32.810  1.00  0.00    -0.233 NA
HETATM   14  C   UNL     1      -6.492   1.512 -32.320  1.00  0.00     0.043 A 
HETATM   15  C   UNL     1      -7.846   1.783 -32.362  1.00  0.00     0.055 A 
BRANCH  12  16
HETATM   16  C   UNL     1      -6.268  -1.759 -33.911  1.00  0.00     0.014 A 
HETATM   17  C   UNL     1      -7.092  -2.774 -34.424  1.00  0.00     0.034 A 
HETATM   18  C   UNL     1      -6.518  -3.924 -34.942  1.00  0.00     0.117 A 
HETATM   19  N   UNL     1      -5.189  -4.138 -34.990  1.00  0.00    -0.273 NA
HETATM   20  C   UNL     1      -4.402  -3.171 -34.483  1.00  0.00     0.117 A 
HETATM   21  C   UNL     1      -4.885  -1.989 -33.944  1.00  0.00     0.034 A 
ENDBRANCH  12  16
BRANCH  14  22
HETATM   22  C   UNL     1      -5.530   2.494 -31.673  1.00  0.00     0.037 C 
BRANCH  22  23
HETATM   23  C   UNL     1      -4.058   2.115 -31.946  1.00  0.00     0.006 C 
HETATM   24  C   UNL     1      -3.069   3.191 -31.513  1.00  0.00     0.006 C 
ENDBRANCH  22  23
BRANCH  22  25
HETATM   25  C   UNL     1      -5.775   2.577 -30.151  1.00  0.00     0.006 C 
HETATM   26  C   UNL     1      -6.347   3.918 -29.703  1.00  0.00     0.006 C 
ENDBRANCH  22  25
ENDBRANCH  14  22
ENDBRANCH   1  10
BRANCH   4  27
HETATM   27  C   UNL     1     -10.077   4.956 -33.321  1.00  0.00     0.157 C 
BRANCH  27  28
HETATM   28  N   UNL     1      -8.668   4.843 -33.716  1.00  0.00    -0.341 N 
HETATM   29  C   UNL     1      -7.709   5.702 -33.233  1.00  0.00     0.320 C 
HETATM   30  N   UNL     1      -6.435   5.289 -33.522  1.00  0.00    -0.309 N 
HETATM   31  O   UNL     1      -8.028   6.731 -32.648  1.00  0.00    -0.247 OA
HETATM   32  H   UNL     1      -6.330   4.575 -34.229  1.00  0.00     0.170 HD
HETATM   33  H   UNL     1      -8.338   3.896 -33.858  1.00  0.00     0.164 HD
BRANCH  30  34
HETATM   34  C   UNL     1      -5.240   5.880 -33.049  1.00  0.00     0.037 A 
HETATM   35  C   UNL     1      -4.035   5.858 -33.758  1.00  0.00     0.044 A 
HETATM   36  C   UNL     1      -2.879   6.466 -33.244  1.00  0.00     0.011 A 
HETATM   37  C   UNL     1      -2.932   7.111 -32.006  1.00  0.00     0.015 A 
HETATM   38  C   UNL     1      -4.135   7.150 -31.298  1.00  0.00     0.003 A 
HETATM   39  C   UNL     1      -5.282   6.541 -31.817  1.00  0.00     0.029 A 
BRANCH  36  40
HETATM   40  C   UNL     1      -1.628   6.388 -34.056  1.00  0.00     0.155 C 
HETATM   41  C   UNL     1      -1.392   5.181 -34.925  1.00  0.00     0.096 C 
HETATM   42  O   UNL     1      -0.816   7.311 -34.013  1.00  0.00    -0.293 OA
ENDBRANCH  36  40
ENDBRANCH  30  34
ENDBRANCH  27  28
ENDBRANCH   4  27
TORSDOF 9
ENDMDL
MODEL 3
REMARK VINA RESULT:      -9.4      2.333      6.045
REMARK  9 active torsions:
REMARK  status: ('A' for Active; 'I' for Inactive)
REMARK    1  A    between atoms: C_2  and  C_3 
REMARK    2  A    between atoms: C_3  and  C_4 
REMARK    3  A    between atoms: C_3  and  C_39 
REMARK    4  A    between atoms: C_6  and  C_7 
REMARK    5  A    between atoms: C_14  and  C_15 
REMARK    6  A    between atoms: C_18  and  C_19 
REMARK    7  A    between atoms: C_19  and  N_20 
REMARK       I    between atoms: N_20  and  C_21 
REMARK       I    between atoms: C_21  and  N_22 
REMARK    8  A    between atoms: N_22  and  C_23 
REMARK    9  A    between atoms: C_25  and  C_26 
ROOT
HETATM    1  C   UNL     1      -8.298   0.574 -34.545  1.00  0.00     0.068 C 
HETATM    2  C   UNL     1      -8.249  -0.512 -33.434  1.00  0.00     0.001 C 
HETATM    3  C   UNL     1      -7.531   0.046 -32.182  1.00  0.00     0.040 C 
HETATM    4  C   UNL     1      -6.056   0.361 -32.496  1.00  0.00     0.206 C 
HETATM    5  N   UNL     1      -5.900   0.231 -34.008  1.00  0.00    -0.065 N 
HETATM    6  H   UNL     1      -4.949   0.581 -34.255  1.00  0.00     0.280 HD
HETATM    7  C   UNL     1      -6.872   1.103 -34.790  1.00  0.00     0.246 C 
HETATM    8  C   UNL     1      -7.411  -1.694 -33.975  1.00  0.00     0.033 C 
HETATM    9  C   UNL     1      -6.028  -1.211 -34.425  1.00  0.00     0.236 C 
ENDROOT
BRANCH   1  10
HETATM   10  C   UNL     1      -9.303   1.667 -34.251  1.00  0.00     0.045 A 
HETATM   11  N   UNL     1     -10.600   1.318 -34.115  1.00  0.00    -0.233 NA
HETATM   12  C   UNL     1     -11.483   2.318 -33.889  1.00  0.00     0.160 A 
HETATM   13  N   UNL     1     -11.150   3.619 -33.830  1.00  0.00    -0.233 NA
HETATM   14  C   UNL     1      -9.851   3.944 -33.975  1.00  0.00     0.043 A 
HETATM   15  C   UNL     1      -8.882   2.984 -34.189  1.00  0.00     0.055 A 
BRANCH  12  16
HETATM   16  C   UNL     1     -12.904   1.972 -33.705  1.00  0.00     0.014 A 
HETATM   17  C   UNL     1     -13.526   0.996 -34.500  1.00  0.00     0.034 A 
HETATM   18  C   UNL     1     -14.862   0.694 -34.292  1.00  0.00     0.117 A 
HETATM   19  N   UNL     1     -15.624   1.288 -33.354  1.00  0.00    -0.273 NA
HETATM   20  C   UNL     1     -15.031   2.235 -32.603  1.00  0.00     0.117 A 
HETATM   21  C   UNL     1     -13.702   2.604 -32.739  1.00  0.00     0.034 A 
ENDBRANCH  12  16
BRANCH  14  22
HETATM   22  C   UNL     1      -9.482   5.417 -33.941  1.00  0.00     0.037 C 
BRANCH  22  23
HETATM   23  C   UNL     1      -8.925   5.835 -32.563  1.00  0.00     0.006 C 
HETATM   24  C   UNL     1      -7.439   6.170 -32.590  1.00  0.00     0.006 C 
ENDBRANCH  22  23
BRANCH  22  25
HETATM   25  C   UNL     1     -10.699   6.296 -34.302  1.00  0.00     0.006 C 
HETATM   26  C   UNL     1     -10.524   7.065 -35.607  1.00  0.00     0.006 C 
ENDBRANCH  22  25
ENDBRANCH  14  22
ENDBRANCH   1  10
BRANCH   4  27
HETATM   27  C   UNL     1      -5.581   1.725 -31.928  1.00  0.00     0.157 C 
BRANCH  27  28
HETATM   28  N   UNL     1      -4.340   2.264 -32.495  1.00  0.00    -0.341 N 
HETATM   29  C   UNL     1      -3.870   3.512 -32.158  1.00  0.00     0.320 C 
HETATM   30  N   UNL     1      -2.591   3.732 -32.597  1.00  0.00    -0.309 N 
HETATM   31  O   UNL     1      -4.584   4.308 -31.561  1.00  0.00    -0.247 OA
HETATM   32  H   UNL     1      -2.227   3.099 -33.295  1.00  0.00     0.170 HD
HETATM   33  H   UNL     1      -3.611   1.580 -32.656  1.00  0.00     0.164 HD
BRANCH  30  34
HETATM   34  C   UNL     1      -1.788   4.856 -32.293  1.00  0.00     0.037 A 
HETATM   35  C   UNL     1      -1.096   5.007 -31.088  1.00  0.00     0.044 A 
HETATM   36  C   UNL     1      -0.308   6.142 -30.839  1.00  0.00     0.011 A 
HETATM   37  C   UNL     1      -0.207   7.137 -31.816  1.00  0.00     0.015 A 
HETATM   38  C   UNL     1      -0.883   6.987 -33.028  1.00  0.00     0.003 A 
HETATM   39  C   UNL     1      -1.666   5.853 -33.267  1.00  0.00     0.029 A 
BRANCH  36  40
HETATM   40  C   UNL     1       0.390   6.235 -29.523  1.00  0.00     0.155 C 
HETATM   41  C   UNL     1       0.613   7.590 -28.906  1.00  0.00     0.096 C 
HETATM   42  O   UNL     1       0.762   5.208 -28.957  1.00  0.00    -0.293 OA
ENDBRANCH  36  40
ENDBRANCH  30  34
ENDBRANCH  27  28
ENDBRANCH   4  27
TORSDOF 9
ENDMDL
MODEL 4
REMARK VINA RESULT:      -9.3      2.377      6.548
REMARK  9 active torsions:
REMARK  status: ('A' for Active; 'I' for Inactive)
REMARK    1  A    between atoms: C_2  and  C_3 
REMARK    2  A    between atoms: C_3  and  C_4 
REMARK    3  A    between atoms: C_3  and  C_39 
REMARK    4  A    between atoms: C_6  and  C_7 
REMARK    5  A    between atoms: C_14  and  C_15 
REMARK    6  A    between atoms: C_18  and  C_19 
REMARK    7  A    between atoms: C_19  and  N_20 
REMARK       I    between atoms: N_20  and  C_21 
REMARK       I    between atoms: C_21  and  N_22 
REMARK    8  A    between atoms: N_22  and  C_23 
REMARK    9  A    between atoms: C_25  and  C_26 
ROOT
HETATM    1  C   UNL     1      -8.049   0.354 -34.186  1.00  0.00     0.068 C 
HETATM    2  C   UNL     1      -7.817  -0.901 -33.298  1.00  0.00     0.001 C 
HETATM    3  C   UNL     1      -6.947  -0.528 -32.074  1.00  0.00     0.040 C 
HETATM    4  C   UNL     1      -5.539  -0.089 -32.521  1.00  0.00     0.206 C 
HETATM    5  N   UNL     1      -5.592   0.047 -34.040  1.00  0.00    -0.065 N 
HETATM    6  H   UNL     1      -4.695   0.482 -34.346  1.00  0.00     0.280 HD
HETATM    7  C   UNL     1      -6.687   0.988 -34.521  1.00  0.00     0.246 C 
HETATM    8  C   UNL     1      -7.031  -1.930 -34.144  1.00  0.00     0.033 C 
HETATM    9  C   UNL     1      -5.737  -1.308 -34.682  1.00  0.00     0.236 C 
ENDROOT
BRANCH   1  10
HETATM   10  C   UNL     1      -9.033   1.328 -33.574  1.00  0.00     0.045 A 
HETATM   11  N   UNL     1      -8.585   2.169 -32.618  1.00  0.00    -0.233 NA
HETATM   12  C   UNL     1      -9.493   3.004 -32.062  1.00  0.00     0.160 A 
HETATM   13  N   UNL     1     -10.800   3.015 -32.377  1.00  0.00    -0.233 NA
HETATM   14  C   UNL     1     -11.225   2.163 -33.329  1.00  0.00     0.043 A 
HETATM   15  C   UNL     1     -10.362   1.291 -33.962  1.00  0.00     0.055 A 
BRANCH  12  16
HETATM   16  C   UNL     1      -9.034   3.957 -31.036  1.00  0.00     0.014 A 
HETATM   17  C   UNL     1      -7.869   3.720 -30.289  1.00  0.00     0.034 A 
HETATM   18  C   UNL     1      -7.467   4.644 -29.338  1.00  0.00     0.117 A 
HETATM   19  N   UNL     1      -8.135   5.784 -29.076  1.00  0.00    -0.273 NA
HETATM   20  C   UNL     1      -9.260   6.002 -29.781  1.00  0.00     0.117 A 
HETATM   21  C   UNL     1      -9.740   5.136 -30.751  1.00  0.00     0.034 A 
ENDBRANCH  12  16
BRANCH  14  22
HETATM   22  C   UNL     1     -12.708   2.154 -33.661  1.00  0.00     0.037 C 
BRANCH  22  23
HETATM   23  C   UNL     1     -13.143   0.818 -34.302  1.00  0.00     0.006 C 
HETATM   24  C   UNL     1     -14.653   0.616 -34.305  1.00  0.00     0.006 C 
ENDBRANCH  22  23
BRANCH  22  25
HETATM   25  C   UNL     1     -13.065   3.326 -34.602  1.00  0.00     0.006 C 
HETATM   26  C   UNL     1     -12.340   3.267 -35.942  1.00  0.00     0.006 C 
ENDBRANCH  22  25
ENDBRANCH  14  22
ENDBRANCH   1  10
BRANCH   4  27
HETATM   27  C   UNL     1      -5.026   1.181 -31.792  1.00  0.00     0.157 C 
BRANCH  27  28
HETATM   28  N   UNL     1      -4.025   1.978 -32.509  1.00  0.00    -0.341 N 
HETATM   29  C   UNL     1      -3.590   3.193 -32.034  1.00  0.00     0.320 C 
HETATM   30  N   UNL     1      -2.492   3.662 -32.707  1.00  0.00    -0.309 N 
HETATM   31  O   UNL     1      -4.188   3.761 -31.128  1.00  0.00    -0.247 OA
HETATM   32  H   UNL     1      -2.271   3.225 -33.590  1.00  0.00     0.170 HD
HETATM   33  H   UNL     1      -3.309   1.441 -32.982  1.00  0.00     0.164 HD
BRANCH  30  34
HETATM   34  C   UNL     1      -1.735   4.808 -32.369  1.00  0.00     0.037 A 
HETATM   35  C   UNL     1      -1.065   4.959 -31.151  1.00  0.00     0.044 A 
HETATM   36  C   UNL     1      -0.322   6.116 -30.869  1.00  0.00     0.011 A 
HETATM   37  C   UNL     1      -0.244   7.133 -31.824  1.00  0.00     0.015 A 
HETATM   38  C   UNL     1      -0.898   6.984 -33.048  1.00  0.00     0.003 A 
HETATM   39  C   UNL     1      -1.636   5.828 -33.321  1.00  0.00     0.029 A 
BRANCH  36  40
HETATM   40  C   UNL     1       0.354   6.207 -29.541  1.00  0.00     0.155 C 
HETATM   41  C   UNL     1       0.539   7.559 -28.904  1.00  0.00     0.096 C 
HETATM   42  O   UNL     1       0.739   5.181 -28.982  1.00  0.00    -0.293 OA
ENDBRANCH  36  40
ENDBRANCH  30  34
ENDBRANCH  27  28
ENDBRANCH   4  27
TORSDOF 9
ENDMDL
MODEL 5
REMARK VINA RESULT:      -9.0      3.428      7.968
REMARK  9 active torsions:
REMARK  status: ('A' for Active; 'I' for Inactive)
REMARK    1  A    between atoms: C_2  and  C_3 
REMARK    2  A    between atoms: C_3  and  C_4 
REMARK    3  A    between atoms: C_3  and  C_39 
REMARK    4  A    between atoms: C_6  and  C_7 
REMARK    5  A    between atoms: C_14  and  C_15 
REMARK    6  A    between atoms: C_18  and  C_19 
REMARK    7  A    between atoms: C_19  and  N_20 
REMARK       I    between atoms: N_20  and  C_21 
REMARK       I    between atoms: C_21  and  N_22 
REMARK    8  A    between atoms: N_22  and  C_23 
REMARK    9  A    between atoms: C_25  and  C_26 
ROOT
HETATM    1  C   UNL     1      -9.980   4.910 -33.703  1.00  0.00     0.068 C 
HETATM    2  C   UNL     1     -11.437   4.897 -33.160  1.00  0.00     0.001 C 
HETATM    3  C   UNL     1     -11.845   3.454 -32.780  1.00  0.00     0.040 C 
HETATM    4  C   UNL     1     -11.877   2.551 -34.028  1.00  0.00     0.206 C 
HETATM    5  N   UNL     1     -11.256   3.360 -35.161  1.00  0.00    -0.065 N 
HETATM    6  H   UNL     1     -11.134   2.718 -35.975  1.00  0.00     0.280 HD
HETATM    7  C   UNL     1      -9.860   3.876 -34.837  1.00  0.00     0.246 C 
HETATM    8  C   UNL     1     -12.364   5.367 -34.305  1.00  0.00     0.033 C 
HETATM    9  C   UNL     1     -12.163   4.497 -35.551  1.00  0.00     0.236 C 
ENDROOT
BRANCH   1  10
HETATM   10  C   UNL     1      -8.948   4.728 -32.610  1.00  0.00     0.045 A 
HETATM   11  N   UNL     1      -8.930   5.621 -31.598  1.00  0.00    -0.233 NA
HETATM   12  C   UNL     1      -7.975   5.457 -30.654  1.00  0.00     0.160 A 
HETATM   13  N   UNL     1      -7.037   4.494 -30.689  1.00  0.00    -0.233 NA
HETATM   14  C   UNL     1      -7.071   3.619 -31.712  1.00  0.00     0.043 A 
HETATM   15  C   UNL     1      -8.025   3.701 -32.707  1.00  0.00     0.055 A 
BRANCH  12  16
HETATM   16  C   UNL     1      -7.942   6.394 -29.517  1.00  0.00     0.014 A 
HETATM   17  C   UNL     1      -9.125   6.848 -28.912  1.00  0.00     0.034 A 
HETATM   18  C   UNL     1      -9.053   7.725 -27.841  1.00  0.00     0.117 A 
HETATM   19  N   UNL     1      -7.894   8.180 -27.326  1.00  0.00    -0.273 NA
HETATM   20  C   UNL     1      -6.761   7.756 -27.917  1.00  0.00     0.117 A 
HETATM   21  C   UNL     1      -6.735   6.882 -28.993  1.00  0.00     0.034 A 
ENDBRANCH  12  16
BRANCH  14  22
HETATM   22  C   UNL     1      -5.992   2.551 -31.767  1.00  0.00     0.037 C 
BRANCH  22  23
HETATM   23  C   UNL     1      -5.760   1.900 -30.386  1.00  0.00     0.006 C 
HETATM   24  C   UNL     1      -6.267   0.466 -30.304  1.00  0.00     0.006 C 
ENDBRANCH  22  23
BRANCH  22  25
HETATM   25  C   UNL     1      -4.666   3.140 -32.297  1.00  0.00     0.006 C 
HETATM   26  C   UNL     1      -3.458   2.250 -32.025  1.00  0.00     0.006 C 
ENDBRANCH  22  25
ENDBRANCH  14  22
ENDBRANCH   1  10
BRANCH   4  27
HETATM   27  C   UNL     1     -11.213   1.165 -33.805  1.00  0.00     0.157 C 
BRANCH  27  28
HETATM   28  N   UNL     1      -9.936   0.942 -34.491  1.00  0.00    -0.341 N 
HETATM   29  C   UNL     1      -8.894   0.280 -33.887  1.00  0.00     0.320 C 
HETATM   30  N   UNL     1      -7.889  -0.037 -34.762  1.00  0.00    -0.309 N 
HETATM   31  O   UNL     1      -8.907   0.062 -32.681  1.00  0.00    -0.247 OA
HETATM   32  H   UNL     1      -7.891   0.432 -35.657  1.00  0.00     0.170 HD
HETATM   33  H   UNL     1     -10.009   0.771 -35.487  1.00  0.00     0.164 HD
BRANCH  30  34
HETATM   34  C   UNL     1      -6.754  -0.831 -34.475  1.00  0.00     0.037 A 
HETATM   35  C   UNL     1      -6.689  -2.204 -34.728  1.00  0.00     0.044 A 
HETATM   36  C   UNL     1      -5.535  -2.945 -34.429  1.00  0.00     0.011 A 
HETATM   37  C   UNL     1      -4.427  -2.298 -33.875  1.00  0.00     0.015 A 
HETATM   38  C   UNL     1      -4.478  -0.924 -33.632  1.00  0.00     0.003 A 
HETATM   39  C   UNL     1      -5.633  -0.195 -33.933  1.00  0.00     0.029 A 
BRANCH  36  40
HETATM   40  C   UNL     1      -5.549  -4.410 -34.717  1.00  0.00     0.155 C 
HETATM   41  C   UNL     1      -4.465  -5.281 -34.139  1.00  0.00     0.096 C 
HETATM   42  O   UNL     1      -6.447  -4.885 -35.411  1.00  0.00    -0.293 OA
ENDBRANCH  36  40
ENDBRANCH  30  34
ENDBRANCH  27  28
ENDBRANCH   4  27
TORSDOF 9
ENDMDL
MODEL 6
REMARK VINA RESULT:      -8.9      3.747      8.834
REMARK  9 active torsions:
REMARK  status: ('A' for Active; 'I' for Inactive)
REMARK    1  A    between atoms: C_2  and  C_3 
REMARK    2  A    between atoms: C_3  and  C_4 
REMARK    3  A    between atoms: C_3  and  C_39 
REMARK    4  A    between atoms: C_6  and  C_7 
REMARK    5  A    between atoms: C_14  and  C_15 
REMARK    6  A    between atoms: C_18  and  C_19 
REMARK    7  A    between atoms: C_19  and  N_20 
REMARK       I    between atoms: N_20  and  C_21 
REMARK       I    between atoms: C_21  and  N_22 
REMARK    8  A    between atoms: N_22  and  C_23 
REMARK    9  A    between atoms: C_25  and  C_26 
ROOT
HETATM    1  C   UNL     1      -5.160   7.557 -29.788  1.00  0.00     0.068 C 
HETATM    2  C   UNL     1      -6.043   6.713 -28.826  1.00  0.00     0.001 C 
HETATM    3  C   UNL     1      -6.495   5.411 -29.530  1.00  0.00     0.040 C 
HETATM    4  C   UNL     1      -7.407   5.732 -30.730  1.00  0.00     0.206 C 
HETATM    5  N   UNL     1      -7.338   7.242 -30.933  1.00  0.00    -0.065 N 
HETATM    6  H   UNL     1      -7.830   7.460 -31.827  1.00  0.00     0.280 HD
HETATM    7  C   UNL     1      -5.918   7.760 -31.112  1.00  0.00     0.246 C 
HETATM    8  C   UNL     1      -7.307   7.544 -28.505  1.00  0.00     0.033 C 
HETATM    9  C   UNL     1      -8.023   7.955 -29.797  1.00  0.00     0.236 C 
ENDROOT
BRANCH   1  10
HETATM   10  C   UNL     1      -3.774   6.977 -29.969  1.00  0.00     0.045 A 
HETATM   11  N   UNL     1      -2.814   7.337 -29.092  1.00  0.00    -0.233 NA
HETATM   12  C   UNL     1      -1.575   6.833 -29.298  1.00  0.00     0.160 A 
HETATM   13  N   UNL     1      -1.247   6.038 -30.331  1.00  0.00    -0.233 NA
HETATM   14  C   UNL     1      -2.220   5.698 -31.198  1.00  0.00     0.043 A 
HETATM   15  C   UNL     1      -3.516   6.151 -31.050  1.00  0.00     0.055 A 
BRANCH  12  16
HETATM   16  C   UNL     1      -0.507   7.180 -28.343  1.00  0.00     0.014 A 
HETATM   17  C   UNL     1       0.537   8.046 -28.700  1.00  0.00     0.034 A 
HETATM   18  C   UNL     1       1.519   8.353 -27.772  1.00  0.00     0.117 A 
HETATM   19  N   UNL     1       1.538   7.865 -26.516  1.00  0.00    -0.273 NA
HETATM   20  C   UNL     1       0.544   7.022 -26.180  1.00  0.00     0.117 A 
HETATM   21  C   UNL     1      -0.479   6.657 -27.041  1.00  0.00     0.034 A 
ENDBRANCH  12  16
BRANCH  14  22
HETATM   22  C   UNL     1      -1.840   4.826 -32.383  1.00  0.00     0.037 C 
BRANCH  22  23
HETATM   23  C   UNL     1      -1.554   5.670 -33.645  1.00  0.00     0.006 C 
HETATM   24  C   UNL     1      -1.990   4.989 -34.936  1.00  0.00     0.006 C 
ENDBRANCH  22  23
BRANCH  22  25
HETATM   25  C   UNL     1      -2.950   3.796 -32.684  1.00  0.00     0.006 C 
HETATM   26  C   UNL     1      -3.150   2.779 -31.566  1.00  0.00     0.006 C 
ENDBRANCH  22  25
ENDBRANCH  14  22
ENDBRANCH   1  10
BRANCH   4  27
HETATM   27  C   UNL     1      -7.067   4.908 -32.002  1.00  0.00     0.157 C 
BRANCH  27  28
HETATM   28  N   UNL     1      -7.363   3.473 -31.941  1.00  0.00    -0.341 N 
HETATM   29  C   UNL     1      -6.715   2.563 -32.743  1.00  0.00     0.320 C 
HETATM   30  N   UNL     1      -6.950   1.266 -32.371  1.00  0.00    -0.309 N 
HETATM   31  O   UNL     1      -6.044   2.939 -33.697  1.00  0.00    -0.247 OA
HETATM   32  H   UNL     1      -7.723   1.100 -31.742  1.00  0.00     0.170 HD
HETATM   33  H   UNL     1      -7.585   3.121 -31.017  1.00  0.00     0.164 HD
BRANCH  30  34
HETATM   34  C   UNL     1      -6.324   0.118 -32.909  1.00  0.00     0.037 A 
HETATM   35  C   UNL     1      -5.178  -0.464 -32.361  1.00  0.00     0.044 A 
HETATM   36  C   UNL     1      -4.599  -1.608 -32.933  1.00  0.00     0.011 A 
HETATM   37  C   UNL     1      -5.182  -2.180 -34.067  1.00  0.00     0.015 A 
HETATM   38  C   UNL     1      -6.335  -1.613 -34.613  1.00  0.00     0.003 A 
HETATM   39  C   UNL     1      -6.905  -0.474 -34.036  1.00  0.00     0.029 A 
BRANCH  36  40
HETATM   40  C   UNL     1      -3.368  -2.163 -32.296  1.00  0.00     0.155 C 
HETATM   41  C   UNL     1      -2.317  -1.214 -31.784  1.00  0.00     0.096 C 
HETATM   42  O   UNL     1      -3.233  -3.381 -32.189  1.00  0.00    -0.293 OA
ENDBRANCH  36  40
ENDBRANCH  30  34
ENDBRANCH  27  28
ENDBRANCH   4  27
TORSDOF 9
ENDMDL
MODEL 7
REMARK VINA RESULT:      -8.9      2.325      5.071
REMARK  9 active torsions:
REMARK  status: ('A' for Active; 'I' for Inactive)
REMARK    1  A    between atoms: C_2  and  C_3 
REMARK    2  A    between atoms: C_3  and  C_4 
REMARK    3  A    between atoms: C_3  and  C_39 
REMARK    4  A    between atoms: C_6  and  C_7 
REMARK    5  A    between atoms: C_14  and  C_15 
REMARK    6  A    between atoms: C_18  and  C_19 
REMARK    7  A    between atoms: C_19  and  N_20 
REMARK       I    between atoms: N_20  and  C_21 
REMARK       I    between atoms: C_21  and  N_22 
REMARK    8  A    between atoms: N_22  and  C_23 
REMARK    9  A    between atoms: C_25  and  C_26 
ROOT
HETATM    1  C   UNL     1      -9.352   3.770 -31.095  1.00  0.00     0.068 C 
HETATM    2  C   UNL     1      -9.805   5.152 -31.645  1.00  0.00     0.001 C 
HETATM    3  C   UNL     1      -8.771   5.676 -32.671  1.00  0.00     0.040 C 
HETATM    4  C   UNL     1      -7.415   5.942 -31.990  1.00  0.00     0.206 C 
HETATM    5  N   UNL     1      -7.518   5.361 -30.583  1.00  0.00    -0.065 N 
HETATM    6  H   UNL     1      -6.566   5.400 -30.158  1.00  0.00     0.280 HD
HETATM    7  C   UNL     1      -7.910   3.890 -30.568  1.00  0.00     0.246 C 
HETATM    8  C   UNL     1      -9.835   6.140 -30.455  1.00  0.00     0.033 C 
HETATM    9  C   UNL     1      -8.474   6.172 -29.749  1.00  0.00     0.236 C 
ENDROOT
BRANCH   1  10
HETATM   10  C   UNL     1      -9.536   2.653 -32.099  1.00  0.00     0.045 A 
HETATM   11  N   UNL     1      -8.487   1.840 -32.347  1.00  0.00    -0.233 NA
HETATM   12  C   UNL     1      -8.667   0.873 -33.275  1.00  0.00     0.160 A 
HETATM   13  N   UNL     1      -9.799   0.704 -33.979  1.00  0.00    -0.233 NA
HETATM   14  C   UNL     1     -10.830   1.531 -33.721  1.00  0.00     0.043 A 
HETATM   15  C   UNL     1     -10.739   2.532 -32.774  1.00  0.00     0.055 A 
BRANCH  12  16
HETATM   16  C   UNL     1      -7.553  -0.053 -33.549  1.00  0.00     0.014 A 
HETATM   17  C   UNL     1      -6.545  -0.282 -32.600  1.00  0.00     0.034 A 
HETATM   18  C   UNL     1      -5.518  -1.166 -32.892  1.00  0.00     0.117 A 
HETATM   19  N   UNL     1      -5.420  -1.837 -34.056  1.00  0.00    -0.273 NA
HETATM   20  C   UNL     1      -6.378  -1.603 -34.972  1.00  0.00     0.117 A 
HETATM   21  C   UNL     1      -7.442  -0.738 -34.769  1.00  0.00     0.034 A 
ENDBRANCH  12  16
BRANCH  14  22
HETATM   22  C   UNL     1     -12.098   1.360 -34.540  1.00  0.00     0.037 C 
BRANCH  22  23
HETATM   23  C   UNL     1     -12.800   2.712 -34.797  1.00  0.00     0.006 C 
HETATM   24  C   UNL     1     -12.364   3.378 -36.096  1.00  0.00     0.006 C 
ENDBRANCH  22  23
BRANCH  22  25
HETATM   25  C   UNL     1     -13.075   0.389 -33.841  1.00  0.00     0.006 C 
HETATM   26  C   UNL     1     -14.539   0.673 -34.157  1.00  0.00     0.006 C 
ENDBRANCH  22  25
ENDBRANCH  14  22
ENDBRANCH   1  10
BRANCH   4  27
HETATM   27  C   UNL     1      -6.201   5.417 -32.802  1.00  0.00     0.157 C 
BRANCH  27  28
HETATM   28  N   UNL     1      -4.976   6.219 -32.723  1.00  0.00    -0.341 N 
HETATM   29  C   UNL     1      -4.041   6.020 -31.735  1.00  0.00     0.320 C 
HETATM   30  N   UNL     1      -2.869   6.690 -31.970  1.00  0.00    -0.309 N 
HETATM   31  O   UNL     1      -4.305   5.334 -30.754  1.00  0.00    -0.247 OA
HETATM   32  H   UNL     1      -2.887   7.418 -32.670  1.00  0.00     0.170 HD
HETATM   33  H   UNL     1      -4.578   6.483 -33.617  1.00  0.00     0.164 HD
BRANCH  30  34
HETATM   34  C   UNL     1      -1.680   6.579 -31.214  1.00  0.00     0.037 A 
HETATM   35  C   UNL     1      -1.371   7.413 -30.135  1.00  0.00     0.044 A 
HETATM   36  C   UNL     1      -0.176   7.256 -29.413  1.00  0.00     0.011 A 
HETATM   37  C   UNL     1       0.718   6.244 -29.775  1.00  0.00     0.015 A 
HETATM   38  C   UNL     1       0.410   5.398 -30.842  1.00  0.00     0.003 A 
HETATM   39  C   UNL     1      -0.782   5.562 -31.555  1.00  0.00     0.029 A 
BRANCH  36  40
HETATM   40  C   UNL     1       0.087   8.194 -28.282  1.00  0.00     0.155 C 
HETATM   41  C   UNL     1       1.508   8.433 -27.844  1.00  0.00     0.096 C 
HETATM   42  O   UNL     1      -0.854   8.766 -27.734  1.00  0.00    -0.293 OA
ENDBRANCH  36  40
ENDBRANCH  30  34
ENDBRANCH  27  28
ENDBRANCH   4  27
TORSDOF 9
ENDMDL
MODEL 8
REMARK VINA RESULT:      -8.8      3.057      8.777
REMARK  9 active torsions:
REMARK  status: ('A' for Active; 'I' for Inactive)
REMARK    1  A    between atoms: C_2  and  C_3 
REMARK    2  A    between atoms: C_3  and  C_4 
REMARK    3  A    between atoms: C_3  and  C_39 
REMARK    4  A    between atoms: C_6  and  C_7 
REMARK    5  A    between atoms: C_14  and  C_15 
REMARK    6  A    between atoms: C_18  and  C_19 
REMARK    7  A    between atoms: C_19  and  N_20 
REMARK       I    between atoms: N_20  and  C_21 
REMARK       I    between atoms: C_21  and  N_22 
REMARK    8  A    between atoms: N_22  and  C_23 
REMARK    9  A    between atoms: C_25  and  C_26 
ROOT
HETATM    1  C   UNL     1      -3.759   1.214 -31.529  1.00  0.00     0.068 C 
HETATM    2  C   UNL     1      -3.567   0.580 -32.936  1.00  0.00     0.001 C 
HETATM    3  C   UNL     1      -4.939   0.160 -33.516  1.00  0.00     0.040 C 
HETATM    4  C   UNL     1      -5.574  -0.952 -32.660  1.00  0.00     0.206 C 
HETATM    5  N   UNL     1      -4.720  -1.070 -31.402  1.00  0.00    -0.065 N 
HETATM    6  H   UNL     1      -5.215  -1.712 -30.747  1.00  0.00     0.280 HD
HETATM    7  C   UNL     1      -4.572   0.246 -30.651  1.00  0.00     0.246 C 
HETATM    8  C   UNL     1      -2.715  -0.699 -32.757  1.00  0.00     0.033 C 
HETATM    9  C   UNL     1      -3.368  -1.642 -31.739  1.00  0.00     0.236 C 
ENDROOT
BRANCH   1  10
HETATM   10  C   UNL     1      -4.346   2.608 -31.592  1.00  0.00     0.045 A 
HETATM   11  N   UNL     1      -3.542   3.620 -31.982  1.00  0.00    -0.233 NA
HETATM   12  C   UNL     1      -4.080   4.860 -31.995  1.00  0.00     0.160 A 
HETATM   13  N   UNL     1      -5.338   5.141 -31.612  1.00  0.00    -0.233 NA
HETATM   14  C   UNL     1      -6.120   4.116 -31.220  1.00  0.00     0.043 A 
HETATM   15  C   UNL     1      -5.656   2.816 -31.197  1.00  0.00     0.055 A 
BRANCH  12  16
HETATM   16  C   UNL     1      -3.241   5.986 -32.444  1.00  0.00     0.014 A 
HETATM   17  C   UNL     1      -3.074   7.133 -31.651  1.00  0.00     0.034 A 
HETATM   18  C   UNL     1      -2.272   8.168 -32.105  1.00  0.00     0.117 A 
HETATM   19  N   UNL     1      -1.624   8.146 -33.286  1.00  0.00    -0.273 NA
HETATM   20  C   UNL     1      -1.798   7.053 -34.052  1.00  0.00     0.117 A 
HETATM   21  C   UNL     1      -2.581   5.970 -33.682  1.00  0.00     0.034 A 
ENDBRANCH  12  16
BRANCH  14  22
HETATM   22  C   UNL     1      -7.530   4.439 -30.756  1.00  0.00     0.037 C 
BRANCH  22  23
HETATM   23  C   UNL     1      -7.675   4.297 -29.225  1.00  0.00     0.006 C 
HETATM   24  C   UNL     1      -7.154   5.505 -28.457  1.00  0.00     0.006 C 
ENDBRANCH  22  23
BRANCH  22  25
HETATM   25  C   UNL     1      -8.560   3.533 -31.465  1.00  0.00     0.006 C 
HETATM   26  C   UNL     1      -9.996   3.788 -31.022  1.00  0.00     0.006 C 
ENDBRANCH  22  25
ENDBRANCH  14  22
ENDBRANCH   1  10
BRANCH   4  27
HETATM   27  C   UNL     1      -7.084  -0.729 -32.378  1.00  0.00     0.157 C 
BRANCH  27  28
HETATM   28  N   UNL     1      -7.868  -0.151 -33.475  1.00  0.00    -0.341 N 
HETATM   29  C   UNL     1      -9.124   0.371 -33.273  1.00  0.00     0.320 C 
HETATM   30  N   UNL     1      -9.586   1.073 -34.355  1.00  0.00    -0.309 N 
HETATM   31  O   UNL     1      -9.727   0.160 -32.227  1.00  0.00    -0.247 OA
HETATM   32  H   UNL     1      -9.102   0.941 -35.231  1.00  0.00     0.170 HD
HETATM   33  H   UNL     1      -7.326   0.341 -34.175  1.00  0.00     0.164 HD
BRANCH  30  34
HETATM   34  C   UNL     1     -10.775   1.837 -34.406  1.00  0.00     0.037 A 
HETATM   35  C   UNL     1     -12.044   1.306 -34.157  1.00  0.00     0.044 A 
HETATM   36  C   UNL     1     -13.194   2.111 -34.216  1.00  0.00     0.011 A 
HETATM   37  C   UNL     1     -13.068   3.468 -34.522  1.00  0.00     0.015 A 
HETATM   38  C   UNL     1     -11.803   4.010 -34.758  1.00  0.00     0.003 A 
HETATM   39  C   UNL     1     -10.663   3.200 -34.697  1.00  0.00     0.029 A 
BRANCH  36  40
HETATM   40  C   UNL     1     -14.514   1.466 -33.950  1.00  0.00     0.155 C 
HETATM   41  C   UNL     1     -15.261   1.818 -32.691  1.00  0.00     0.096 C 
HETATM   42  O   UNL     1     -14.977   0.668 -34.764  1.00  0.00    -0.293 OA
ENDBRANCH  36  40
ENDBRANCH  30  34
ENDBRANCH  27  28
ENDBRANCH   4  27
TORSDOF 9
ENDMDL
MODEL 9
REMARK VINA RESULT:      -8.7      2.754      5.413
REMARK  9 active torsions:
REMARK  status: ('A' for Active; 'I' for Inactive)
REMARK    1  A    between atoms: C_2  and  C_3 
REMARK    2  A    between atoms: C_3  and  C_4 
REMARK    3  A    between atoms: C_3  and  C_39 
REMARK    4  A    between atoms: C_6  and  C_7 
REMARK    5  A    between atoms: C_14  and  C_15 
REMARK    6  A    between atoms: C_18  and  C_19 
REMARK    7  A    between atoms: C_19  and  N_20 
REMARK       I    between atoms: N_20  and  C_21 
REMARK       I    between atoms: C_21  and  N_22 
REMARK    8  A    between atoms: N_22  and  C_23 
REMARK    9  A    between atoms: C_25  and  C_26 
ROOT
HETATM    1  C   UNL     1      -8.668   4.235 -30.545  1.00  0.00     0.068 C 
HETATM    2  C   UNL     1      -9.247   5.547 -31.146  1.00  0.00     0.001 C 
HETATM    3  C   UNL     1      -8.317   6.068 -32.268  1.00  0.00     0.040 C 
HETATM    4  C   UNL     1      -6.943   6.465 -31.695  1.00  0.00     0.206 C 
HETATM    5  N   UNL     1      -6.918   5.969 -30.253  1.00  0.00    -0.065 N 
HETATM    6  H   UNL     1      -5.947   6.097 -29.895  1.00  0.00     0.280 HD
HETATM    7  C   UNL     1      -7.207   4.480 -30.123  1.00  0.00     0.246 C 
HETATM    8  C   UNL     1      -9.270   6.604 -30.018  1.00  0.00     0.033 C 
HETATM    9  C   UNL     1      -7.873   6.769 -29.407  1.00  0.00     0.236 C 
ENDROOT
BRANCH   1  10
HETATM   10  C   UNL     1      -8.837   3.046 -31.467  1.00  0.00     0.045 A 
HETATM   11  N   UNL     1     -10.024   2.888 -32.091  1.00  0.00    -0.233 NA
HETATM   12  C   UNL     1     -10.161   1.798 -32.880  1.00  0.00     0.160 A 
HETATM   13  N   UNL     1      -9.211   0.861 -33.044  1.00  0.00    -0.233 NA
HETATM   14  C   UNL     1      -8.037   1.036 -32.406  1.00  0.00     0.043 A 
HETATM   15  C   UNL     1      -7.806   2.131 -31.598  1.00  0.00     0.055 A 
BRANCH  12  16
HETATM   16  C   UNL     1     -11.432   1.608 -33.601  1.00  0.00     0.014 A 
HETATM   17  C   UNL     1     -11.965   2.618 -34.418  1.00  0.00     0.034 A 
HETATM   18  C   UNL     1     -13.159   2.399 -35.086  1.00  0.00     0.117 A 
HETATM   19  N   UNL     1     -13.861   1.252 -35.002  1.00  0.00    -0.273 NA
HETATM   20  C   UNL     1     -13.358   0.291 -34.206  1.00  0.00     0.117 A 
HETATM   21  C   UNL     1     -12.172   0.420 -33.500  1.00  0.00     0.034 A 
ENDBRANCH  12  16
BRANCH  14  22
HETATM   22  C   UNL     1      -6.977  -0.040 -32.567  1.00  0.00     0.037 C 
BRANCH  22  23
HETATM   23  C   UNL     1      -5.751   0.226 -31.666  1.00  0.00     0.006 C 
HETATM   24  C   UNL     1      -4.634  -0.793 -31.852  1.00  0.00     0.006 C 
ENDBRANCH  22  23
BRANCH  22  25
HETATM   25  C   UNL     1      -6.528  -0.151 -34.040  1.00  0.00     0.006 C 
HETATM   26  C   UNL     1      -6.894  -1.483 -34.685  1.00  0.00     0.006 C 
ENDBRANCH  22  25
ENDBRANCH  14  22
ENDBRANCH   1  10
BRANCH   4  27
HETATM   27  C   UNL     1      -5.749   5.968 -32.554  1.00  0.00     0.157 C 
BRANCH  27  28
HETATM   28  N   UNL     1      -4.449   6.587 -32.272  1.00  0.00    -0.341 N 
HETATM   29  C   UNL     1      -3.600   6.088 -31.313  1.00  0.00     0.320 C 
HETATM   30  N   UNL     1      -2.351   6.647 -31.367  1.00  0.00    -0.309 N 
HETATM   31  O   UNL     1      -3.994   5.259 -30.500  1.00  0.00    -0.247 OA
HETATM   32  H   UNL     1      -2.249   7.495 -31.906  1.00  0.00     0.170 HD
HETATM   33  H   UNL     1      -3.975   6.973 -33.080  1.00  0.00     0.164 HD
BRANCH  30  34
HETATM   34  C   UNL     1      -1.226   6.249 -30.609  1.00  0.00     0.037 A 
HETATM   35  C   UNL     1      -0.882   6.821 -29.380  1.00  0.00     0.044 A 
HETATM   36  C   UNL     1       0.244   6.384 -28.665  1.00  0.00     0.011 A 
HETATM   37  C   UNL     1       1.033   5.355 -29.185  1.00  0.00     0.015 A 
HETATM   38  C   UNL     1       0.689   4.769 -30.405  1.00  0.00     0.003 A 
HETATM   39  C   UNL     1      -0.435   5.210 -31.110  1.00  0.00     0.029 A 
BRANCH  36  40
HETATM   40  C   UNL     1       0.551   7.054 -27.366  1.00  0.00     0.155 C 
HETATM   41  C   UNL     1       1.475   8.243 -27.355  1.00  0.00     0.096 C 
HETATM   42  O   UNL     1       0.040   6.634 -26.329  1.00  0.00    -0.293 OA
ENDBRANCH  36  40
ENDBRANCH  30  34
ENDBRANCH  27  28
ENDBRANCH   4  27
TORSDOF 9
ENDMDL
MODEL 10
REMARK VINA RESULT:      -8.7      2.651      7.469
REMARK  9 active torsions:
REMARK  status: ('A' for Active; 'I' for Inactive)
REMARK    1  A    between atoms: C_2  and  C_3 
REMARK    2  A    between atoms: C_3  and  C_4 
REMARK    3  A    between atoms: C_3  and  C_39 
REMARK    4  A    between atoms: C_6  and  C_7 
REMARK    5  A    between atoms: C_14  and  C_15 
REMARK    6  A    between atoms: C_18  and  C_19 
REMARK    7  A    between atoms: C_19  and  N_20 
REMARK       I    between atoms: N_20  and  C_21 
REMARK       I    between atoms: C_21  and  N_22 
REMARK    8  A    between atoms: N_22  and  C_23 
REMARK    9  A    between atoms: C_25  and  C_26 
ROOT
HETATM    1  C   UNL     1      -5.592   3.465 -32.981  1.00  0.00     0.068 C 
HETATM    2  C   UNL     1      -4.442   3.231 -31.961  1.00  0.00     0.001 C 
HETATM    3  C   UNL     1      -5.024   3.082 -30.535  1.00  0.00     0.040 C 
HETATM    4  C   UNL     1      -5.698   4.392 -30.083  1.00  0.00     0.206 C 
HETATM    5  N   UNL     1      -5.756   5.293 -31.312  1.00  0.00    -0.065 N 
HETATM    6  H   UNL     1      -6.337   6.123 -31.064  1.00  0.00     0.280 HD
HETATM    7  C   UNL     1      -6.454   4.646 -32.500  1.00  0.00     0.246 C 
HETATM    8  C   UNL     1      -3.542   4.489 -31.978  1.00  0.00     0.033 C 
HETATM    9  C   UNL     1      -4.372   5.747 -31.695  1.00  0.00     0.236 C 
ENDROOT
BRANCH   1  10
HETATM   10  C   UNL     1      -6.390   2.209 -33.259  1.00  0.00     0.045 A 
HETATM   11  N   UNL     1      -7.718   2.333 -33.467  1.00  0.00    -0.233 NA
HETATM   12  C   UNL     1      -8.414   1.192 -33.677  1.00  0.00     0.160 A 
HETATM   13  N   UNL     1      -7.872  -0.038 -33.651  1.00  0.00    -0.233 NA
HETATM   14  C   UNL     1      -6.546  -0.137 -33.435  1.00  0.00     0.043 A 
HETATM   15  C   UNL     1      -5.758   0.978 -33.232  1.00  0.00     0.055 A 
BRANCH  12  16
HETATM   16  C   UNL     1      -9.862   1.290 -33.938  1.00  0.00     0.014 A 
HETATM   17  C   UNL     1     -10.778   0.447 -33.290  1.00  0.00     0.034 A 
HETATM   18  C   UNL     1     -12.132   0.574 -33.557  1.00  0.00     0.117 A 
HETATM   19  N   UNL     1     -12.641   1.477 -34.419  1.00  0.00    -0.273 NA
HETATM   20  C   UNL     1     -11.759   2.273 -35.051  1.00  0.00     0.117 A 
HETATM   21  C   UNL     1     -10.389   2.218 -34.849  1.00  0.00     0.034 A 
ENDBRANCH  12  16
BRANCH  14  22
HETATM   22  C   UNL     1      -5.941  -1.530 -33.374  1.00  0.00     0.037 C 
BRANCH  22  23
HETATM   23  C   UNL     1      -4.482  -1.497 -32.868  1.00  0.00     0.006 C 
HETATM   24  C   UNL     1      -3.756  -2.825 -33.040  1.00  0.00     0.006 C 
ENDBRANCH  22  23
BRANCH  22  25
HETATM   25  C   UNL     1      -5.999  -2.212 -34.758  1.00  0.00     0.006 C 
HETATM   26  C   UNL     1      -6.861  -3.470 -34.776  1.00  0.00     0.006 C 
ENDBRANCH  22  25
ENDBRANCH  14  22
ENDBRANCH   1  10
BRANCH   4  27
HETATM   27  C   UNL     1      -7.072   4.174 -29.395  1.00  0.00     0.157 C 
BRANCH  27  28
HETATM   28  N   UNL     1      -8.137   3.621 -30.238  1.00  0.00    -0.341 N 
HETATM   29  C   UNL     1      -9.290   4.321 -30.504  1.00  0.00     0.320 C 
HETATM   30  N   UNL     1     -10.043   3.746 -31.494  1.00  0.00    -0.309 N 
HETATM   31  O   UNL     1      -9.574   5.325 -29.860  1.00  0.00    -0.247 OA
HETATM   32  H   UNL     1      -9.823   2.793 -31.745  1.00  0.00     0.170 HD
HETATM   33  H   UNL     1      -7.817   3.048 -31.010  1.00  0.00     0.164 HD
BRANCH  30  34
HETATM   34  C   UNL     1     -11.205   4.296 -32.082  1.00  0.00     0.037 A 
HETATM   35  C   UNL     1     -12.498   3.842 -31.807  1.00  0.00     0.044 A 
HETATM   36  C   UNL     1     -13.620   4.428 -32.416  1.00  0.00     0.011 A 
HETATM   37  C   UNL     1     -13.442   5.489 -33.308  1.00  0.00     0.015 A 
HETATM   38  C   UNL     1     -12.155   5.958 -33.577  1.00  0.00     0.003 A 
HETATM   39  C   UNL     1     -11.044   5.368 -32.966  1.00  0.00     0.029 A 
BRANCH  36  40
HETATM   40  C   UNL     1     -14.966   3.878 -32.079  1.00  0.00     0.155 C 
HETATM   41  C   UNL     1     -15.131   2.389 -31.923  1.00  0.00     0.096 C 
HETATM   42  O   UNL     1     -15.916   4.644 -31.925  1.00  0.00    -0.293 OA
ENDBRANCH  36  40
ENDBRANCH  30  34
ENDBRANCH  27  28
ENDBRANCH   4  27
TORSDOF 9
ENDMDL
