MODEL 1
REMARK VINA RESULT:      -9.0      0.000      0.000
REMARK  6 active torsions:
REMARK  status: ('A' for Active; 'I' for Inactive)
REMARK    1  A    between atoms: C_2  and  S_3 
REMARK    2  A    between atoms: S_3  and  C_4 
REMARK    3  A    between atoms: C_5  and  C_6 
REMARK       I    between atoms: C_6  and  N_7 
REMARK    4  A    between atoms: N_7  and  C_8 
REMARK    5  A    between atoms: N_9  and  C_10 
REMARK    6  A    between atoms: C_21  and  C_22 
ROOT
HETATM    1  C   UNL     1      -5.449   2.584 -32.406  1.00  0.00     0.152 A 
HETATM    2  N   UNL     1      -4.403   1.679 -32.506  1.00  0.00    -0.044 N 
HETATM    3  N   UNL     1      -3.198   2.229 -32.165  1.00  0.00    -0.148 NA
HETATM    4  C   UNL     1      -3.504   3.496 -31.852  1.00  0.00     0.115 A 
HETATM    5  C   UNL     1      -4.883   3.763 -31.980  1.00  0.00     0.087 A 
ENDROOT
BRANCH   1   6
HETATM    6  N   UNL     1      -6.755   2.236 -32.710  1.00  0.00    -0.307 N 
HETATM    7  C   UNL     1      -7.764   2.171 -31.771  1.00  0.00     0.258 C 
HETATM    8  O   UNL     1      -7.667   2.317 -30.560  1.00  0.00    -0.267 OA
HETATM    9  H   UNL     1      -6.961   1.994 -33.679  1.00  0.00     0.170 HD
BRANCH   7  10
HETATM   10  C   UNL     1      -9.069   1.781 -32.345  1.00  0.00     0.049 A 
HETATM   11  C   UNL     1     -10.019   2.724 -32.771  1.00  0.00     0.016 A 
HETATM   12  C   UNL     1     -11.218   2.256 -33.327  1.00  0.00     0.019 A 
HETATM   13  C   UNL     1     -11.458   0.886 -33.466  1.00  0.00     0.001 A 
HETATM   14  C   UNL     1     -10.508  -0.039 -33.036  1.00  0.00     0.001 A 
HETATM   15  C   UNL     1      -9.317   0.406 -32.470  1.00  0.00     0.018 A 
BRANCH  11  16
HETATM   16  S   UNL     1      -9.818   4.489 -32.557  1.00  0.00    -0.129 SA
BRANCH  16  17
HETATM   17  C   UNL     1      -9.038   4.906 -34.148  1.00  0.00     0.075 C 
HETATM   18  C   UNL     1     -10.102   5.309 -35.153  1.00  0.00     0.016 C 
ENDBRANCH  16  17
ENDBRANCH  11  16
ENDBRANCH   7  10
ENDBRANCH   1   6
BRANCH   2  19
HETATM   19  C   UNL     1      -4.463   0.325 -32.892  1.00  0.00     0.732 A 
HETATM   20  N   UNL     1      -5.279  -0.125 -33.801  1.00  0.00    -0.067 NA
HETATM   21  C   UNL     1      -5.184  -1.470 -34.020  1.00  0.00     0.065 A 
HETATM   22  C   UNL     1      -4.350  -2.308 -33.402  1.00  0.00     0.036 A 
HETATM   23  C   UNL     1      -6.034  -2.190 -35.012  1.00  0.00     0.061 C 
HETATM   24  C   UNL     1      -4.482  -3.712 -33.849  1.00  0.00     0.047 C 
HETATM   25  C   UNL     1      -3.437  -1.787 -32.386  1.00  0.00     0.268 A 
HETATM   26  C   UNL     1      -5.793  -3.661 -34.646  1.00  0.00     0.011 C 
HETATM   27  O   UNL     1      -2.646  -2.497 -31.781  1.00  0.00    -0.267 OA
HETATM   28  N   UNL     1      -3.561  -0.440 -32.188  1.00  0.00    -0.152 N 
HETATM   29  H   UNL     1      -2.968   0.011 -31.498  1.00  0.00     0.188 HD
ENDBRANCH   2  19
BRANCH   4  30
HETATM   30  C   UNL     1      -2.478   4.490 -31.424  1.00  0.00     0.105 A 
HETATM   31  O   UNL     1      -1.160   4.196 -31.204  1.00  0.00    -0.320 OA
HETATM   32  C   UNL     1      -0.545   5.345 -30.827  1.00  0.00     0.142 A 
HETATM   33  C   UNL     1      -1.442   6.385 -30.801  1.00  0.00     0.027 A 
HETATM   34  C   UNL     1      -2.690   5.836 -31.186  1.00  0.00     0.041 A 
ENDBRANCH   4  30
TORSDOF 6
ENDMDL
MODEL 2
REMARK VINA RESULT:      -9.0      3.272      8.242
REMARK  6 active torsions:
REMARK  status: ('A' for Active; 'I' for Inactive)
REMARK    1  A    between atoms: C_2  and  S_3 
REMARK    2  A    between atoms: S_3  and  C_4 
REMARK    3  A    between atoms: C_5  and  C_6 
REMARK       I    between atoms: C_6  and  N_7 
REMARK    4  A    between atoms: N_7  and  C_8 
REMARK    5  A    between atoms: N_9  and  C_10 
REMARK    6  A    between atoms: C_21  and  C_22 
ROOT
HETATM    1  C   UNL     1      -9.703   0.496 -33.180  1.00  0.00     0.152 A 
HETATM    2  N   UNL     1      -9.787   1.830 -32.810  1.00  0.00    -0.044 N 
HETATM    3  N   UNL     1     -11.072   2.300 -32.830  1.00  0.00    -0.148 NA
HETATM    4  C   UNL     1     -11.792   1.240 -33.223  1.00  0.00     0.115 A 
HETATM    5  C   UNL     1     -10.993   0.100 -33.447  1.00  0.00     0.087 A 
ENDROOT
BRANCH   1   6
HETATM    6  N   UNL     1      -8.494  -0.178 -33.233  1.00  0.00    -0.307 N 
HETATM    7  C   UNL     1      -7.581  -0.027 -34.258  1.00  0.00     0.258 C 
HETATM    8  O   UNL     1      -7.713   0.627 -35.283  1.00  0.00    -0.267 OA
HETATM    9  H   UNL     1      -8.292  -0.836 -32.480  1.00  0.00     0.170 HD
BRANCH   7  10
HETATM   10  C   UNL     1      -6.367  -0.851 -34.083  1.00  0.00     0.049 A 
HETATM   11  C   UNL     1      -5.259  -0.415 -33.339  1.00  0.00     0.016 A 
HETATM   12  C   UNL     1      -4.162  -1.280 -33.208  1.00  0.00     0.019 A 
HETATM   13  C   UNL     1      -4.178  -2.550 -33.791  1.00  0.00     0.001 A 
HETATM   14  C   UNL     1      -5.283  -2.969 -34.529  1.00  0.00     0.001 A 
HETATM   15  C   UNL     1      -6.376  -2.120 -34.681  1.00  0.00     0.018 A 
BRANCH  11  16
HETATM   16  S   UNL     1      -5.133   1.223 -32.629  1.00  0.00    -0.129 SA
BRANCH  16  17
HETATM   17  C   UNL     1      -4.969   0.784 -30.870  1.00  0.00     0.075 C 
HETATM   18  C   UNL     1      -6.225   0.073 -30.397  1.00  0.00     0.016 C 
ENDBRANCH  16  17
ENDBRANCH  11  16
ENDBRANCH   7  10
ENDBRANCH   1   6
BRANCH   2  19
HETATM   19  C   UNL     1      -8.740   2.690 -32.426  1.00  0.00     0.732 A 
HETATM   20  N   UNL     1      -8.329   2.813 -31.197  1.00  0.00    -0.067 NA
HETATM   21  C   UNL     1      -7.307   3.706 -31.037  1.00  0.00     0.065 A 
HETATM   22  C   UNL     1      -6.730   4.419 -32.005  1.00  0.00     0.036 A 
HETATM   23  C   UNL     1      -6.694   4.004 -29.710  1.00  0.00     0.061 C 
HETATM   24  C   UNL     1      -5.650   5.308 -31.523  1.00  0.00     0.047 C 
HETATM   25  C   UNL     1      -7.201   4.268 -33.381  1.00  0.00     0.268 A 
HETATM   26  C   UNL     1      -5.868   5.265 -30.005  1.00  0.00     0.011 C 
HETATM   27  O   UNL     1      -6.718   4.887 -34.318  1.00  0.00    -0.267 OA
HETATM   28  N   UNL     1      -8.225   3.371 -33.506  1.00  0.00    -0.152 N 
HETATM   29  H   UNL     1      -8.620   3.202 -34.426  1.00  0.00     0.188 HD
ENDBRANCH   2  19
BRANCH   4  30
HETATM   30  C   UNL     1     -13.273   1.293 -33.400  1.00  0.00     0.105 A 
HETATM   31  O   UNL     1     -14.120   2.023 -32.612  1.00  0.00    -0.320 OA
HETATM   32  C   UNL     1     -15.379   1.817 -33.073  1.00  0.00     0.142 A 
HETATM   33  C   UNL     1     -15.366   0.967 -34.151  1.00  0.00     0.027 A 
HETATM   34  C   UNL     1     -14.007   0.627 -34.364  1.00  0.00     0.041 A 
ENDBRANCH   4  30
TORSDOF 6
ENDMDL
MODEL 3
REMARK VINA RESULT:      -8.9      2.758      7.417
REMARK  6 active torsions:
REMARK  status: ('A' for Active; 'I' for Inactive)
REMARK    1  A    between atoms: C_2  and  S_3 
REMARK    2  A    between atoms: S_3  and  C_4 
REMARK    3  A    between atoms: C_5  and  C_6 
REMARK       I    between atoms: C_6  and  N_7 
REMARK    4  A    between atoms: N_7  and  C_8 
REMARK    5  A    between atoms: N_9  and  C_10 
REMARK    6  A    between atoms: C_21  and  C_22 
ROOT
HETATM    1  C   UNL     1      -8.944   0.204 -33.229  1.00  0.00     0.152 A 
HETATM    2  N   UNL     1      -8.501   1.430 -32.755  1.00  0.00    -0.044 N 
HETATM    3  N   UNL     1      -9.514   2.340 -32.628  1.00  0.00    -0.148 NA
HETATM    4  C   UNL     1     -10.600   1.667 -33.032  1.00  0.00     0.115 A 
HETATM    5  C   UNL     1     -10.302   0.341 -33.409  1.00  0.00     0.087 A 
ENDROOT
BRANCH   1   6
HETATM    6  N   UNL     1      -8.082  -0.860 -33.438  1.00  0.00    -0.307 N 
HETATM    7  C   UNL     1      -7.211  -0.936 -34.505  1.00  0.00     0.258 C 
HETATM    8  O   UNL     1      -7.114  -0.160 -35.446  1.00  0.00    -0.267 OA
HETATM    9  H   UNL     1      -8.122  -1.632 -32.773  1.00  0.00     0.170 HD
BRANCH   7  10
HETATM   10  C   UNL     1      -6.393  -2.167 -34.504  1.00  0.00     0.049 A 
HETATM   11  C   UNL     1      -5.081  -2.202 -34.004  1.00  0.00     0.016 A 
HETATM   12  C   UNL     1      -4.395  -3.426 -34.022  1.00  0.00     0.019 A 
HETATM   13  C   UNL     1      -5.006  -4.584 -34.512  1.00  0.00     0.001 A 
HETATM   14  C   UNL     1      -6.308  -4.534 -35.007  1.00  0.00     0.001 A 
HETATM   15  C   UNL     1      -7.001  -3.326 -35.010  1.00  0.00     0.018 A 
BRANCH  11  16
HETATM   16  S   UNL     1      -4.206  -0.750 -33.433  1.00  0.00    -0.129 SA
BRANCH  16  17
HETATM   17  C   UNL     1      -3.548  -1.386 -31.860  1.00  0.00     0.075 C 
HETATM   18  C   UNL     1      -2.203  -0.743 -31.567  1.00  0.00     0.016 C 
ENDBRANCH  16  17
ENDBRANCH  11  16
ENDBRANCH   7  10
ENDBRANCH   1   6
BRANCH   2  19
HETATM   19  C   UNL     1      -7.188   1.799 -32.403  1.00  0.00     0.732 A 
HETATM   20  N   UNL     1      -6.457   2.607 -33.116  1.00  0.00    -0.067 NA
HETATM   21  C   UNL     1      -5.210   2.829 -32.603  1.00  0.00     0.065 A 
HETATM   22  C   UNL     1      -4.720   2.306 -31.479  1.00  0.00     0.036 A 
HETATM   23  C   UNL     1      -4.209   3.714 -33.267  1.00  0.00     0.061 C 
HETATM   24  C   UNL     1      -3.333   2.728 -31.184  1.00  0.00     0.047 C 
HETATM   25  C   UNL     1      -5.555   1.403 -30.687  1.00  0.00     0.268 A 
HETATM   26  C   UNL     1      -2.915   3.370 -32.514  1.00  0.00     0.011 C 
HETATM   27  O   UNL     1      -5.172   0.890 -29.646  1.00  0.00    -0.267 OA
HETATM   28  N   UNL     1      -6.793   1.200 -31.229  1.00  0.00    -0.152 N 
HETATM   29  H   UNL     1      -7.443   0.584 -30.750  1.00  0.00     0.188 HD
ENDBRANCH   2  19
BRANCH   4  30
HETATM   30  C   UNL     1     -11.960   2.280 -33.073  1.00  0.00     0.105 A 
HETATM   31  O   UNL     1     -13.114   1.588 -33.319  1.00  0.00    -0.320 OA
HETATM   32  C   UNL     1     -14.137   2.479 -33.279  1.00  0.00     0.142 A 
HETATM   33  C   UNL     1     -13.667   3.741 -33.009  1.00  0.00     0.027 A 
HETATM   34  C   UNL     1     -12.263   3.615 -32.875  1.00  0.00     0.041 A 
ENDBRANCH   4  30
TORSDOF 6
ENDMDL
MODEL 4
REMARK VINA RESULT:      -8.8      2.241      6.144
REMARK  6 active torsions:
REMARK  status: ('A' for Active; 'I' for Inactive)
REMARK    1  A    between atoms: C_2  and  S_3 
REMARK    2  A    between atoms: S_3  and  C_4 
REMARK    3  A    between atoms: C_5  and  C_6 
REMARK       I    between atoms: C_6  and  N_7 
REMARK    4  A    between atoms: N_7  and  C_8 
REMARK    5  A    between atoms: N_9  and  C_10 
REMARK    6  A    between atoms: C_21  and  C_22 
ROOT
HETATM    1  C   UNL     1      -7.584   0.114 -34.427  1.00  0.00     0.152 A 
HETATM    2  N   UNL     1      -6.425   0.505 -33.773  1.00  0.00    -0.044 N 
HETATM    3  N   UNL     1      -5.521  -0.513 -33.652  1.00  0.00    -0.148 NA
HETATM    4  C   UNL     1      -6.132  -1.552 -34.238  1.00  0.00     0.115 A 
HETATM    5  C   UNL     1      -7.407  -1.215 -34.738  1.00  0.00     0.087 A 
ENDROOT
BRANCH   1   6
HETATM    6  N   UNL     1      -8.634   0.989 -34.652  1.00  0.00    -0.307 N 
HETATM    7  C   UNL     1      -9.742   1.076 -33.832  1.00  0.00     0.258 C 
HETATM    8  O   UNL     1     -10.012   0.375 -32.866  1.00  0.00    -0.267 OA
HETATM    9  H   UNL     1      -8.585   1.575 -35.484  1.00  0.00     0.170 HD
BRANCH   7  10
HETATM   10  C   UNL     1     -10.721   2.087 -34.282  1.00  0.00     0.049 A 
HETATM   11  C   UNL     1     -10.562   3.459 -34.026  1.00  0.00     0.016 A 
HETATM   12  C   UNL     1     -11.532   4.345 -34.516  1.00  0.00     0.019 A 
HETATM   13  C   UNL     1     -12.624   3.876 -35.253  1.00  0.00     0.001 A 
HETATM   14  C   UNL     1     -12.771   2.512 -35.497  1.00  0.00     0.001 A 
HETATM   15  C   UNL     1     -11.824   1.616 -35.008  1.00  0.00     0.018 A 
BRANCH  11  16
HETATM   16  S   UNL     1      -9.236   4.126 -33.027  1.00  0.00    -0.129 SA
BRANCH  16  17
HETATM   17  C   UNL     1     -10.038   4.102 -31.393  1.00  0.00     0.075 C 
HETATM   18  C   UNL     1      -9.429   3.005 -30.537  1.00  0.00     0.016 C 
ENDBRANCH  16  17
ENDBRANCH  11  16
ENDBRANCH   7  10
ENDBRANCH   1   6
BRANCH   2  19
HETATM   19  C   UNL     1      -6.107   1.780 -33.263  1.00  0.00     0.732 A 
HETATM   20  N   UNL     1      -5.895   2.820 -34.018  1.00  0.00    -0.067 NA
HETATM   21  C   UNL     1      -5.592   3.958 -33.325  1.00  0.00     0.065 A 
HETATM   22  C   UNL     1      -5.510   4.071 -31.999  1.00  0.00     0.036 A 
HETATM   23  C   UNL     1      -5.305   5.259 -33.996  1.00  0.00     0.061 C 
HETATM   24  C   UNL     1      -5.159   5.434 -31.541  1.00  0.00     0.047 C 
HETATM   25  C   UNL     1      -5.755   2.895 -31.165  1.00  0.00     0.268 A 
HETATM   26  C   UNL     1      -4.713   6.095 -32.852  1.00  0.00     0.011 C 
HETATM   27  O   UNL     1      -5.698   2.926 -29.945  1.00  0.00    -0.267 OA
HETATM   28  N   UNL     1      -6.050   1.773 -31.888  1.00  0.00    -0.152 N 
HETATM   29  H   UNL     1      -6.233   0.905 -31.394  1.00  0.00     0.188 HD
ENDBRANCH   2  19
BRANCH   4  30
HETATM   30  C   UNL     1      -5.509  -2.905 -34.332  1.00  0.00     0.105 A 
HETATM   31  O   UNL     1      -4.264  -3.218 -33.859  1.00  0.00    -0.320 OA
HETATM   32  C   UNL     1      -4.045  -4.529 -34.128  1.00  0.00     0.142 A 
HETATM   33  C   UNL     1      -5.131  -5.077 -34.768  1.00  0.00     0.027 A 
HETATM   34  C   UNL     1      -6.076  -4.031 -34.900  1.00  0.00     0.041 A 
ENDBRANCH   4  30
TORSDOF 6
ENDMDL
MODEL 5
REMARK VINA RESULT:      -8.8      2.840      7.715
REMARK  6 active torsions:
REMARK  status: ('A' for Active; 'I' for Inactive)
REMARK    1  A    between atoms: C_2  and  S_3 
REMARK    2  A    between atoms: S_3  and  C_4 
REMARK    3  A    between atoms: C_5  and  C_6 
REMARK       I    between atoms: C_6  and  N_7 
REMARK    4  A    between atoms: N_7  and  C_8 
REMARK    5  A    between atoms: N_9  and  C_10 
REMARK    6  A    between atoms: C_21  and  C_22 
ROOT
HETATM    1  C   UNL     1      -7.371   3.000 -33.752  1.00  0.00     0.152 A 
HETATM    2  N   UNL     1      -7.057   4.343 -33.903  1.00  0.00    -0.044 N 
HETATM    3  N   UNL     1      -8.150   5.107 -34.206  1.00  0.00    -0.148 NA
HETATM    4  C   UNL     1      -9.155   4.222 -34.246  1.00  0.00     0.115 A 
HETATM    5  C   UNL     1      -8.727   2.908 -33.968  1.00  0.00     0.087 A 
ENDROOT
BRANCH   1   6
HETATM    6  N   UNL     1      -6.411   2.049 -33.449  1.00  0.00    -0.307 N 
HETATM    7  C   UNL     1      -6.568   1.095 -32.464  1.00  0.00     0.258 C 
HETATM    8  O   UNL     1      -7.496   0.984 -31.674  1.00  0.00    -0.267 OA
HETATM    9  H   UNL     1      -5.536   2.083 -33.973  1.00  0.00     0.170 HD
BRANCH   7  10
HETATM   10  C   UNL     1      -5.405   0.192 -32.336  1.00  0.00     0.049 A 
HETATM   11  C   UNL     1      -5.259  -0.967 -33.115  1.00  0.00     0.016 A 
HETATM   12  C   UNL     1      -4.106  -1.746 -32.940  1.00  0.00     0.019 A 
HETATM   13  C   UNL     1      -3.120  -1.372 -32.022  1.00  0.00     0.001 A 
HETATM   14  C   UNL     1      -3.279  -0.221 -31.253  1.00  0.00     0.001 A 
HETATM   15  C   UNL     1      -4.422   0.559 -31.404  1.00  0.00     0.018 A 
BRANCH  11  16
HETATM   16  S   UNL     1      -6.510  -1.552 -34.253  1.00  0.00    -0.129 SA
BRANCH  16  17
HETATM   17  C   UNL     1      -5.670  -3.031 -34.901  1.00  0.00     0.075 C 
HETATM   18  C   UNL     1      -6.662  -4.175 -35.021  1.00  0.00     0.016 C 
ENDBRANCH  16  17
ENDBRANCH  11  16
ENDBRANCH   7  10
ENDBRANCH   1   6
BRANCH   2  19
HETATM   19  C   UNL     1      -5.796   4.958 -33.769  1.00  0.00     0.732 A 
HETATM   20  N   UNL     1      -4.780   4.681 -34.536  1.00  0.00    -0.067 NA
HETATM   21  C   UNL     1      -3.647   5.382 -34.234  1.00  0.00     0.065 A 
HETATM   22  C   UNL     1      -3.520   6.287 -33.263  1.00  0.00     0.036 A 
HETATM   23  C   UNL     1      -2.368   5.211 -34.983  1.00  0.00     0.061 C 
HETATM   24  C   UNL     1      -2.166   6.877 -33.176  1.00  0.00     0.047 C 
HETATM   25  C   UNL     1      -4.670   6.589 -32.413  1.00  0.00     0.268 A 
HETATM   26  C   UNL     1      -1.359   5.933 -34.078  1.00  0.00     0.011 C 
HETATM   27  O   UNL     1      -4.626   7.407 -31.506  1.00  0.00    -0.267 OA
HETATM   28  N   UNL     1      -5.786   5.868 -32.738  1.00  0.00    -0.152 N 
HETATM   29  H   UNL     1      -6.635   6.009 -32.199  1.00  0.00     0.188 HD
ENDBRANCH   2  19
BRANCH   4  30
HETATM   30  C   UNL     1     -10.561   4.613 -34.559  1.00  0.00     0.105 A 
HETATM   31  O   UNL     1     -11.181   5.729 -34.067  1.00  0.00    -0.320 OA
HETATM   32  C   UNL     1     -12.442   5.745 -34.566  1.00  0.00     0.142 A 
HETATM   33  C   UNL     1     -12.653   4.657 -35.378  1.00  0.00     0.027 A 
HETATM   34  C   UNL     1     -11.441   3.926 -35.375  1.00  0.00     0.041 A 
ENDBRANCH   4  30
TORSDOF 6
ENDMDL
MODEL 6
REMARK VINA RESULT:      -8.7      2.383      6.436
REMARK  6 active torsions:
REMARK  status: ('A' for Active; 'I' for Inactive)
REMARK    1  A    between atoms: C_2  and  S_3 
REMARK    2  A    between atoms: S_3  and  C_4 
REMARK    3  A    between atoms: C_5  and  C_6 
REMARK       I    between atoms: C_6  and  N_7 
REMARK    4  A    between atoms: N_7  and  C_8 
REMARK    5  A    between atoms: N_9  and  C_10 
REMARK    6  A    between atoms: C_21  and  C_22 
ROOT
HETATM    1  C   UNL     1      -7.632   0.712 -34.578  1.00  0.00     0.152 A 
HETATM    2  N   UNL     1      -6.504   0.914 -33.797  1.00  0.00    -0.044 N 
HETATM    3  N   UNL     1      -5.751  -0.219 -33.660  1.00  0.00    -0.148 NA
HETATM    4  C   UNL     1      -6.426  -1.137 -34.366  1.00  0.00     0.115 A 
HETATM    5  C   UNL     1      -7.593  -0.610 -34.957  1.00  0.00     0.087 A 
ENDROOT
BRANCH   1   6
HETATM    6  N   UNL     1      -8.537   1.728 -34.840  1.00  0.00    -0.307 N 
HETATM    7  C   UNL     1      -9.493   2.149 -33.938  1.00  0.00     0.258 C 
HETATM    8  O   UNL     1      -9.747   1.667 -32.842  1.00  0.00    -0.267 OA
HETATM    9  H   UNL     1      -8.500   2.161 -35.763  1.00  0.00     0.170 HD
BRANCH   7  10
HETATM   10  C   UNL     1     -10.335   3.249 -34.451  1.00  0.00     0.049 A 
HETATM   11  C   UNL     1     -11.654   3.049 -34.889  1.00  0.00     0.016 A 
HETATM   12  C   UNL     1     -12.384   4.161 -35.335  1.00  0.00     0.019 A 
HETATM   13  C   UNL     1     -11.816   5.439 -35.330  1.00  0.00     0.001 A 
HETATM   14  C   UNL     1     -10.505   5.623 -34.896  1.00  0.00     0.001 A 
HETATM   15  C   UNL     1      -9.761   4.529 -34.461  1.00  0.00     0.018 A 
BRANCH  11  16
HETATM   16  S   UNL     1     -12.422   1.437 -34.998  1.00  0.00    -0.129 SA
BRANCH  16  17
HETATM   17  C   UNL     1     -13.893   1.725 -33.964  1.00  0.00     0.075 C 
HETATM   18  C   UNL     1     -14.962   0.699 -34.294  1.00  0.00     0.016 C 
ENDBRANCH  16  17
ENDBRANCH  11  16
ENDBRANCH   7  10
ENDBRANCH   1   6
BRANCH   2  19
HETATM   19  C   UNL     1      -6.081   2.107 -33.178  1.00  0.00     0.732 A 
HETATM   20  N   UNL     1      -5.895   3.221 -33.825  1.00  0.00    -0.067 NA
HETATM   21  C   UNL     1      -5.476   4.258 -33.040  1.00  0.00     0.065 A 
HETATM   22  C   UNL     1      -5.262   4.210 -31.725  1.00  0.00     0.036 A 
HETATM   23  C   UNL     1      -5.195   5.620 -33.582  1.00  0.00     0.061 C 
HETATM   24  C   UNL     1      -4.806   5.495 -31.151  1.00  0.00     0.047 C 
HETATM   25  C   UNL     1      -5.478   2.951 -31.012  1.00  0.00     0.268 A 
HETATM   26  C   UNL     1      -4.459   6.293 -32.415  1.00  0.00     0.011 C 
HETATM   27  O   UNL     1      -5.303   2.835 -29.808  1.00  0.00    -0.267 OA
HETATM   28  N   UNL     1      -5.893   1.934 -31.826  1.00  0.00    -0.152 N 
HETATM   29  H   UNL     1      -6.066   1.020 -31.419  1.00  0.00     0.188 HD
ENDBRANCH   2  19
BRANCH   4  30
HETATM   30  C   UNL     1      -5.972  -2.553 -34.491  1.00  0.00     0.105 A 
HETATM   31  O   UNL     1      -4.698  -2.982 -34.233  1.00  0.00    -0.320 OA
HETATM   32  C   UNL     1      -4.668  -4.319 -34.459  1.00  0.00     0.142 A 
HETATM   33  C   UNL     1      -5.903  -4.769 -34.857  1.00  0.00     0.027 A 
HETATM   34  C   UNL     1      -6.746  -3.631 -34.878  1.00  0.00     0.041 A 
ENDBRANCH   4  30
TORSDOF 6
ENDMDL
MODEL 7
REMARK VINA RESULT:      -8.7      2.032      5.349
REMARK  6 active torsions:
REMARK  status: ('A' for Active; 'I' for Inactive)
REMARK    1  A    between atoms: C_2  and  S_3 
REMARK    2  A    between atoms: S_3  and  C_4 
REMARK    3  A    between atoms: C_5  and  C_6 
REMARK       I    between atoms: C_6  and  N_7 
REMARK    4  A    between atoms: N_7  and  C_8 
REMARK    5  A    between atoms: N_9  and  C_10 
REMARK    6  A    between atoms: C_21  and  C_22 
ROOT
HETATM    1  C   UNL     1      -4.137   2.872 -32.417  1.00  0.00     0.152 A 
HETATM    2  N   UNL     1      -4.892   3.955 -31.992  1.00  0.00    -0.044 N 
HETATM    3  N   UNL     1      -4.122   4.968 -31.491  1.00  0.00    -0.148 NA
HETATM    4  C   UNL     1      -2.870   4.503 -31.606  1.00  0.00     0.115 A 
HETATM    5  C   UNL     1      -2.826   3.214 -32.177  1.00  0.00     0.087 A 
ENDROOT
BRANCH   1   6
HETATM    6  N   UNL     1      -4.717   1.734 -32.954  1.00  0.00    -0.307 N 
HETATM    7  C   UNL     1      -4.927   0.575 -32.235  1.00  0.00     0.258 C 
HETATM    8  O   UNL     1      -4.578   0.336 -31.087  1.00  0.00    -0.267 OA
HETATM    9  H   UNL     1      -4.975   1.761 -33.940  1.00  0.00     0.170 HD
BRANCH   7  10
HETATM   10  C   UNL     1      -5.565  -0.496 -33.029  1.00  0.00     0.049 A 
HETATM   11  C   UNL     1      -6.958  -0.600 -33.175  1.00  0.00     0.016 A 
HETATM   12  C   UNL     1      -7.468  -1.636 -33.971  1.00  0.00     0.019 A 
HETATM   13  C   UNL     1      -6.611  -2.534 -34.614  1.00  0.00     0.001 A 
HETATM   14  C   UNL     1      -5.231  -2.421 -34.458  1.00  0.00     0.001 A 
HETATM   15  C   UNL     1      -4.706  -1.406 -33.662  1.00  0.00     0.018 A 
BRANCH  11  16
HETATM   16  S   UNL     1      -8.119   0.461 -32.323  1.00  0.00    -0.129 SA
BRANCH  16  17
HETATM   17  C   UNL     1      -9.136   1.001 -33.733  1.00  0.00     0.075 C 
HETATM   18  C   UNL     1     -10.607   0.802 -33.412  1.00  0.00     0.016 C 
ENDBRANCH  16  17
ENDBRANCH  11  16
ENDBRANCH   7  10
ENDBRANCH   1   6
BRANCH   2  19
HETATM   19  C   UNL     1      -6.293   4.104 -32.035  1.00  0.00     0.732 A 
HETATM   20  N   UNL     1      -7.077   3.791 -31.044  1.00  0.00    -0.067 NA
HETATM   21  C   UNL     1      -8.403   4.004 -31.294  1.00  0.00     0.065 A 
HETATM   22  C   UNL     1      -8.920   4.492 -32.422  1.00  0.00     0.036 A 
HETATM   23  C   UNL     1      -9.471   3.704 -30.297  1.00  0.00     0.061 C 
HETATM   24  C   UNL     1     -10.395   4.606 -32.397  1.00  0.00     0.047 C 
HETATM   25  C   UNL     1      -8.026   4.843 -33.525  1.00  0.00     0.268 A 
HETATM   26  C   UNL     1     -10.748   3.789 -31.146  1.00  0.00     0.011 C 
HETATM   27  O   UNL     1      -8.430   5.296 -34.585  1.00  0.00    -0.267 OA
HETATM   28  N   UNL     1      -6.708   4.613 -33.244  1.00  0.00    -0.152 N 
HETATM   29  H   UNL     1      -6.012   4.824 -33.953  1.00  0.00     0.188 HD
ENDBRANCH   2  19
BRANCH   4  30
HETATM   30  C   UNL     1      -1.678   5.283 -31.165  1.00  0.00     0.105 A 
HETATM   31  O   UNL     1      -0.381   4.904 -31.383  1.00  0.00    -0.320 OA
HETATM   32  C   UNL     1       0.417   5.856 -30.838  1.00  0.00     0.142 A 
HETATM   33  C   UNL     1      -0.340   6.852 -30.270  1.00  0.00     0.027 A 
HETATM   34  C   UNL     1      -1.692   6.485 -30.480  1.00  0.00     0.041 A 
ENDBRANCH   4  30
TORSDOF 6
ENDMDL
MODEL 8
REMARK VINA RESULT:      -8.6      2.677      7.253
REMARK  6 active torsions:
REMARK  status: ('A' for Active; 'I' for Inactive)
REMARK    1  A    between atoms: C_2  and  S_3 
REMARK    2  A    between atoms: S_3  and  C_4 
REMARK    3  A    between atoms: C_5  and  C_6 
REMARK       I    between atoms: C_6  and  N_7 
REMARK    4  A    between atoms: N_7  and  C_8 
REMARK    5  A    between atoms: N_9  and  C_10 
REMARK    6  A    between atoms: C_21  and  C_22 
ROOT
HETATM    1  C   UNL     1      -8.273   2.388 -34.132  1.00  0.00     0.152 A 
HETATM    2  N   UNL     1      -7.828   3.672 -33.853  1.00  0.00    -0.044 N 
HETATM    3  N   UNL     1      -8.849   4.579 -33.786  1.00  0.00    -0.148 NA
HETATM    4  C   UNL     1      -9.943   3.844 -34.031  1.00  0.00     0.115 A 
HETATM    5  C   UNL     1      -9.641   2.484 -34.246  1.00  0.00     0.087 A 
ENDROOT
BRANCH   1   6
HETATM    6  N   UNL     1      -7.403   1.317 -34.250  1.00  0.00    -0.307 N 
HETATM    7  C   UNL     1      -7.387   0.249 -33.375  1.00  0.00     0.258 C 
HETATM    8  O   UNL     1      -8.044   0.113 -32.351  1.00  0.00    -0.267 OA
HETATM    9  H   UNL     1      -6.728   1.344 -35.014  1.00  0.00     0.170 HD
BRANCH   7  10
HETATM   10  C   UNL     1      -6.371  -0.768 -33.716  1.00  0.00     0.049 A 
HETATM   11  C   UNL     1      -5.035  -0.674 -33.293  1.00  0.00     0.016 A 
HETATM   12  C   UNL     1      -4.150  -1.704 -33.645  1.00  0.00     0.019 A 
HETATM   13  C   UNL     1      -4.590  -2.804 -34.387  1.00  0.00     0.001 A 
HETATM   14  C   UNL     1      -5.918  -2.883 -34.803  1.00  0.00     0.001 A 
HETATM   15  C   UNL     1      -6.808  -1.865 -34.474  1.00  0.00     0.018 A 
BRANCH  11  16
HETATM   16  S   UNL     1      -4.381   0.737 -32.408  1.00  0.00    -0.129 SA
BRANCH  16  17
HETATM   17  C   UNL     1      -4.663   0.186 -30.696  1.00  0.00     0.075 C 
HETATM   18  C   UNL     1      -5.666   1.103 -30.019  1.00  0.00     0.016 C 
ENDBRANCH  16  17
ENDBRANCH  11  16
ENDBRANCH   7  10
ENDBRANCH   1   6
BRANCH   2  19
HETATM   19  C   UNL     1      -6.504   4.101 -33.633  1.00  0.00     0.732 A 
HETATM   20  N   UNL     1      -5.703   4.470 -34.591  1.00  0.00    -0.067 NA
HETATM   21  C   UNL     1      -4.459   4.842 -34.166  1.00  0.00     0.065 A 
HETATM   22  C   UNL     1      -4.034   4.857 -32.902  1.00  0.00     0.036 A 
HETATM   23  C   UNL     1      -3.386   5.290 -35.100  1.00  0.00     0.061 C 
HETATM   24  C   UNL     1      -2.632   5.304 -32.753  1.00  0.00     0.047 C 
HETATM   25  C   UNL     1      -4.947   4.443 -31.837  1.00  0.00     0.268 A 
HETATM   26  C   UNL     1      -2.138   5.263 -34.206  1.00  0.00     0.011 C 
HETATM   27  O   UNL     1      -4.626   4.433 -30.657  1.00  0.00    -0.267 OA
HETATM   28  N   UNL     1      -6.180   4.073 -32.296  1.00  0.00    -0.152 N 
HETATM   29  H   UNL     1      -6.881   3.767 -31.628  1.00  0.00     0.188 HD
ENDBRANCH   2  19
BRANCH   4  30
HETATM   30  C   UNL     1     -11.315   4.431 -34.071  1.00  0.00     0.105 A 
HETATM   31  O   UNL     1     -12.285   4.193 -33.136  1.00  0.00    -0.320 OA
HETATM   32  C   UNL     1     -13.387   4.890 -33.509  1.00  0.00     0.142 A 
HETATM   33  C   UNL     1     -13.149   5.581 -34.672  1.00  0.00     0.027 A 
HETATM   34  C   UNL     1     -11.813   5.287 -35.036  1.00  0.00     0.041 A 
ENDBRANCH   4  30
TORSDOF 6
ENDMDL
MODEL 9
REMARK VINA RESULT:      -8.4      1.821      2.275
REMARK  6 active torsions:
REMARK  status: ('A' for Active; 'I' for Inactive)
REMARK    1  A    between atoms: C_2  and  S_3 
REMARK    2  A    between atoms: S_3  and  C_4 
REMARK    3  A    between atoms: C_5  and  C_6 
REMARK       I    between atoms: C_6  and  N_7 
REMARK    4  A    between atoms: N_7  and  C_8 
REMARK    5  A    between atoms: N_9  and  C_10 
REMARK    6  A    between atoms: C_21  and  C_22 
ROOT
HETATM    1  C   UNL     1      -4.885   3.908 -31.842  1.00  0.00     0.152 A 
HETATM    2  N   UNL     1      -4.121   2.823 -32.246  1.00  0.00    -0.044 N 
HETATM    3  N   UNL     1      -2.779   3.040 -32.094  1.00  0.00    -0.148 NA
HETATM    4  C   UNL     1      -2.713   4.281 -31.591  1.00  0.00     0.115 A 
HETATM    5  C   UNL     1      -3.987   4.858 -31.413  1.00  0.00     0.087 A 
ENDROOT
BRANCH   1   6
HETATM    6  N   UNL     1      -6.268   3.903 -31.917  1.00  0.00    -0.307 N 
HETATM    7  C   UNL     1      -7.084   3.426 -30.910  1.00  0.00     0.258 C 
HETATM    8  O   UNL     1      -6.743   2.878 -29.871  1.00  0.00    -0.267 OA
HETATM    9  H   UNL     1      -6.692   4.249 -32.778  1.00  0.00     0.170 HD
BRANCH   7  10
HETATM   10  C   UNL     1      -8.523   3.533 -31.227  1.00  0.00     0.049 A 
HETATM   11  C   UNL     1      -9.331   4.569 -30.730  1.00  0.00     0.016 A 
HETATM   12  C   UNL     1     -10.681   4.601 -31.108  1.00  0.00     0.019 A 
HETATM   13  C   UNL     1     -11.207   3.632 -31.969  1.00  0.00     0.001 A 
HETATM   14  C   UNL     1     -10.395   2.608 -32.451  1.00  0.00     0.001 A 
HETATM   15  C   UNL     1      -9.055   2.553 -32.077  1.00  0.00     0.018 A 
BRANCH  11  16
HETATM   16  S   UNL     1      -8.750   5.798 -29.567  1.00  0.00    -0.129 SA
BRANCH  16  17
HETATM   17  C   UNL     1      -8.227   7.100 -30.727  1.00  0.00     0.075 C 
HETATM   18  C   UNL     1      -6.725   7.301 -30.632  1.00  0.00     0.016 C 
ENDBRANCH  16  17
ENDBRANCH  11  16
ENDBRANCH   7  10
ENDBRANCH   1   6
BRANCH   2  19
HETATM   19  C   UNL     1      -4.571   1.588 -32.755  1.00  0.00     0.732 A 
HETATM   20  N   UNL     1      -5.632   1.465 -33.500  1.00  0.00    -0.067 NA
HETATM   21  C   UNL     1      -5.898   0.181 -33.882  1.00  0.00     0.065 A 
HETATM   22  C   UNL     1      -5.180  -0.897 -33.565  1.00  0.00     0.036 A 
HETATM   23  C   UNL     1      -7.071  -0.183 -34.729  1.00  0.00     0.061 C 
HETATM   24  C   UNL     1      -5.722  -2.155 -34.124  1.00  0.00     0.047 C 
HETATM   25  C   UNL     1      -3.989  -0.742 -32.731  1.00  0.00     0.268 A 
HETATM   26  C   UNL     1      -7.114  -1.712 -34.592  1.00  0.00     0.011 C 
HETATM   27  O   UNL     1      -3.284  -1.685 -32.404  1.00  0.00    -0.267 OA
HETATM   28  N   UNL     1      -3.753   0.553 -32.363  1.00  0.00    -0.152 N 
HETATM   29  H   UNL     1      -2.948   0.758 -31.779  1.00  0.00     0.188 HD
ENDBRANCH   2  19
BRANCH   4  30
HETATM   30  C   UNL     1      -1.419   4.952 -31.271  1.00  0.00     0.105 A 
HETATM   31  O   UNL     1      -0.414   4.384 -30.537  1.00  0.00    -0.320 OA
HETATM   32  C   UNL     1       0.591   5.292 -30.455  1.00  0.00     0.142 A 
HETATM   33  C   UNL     1       0.257   6.443 -31.127  1.00  0.00     0.027 A 
HETATM   34  C   UNL     1      -1.040   6.225 -31.655  1.00  0.00     0.041 A 
ENDBRANCH   4  30
TORSDOF 6
ENDMDL
MODEL 10
REMARK VINA RESULT:      -8.4      2.294      7.550
REMARK  6 active torsions:
REMARK  status: ('A' for Active; 'I' for Inactive)
REMARK    1  A    between atoms: C_2  and  S_3 
REMARK    2  A    between atoms: S_3  and  C_4 
REMARK    3  A    between atoms: C_5  and  C_6 
REMARK       I    between atoms: C_6  and  N_7 
REMARK    4  A    between atoms: N_7  and  C_8 
REMARK    5  A    between atoms: N_9  and  C_10 
REMARK    6  A    between atoms: C_21  and  C_22 
ROOT
HETATM    1  C   UNL     1      -5.560   0.660 -33.328  1.00  0.00     0.152 A 
HETATM    2  N   UNL     1      -6.916   0.371 -33.260  1.00  0.00    -0.044 N 
HETATM    3  N   UNL     1      -7.193  -0.927 -33.586  1.00  0.00    -0.148 NA
HETATM    4  C   UNL     1      -5.990  -1.450 -33.863  1.00  0.00     0.115 A 
HETATM    5  C   UNL     1      -4.949  -0.511 -33.714  1.00  0.00     0.087 A 
ENDROOT
BRANCH   1   6
HETATM    6  N   UNL     1      -5.060   1.920 -33.043  1.00  0.00    -0.307 N 
HETATM    7  C   UNL     1      -4.050   2.150 -32.131  1.00  0.00     0.258 C 
HETATM    8  O   UNL     1      -3.510   1.335 -31.395  1.00  0.00    -0.267 OA
HETATM    9  H   UNL     1      -5.488   2.712 -33.522  1.00  0.00     0.170 HD
BRANCH   7  10
HETATM   10  C   UNL     1      -3.691   3.578 -32.008  1.00  0.00     0.049 A 
HETATM   11  C   UNL     1      -4.282   4.427 -31.058  1.00  0.00     0.016 A 
HETATM   12  C   UNL     1      -3.855   5.761 -31.000  1.00  0.00     0.019 A 
HETATM   13  C   UNL     1      -2.856   6.232 -31.858  1.00  0.00     0.001 A 
HETATM   14  C   UNL     1      -2.281   5.380 -32.799  1.00  0.00     0.001 A 
HETATM   15  C   UNL     1      -2.700   4.055 -32.879  1.00  0.00     0.018 A 
BRANCH  11  16
HETATM   16  S   UNL     1      -5.617   3.919 -29.980  1.00  0.00    -0.129 SA
BRANCH  16  17
HETATM   17  C   UNL     1      -5.698   5.370 -28.884  1.00  0.00     0.075 C 
HETATM   18  C   UNL     1      -7.075   5.462 -28.252  1.00  0.00     0.016 C 
ENDBRANCH  16  17
ENDBRANCH  11  16
ENDBRANCH   7  10
ENDBRANCH   1   6
BRANCH   2  19
HETATM   19  C   UNL     1      -7.967   1.235 -32.897  1.00  0.00     0.732 A 
HETATM   20  N   UNL     1      -8.002   1.885 -31.769  1.00  0.00    -0.067 NA
HETATM   21  C   UNL     1      -9.114   2.663 -31.608  1.00  0.00     0.065 A 
HETATM   22  C   UNL     1     -10.110   2.799 -32.484  1.00  0.00     0.036 A 
HETATM   23  C   UNL     1      -9.357   3.483 -30.385  1.00  0.00     0.061 C 
HETATM   24  C   UNL     1     -11.182   3.710 -32.026  1.00  0.00     0.047 C 
HETATM   25  C   UNL     1     -10.054   2.066 -33.748  1.00  0.00     0.268 A 
HETATM   26  C   UNL     1     -10.832   3.878 -30.542  1.00  0.00     0.011 C 
HETATM   27  O   UNL     1     -10.930   2.144 -34.597  1.00  0.00    -0.267 OA
HETATM   28  N   UNL     1      -8.933   1.294 -33.875  1.00  0.00    -0.152 N 
HETATM   29  H   UNL     1      -8.809   0.745 -34.721  1.00  0.00     0.188 HD
ENDBRANCH   2  19
BRANCH   4  30
HETATM   30  C   UNL     1      -5.806  -2.869 -34.286  1.00  0.00     0.105 A 
HETATM   31  O   UNL     1      -4.669  -3.599 -34.071  1.00  0.00    -0.320 OA
HETATM   32  C   UNL     1      -4.875  -4.833 -34.595  1.00  0.00     0.142 A 
HETATM   33  C   UNL     1      -6.131  -4.920 -35.146  1.00  0.00     0.027 A 
HETATM   34  C   UNL     1      -6.734  -3.654 -34.947  1.00  0.00     0.041 A 
ENDBRANCH   4  30
TORSDOF 6
ENDMDL
