MODEL 1
REMARK VINA RESULT:      -8.1      0.000      0.000
REMARK  5 active torsions:
REMARK  status: ('A' for Active; 'I' for Inactive)
REMARK    1  A    between atoms: C_8  and  N_9 
REMARK       I    between atoms: N_9  and  C_10 
REMARK    2  A    between atoms: C_10  and  C_11 
REMARK    3  A    between atoms: C_11  and  N_12 
REMARK    4  A    between atoms: N_12  and  C_13 
REMARK    5  A    between atoms: C_13  and  C_14 
ROOT
HETATM    1  C   UNL     1      -3.456   2.221 -31.433  1.00  0.00     0.372 C 
ENDROOT
BRANCH   1   2
HETATM    2  C   UNL     1      -3.494   3.704 -31.838  1.00  0.00     0.250 C 
HETATM    3  N   UNL     1      -2.419   4.058 -32.626  1.00  0.00    -0.322 N 
HETATM    4  H   UNL     1      -1.783   3.294 -32.832  1.00  0.00     0.169 HD
HETATM    5  O   UNL     1      -4.426   4.420 -31.490  1.00  0.00    -0.271 OA
BRANCH   3   6
HETATM    6  C   UNL     1      -2.103   5.305 -33.131  1.00  0.00     0.085 A 
HETATM    7  C   UNL     1      -2.703   5.791 -34.280  1.00  0.00     0.052 A 
HETATM    8  C   UNL     1      -3.721   5.226 -35.194  1.00  0.00     0.072 C 
HETATM    9  N   UNL     1      -2.157   7.024 -34.493  1.00  0.00    -0.280 N 
HETATM   10  H   UNL     1      -2.356   7.677 -35.243  1.00  0.00     0.189 HD
HETATM   11  N   UNL     1      -1.250   7.379 -33.580  1.00  0.00    -0.177 NA
HETATM   12  C   UNL     1      -1.204   6.338 -32.734  1.00  0.00     0.079 A 
HETATM   13  C   UNL     1      -0.266   6.416 -31.586  1.00  0.00     0.075 C 
ENDBRANCH   3   6
ENDBRANCH   1   2
BRANCH   1  14
HETATM   14  N   UNL     1      -4.186   1.391 -32.423  1.00  0.00     0.100 N 
HETATM   15  H   UNL     1      -4.212   1.918 -33.300  1.00  0.00     0.317 HD
BRANCH  14  16
HETATM   16  C   UNL     1      -3.530   0.098 -32.708  1.00  0.00     0.250 C 
HETATM   17  C   UNL     1      -2.762  -0.441 -31.492  1.00  0.00     0.048 C 
BRANCH  16  18
HETATM   18  C   UNL     1      -4.456  -0.896 -33.395  1.00  0.00    -0.024 A 
HETATM   19  C   UNL     1      -4.152  -2.265 -33.511  1.00  0.00     0.036 A 
HETATM   20  C   UNL     1      -5.036  -3.139 -34.150  1.00  0.00     0.073 A 
HETATM   21 CL   UNL     1      -4.629  -4.807 -34.278  1.00  0.00    -0.081 Cl
HETATM   22  C   UNL     1      -6.231  -2.658 -34.676  1.00  0.00     0.138 A 
HETATM   23  F   UNL     1      -7.089  -3.481 -35.296  1.00  0.00    -0.204 F 
HETATM   24  C   UNL     1      -6.558  -1.312 -34.564  1.00  0.00     0.044 A 
HETATM   25  C   UNL     1      -5.678  -0.437 -33.924  1.00  0.00     0.012 A 
ENDBRANCH  16  18
ENDBRANCH  14  16
ENDBRANCH   1  14
TORSDOF 5
ENDMDL
MODEL 2
REMARK VINA RESULT:      -8.0      0.546      1.784
REMARK  5 active torsions:
REMARK  status: ('A' for Active; 'I' for Inactive)
REMARK    1  A    between atoms: C_8  and  N_9 
REMARK       I    between atoms: N_9  and  C_10 
REMARK    2  A    between atoms: C_10  and  C_11 
REMARK    3  A    between atoms: C_11  and  N_12 
REMARK    4  A    between atoms: N_12  and  C_13 
REMARK    5  A    between atoms: C_13  and  C_14 
ROOT
HETATM    1  C   UNL     1      -4.115   2.087 -31.188  1.00  0.00     0.372 C 
ENDROOT
BRANCH   1   2
HETATM    2  C   UNL     1      -3.874   3.533 -31.651  1.00  0.00     0.250 C 
HETATM    3  N   UNL     1      -2.798   3.635 -32.507  1.00  0.00    -0.322 N 
HETATM    4  H   UNL     1      -2.343   2.751 -32.714  1.00  0.00     0.169 HD
HETATM    5  O   UNL     1      -4.619   4.436 -31.286  1.00  0.00    -0.271 OA
BRANCH   3   6
HETATM    6  C   UNL     1      -2.265   4.775 -33.079  1.00  0.00     0.085 A 
HETATM    7  C   UNL     1      -1.198   5.441 -32.503  1.00  0.00     0.052 A 
HETATM    8  C   UNL     1      -0.401   5.187 -31.281  1.00  0.00     0.072 C 
HETATM    9  N   UNL     1      -0.943   6.509 -33.313  1.00  0.00    -0.280 N 
HETATM   10  H   UNL     1      -0.229   7.222 -33.206  1.00  0.00     0.189 HD
HETATM   11  N   UNL     1      -1.757   6.596 -34.367  1.00  0.00    -0.177 NA
HETATM   12  C   UNL     1      -2.575   5.538 -34.243  1.00  0.00     0.079 A 
HETATM   13  C   UNL     1      -3.625   5.347 -35.275  1.00  0.00     0.075 C 
ENDBRANCH   3   6
ENDBRANCH   1   2
BRANCH   1  14
HETATM   14  N   UNL     1      -4.650   1.265 -32.301  1.00  0.00     0.100 N 
HETATM   15  H   UNL     1      -4.695   1.866 -33.128  1.00  0.00     0.317 HD
BRANCH  14  16
HETATM   16  C   UNL     1      -3.797   0.109 -32.645  1.00  0.00     0.250 C 
HETATM   17  C   UNL     1      -2.943  -0.354 -31.455  1.00  0.00     0.048 C 
BRANCH  16  18
HETATM   18  C   UNL     1      -4.555  -0.990 -33.377  1.00  0.00    -0.024 A 
HETATM   19  C   UNL     1      -4.105  -2.321 -33.430  1.00  0.00     0.036 A 
HETATM   20  C   UNL     1      -4.838  -3.295 -34.114  1.00  0.00     0.073 A 
HETATM   21 CL   UNL     1      -4.254  -4.914 -34.162  1.00  0.00    -0.081 Cl
HETATM   22  C   UNL     1      -6.028  -2.952 -34.748  1.00  0.00     0.138 A 
HETATM   23  F   UNL     1      -6.743  -3.871 -35.413  1.00  0.00    -0.204 F 
HETATM   24  C   UNL     1      -6.499  -1.644 -34.702  1.00  0.00     0.044 A 
HETATM   25  C   UNL     1      -5.769  -0.671 -34.017  1.00  0.00     0.012 A 
ENDBRANCH  16  18
ENDBRANCH  14  16
ENDBRANCH   1  14
TORSDOF 5
ENDMDL
MODEL 3
REMARK VINA RESULT:      -8.0      5.162      7.400
REMARK  5 active torsions:
REMARK  status: ('A' for Active; 'I' for Inactive)
REMARK    1  A    between atoms: C_8  and  N_9 
REMARK       I    between atoms: N_9  and  C_10 
REMARK    2  A    between atoms: C_10  and  C_11 
REMARK    3  A    between atoms: C_11  and  N_12 
REMARK    4  A    between atoms: N_12  and  C_13 
REMARK    5  A    between atoms: C_13  and  C_14 
ROOT
HETATM    1  C   UNL     1      -8.754   0.378 -31.937  1.00  0.00     0.372 C 
ENDROOT
BRANCH   1   2
HETATM    2  C   UNL     1      -9.764   1.447 -32.383  1.00  0.00     0.250 C 
HETATM    3  N   UNL     1     -10.605   0.990 -33.375  1.00  0.00    -0.322 N 
HETATM    4  H   UNL     1     -10.446   0.023 -33.646  1.00  0.00     0.169 HD
HETATM    5  O   UNL     1      -9.782   2.549 -31.846  1.00  0.00    -0.271 OA
BRANCH   3   6
HETATM    6  C   UNL     1     -11.597   1.683 -34.044  1.00  0.00     0.085 A 
HETATM    7  C   UNL     1     -12.883   1.183 -34.145  1.00  0.00     0.052 A 
HETATM    8  C   UNL     1     -13.519  -0.057 -33.646  1.00  0.00     0.072 C 
HETATM    9  N   UNL     1     -13.586   2.105 -34.867  1.00  0.00    -0.280 N 
HETATM   10  H   UNL     1     -14.562   2.077 -35.139  1.00  0.00     0.189 HD
HETATM   11  N   UNL     1     -12.862   3.161 -35.246  1.00  0.00    -0.177 NA
HETATM   12  C   UNL     1     -11.638   2.922 -34.748  1.00  0.00     0.079 A 
HETATM   13  C   UNL     1     -10.575   3.925 -35.006  1.00  0.00     0.075 C 
ENDBRANCH   3   6
ENDBRANCH   1   2
BRANCH   1  14
HETATM   14  N   UNL     1      -7.441   0.595 -32.594  1.00  0.00     0.100 N 
HETATM   15  H   UNL     1      -6.734   0.124 -32.023  1.00  0.00     0.317 HD
BRANCH  14  16
HETATM   16  C   UNL     1      -7.359   0.024 -33.954  1.00  0.00     0.250 C 
HETATM   17  C   UNL     1      -7.207   1.110 -35.029  1.00  0.00     0.048 C 
BRANCH  16  18
HETATM   18  C   UNL     1      -6.380  -1.138 -34.050  1.00  0.00    -0.024 A 
HETATM   19  C   UNL     1      -6.700  -2.353 -34.683  1.00  0.00     0.036 A 
HETATM   20  C   UNL     1      -5.766  -3.390 -34.747  1.00  0.00     0.073 A 
HETATM   21 CL   UNL     1      -6.195  -4.865 -35.526  1.00  0.00    -0.081 Cl
HETATM   22  C   UNL     1      -4.504  -3.226 -34.185  1.00  0.00     0.138 A 
HETATM   23  F   UNL     1      -3.597  -4.212 -34.232  1.00  0.00    -0.204 F 
HETATM   24  C   UNL     1      -4.161  -2.031 -33.562  1.00  0.00     0.044 A 
HETATM   25  C   UNL     1      -5.092  -0.992 -33.500  1.00  0.00     0.012 A 
ENDBRANCH  16  18
ENDBRANCH  14  16
ENDBRANCH   1  14
TORSDOF 5
ENDMDL
MODEL 4
REMARK VINA RESULT:      -7.8      5.086      7.553
REMARK  5 active torsions:
REMARK  status: ('A' for Active; 'I' for Inactive)
REMARK    1  A    between atoms: C_8  and  N_9 
REMARK       I    between atoms: N_9  and  C_10 
REMARK    2  A    between atoms: C_10  and  C_11 
REMARK    3  A    between atoms: C_11  and  N_12 
REMARK    4  A    between atoms: N_12  and  C_13 
REMARK    5  A    between atoms: C_13  and  C_14 
ROOT
HETATM    1  C   UNL     1      -8.075   0.767 -34.273  1.00  0.00     0.372 C 
ENDROOT
BRANCH   1   2
HETATM    2  C   UNL     1      -9.498   0.989 -33.736  1.00  0.00     0.250 C 
HETATM    3  N   UNL     1     -10.373   1.385 -34.726  1.00  0.00    -0.322 N 
HETATM    4  H   UNL     1      -9.957   1.452 -35.650  1.00  0.00     0.169 HD
HETATM    5  O   UNL     1      -9.758   0.784 -32.556  1.00  0.00    -0.271 OA
BRANCH   3   6
HETATM    6  C   UNL     1     -11.710   1.717 -34.603  1.00  0.00     0.085 A 
HETATM    7  C   UNL     1     -12.174   2.975 -34.944  1.00  0.00     0.052 A 
HETATM    8  C   UNL     1     -11.501   4.183 -35.473  1.00  0.00     0.072 C 
HETATM    9  N   UNL     1     -13.516   2.958 -34.692  1.00  0.00    -0.280 N 
HETATM   10  H   UNL     1     -14.189   3.706 -34.823  1.00  0.00     0.189 HD
HETATM   11  N   UNL     1     -13.962   1.795 -34.212  1.00  0.00    -0.177 NA
HETATM   12  C   UNL     1     -12.868   1.018 -34.152  1.00  0.00     0.079 A 
HETATM   13  C   UNL     1     -13.026  -0.366 -33.642  1.00  0.00     0.075 C 
ENDBRANCH   3   6
ENDBRANCH   1   2
BRANCH   1  14
HETATM   14  N   UNL     1      -7.194   0.228 -33.207  1.00  0.00     0.100 N 
HETATM   15  H   UNL     1      -7.542  -0.704 -32.968  1.00  0.00     0.317 HD
BRANCH  14  16
HETATM   16  C   UNL     1      -5.785   0.077 -33.625  1.00  0.00     0.250 C 
HETATM   17  C   UNL     1      -4.831   0.909 -32.755  1.00  0.00     0.048 C 
BRANCH  16  18
HETATM   18  C   UNL     1      -5.383  -1.376 -33.838  1.00  0.00    -0.024 A 
HETATM   19  C   UNL     1      -6.151  -2.274 -34.601  1.00  0.00     0.036 A 
HETATM   20  C   UNL     1      -5.739  -3.599 -34.769  1.00  0.00     0.073 A 
HETATM   21 CL   UNL     1      -6.707  -4.672 -35.706  1.00  0.00    -0.081 Cl
HETATM   22  C   UNL     1      -4.557  -4.040 -34.182  1.00  0.00     0.138 A 
HETATM   23  F   UNL     1      -4.149  -5.309 -34.328  1.00  0.00    -0.204 F 
HETATM   24  C   UNL     1      -3.777  -3.168 -33.431  1.00  0.00     0.044 A 
HETATM   25  C   UNL     1      -4.185  -1.844 -33.265  1.00  0.00     0.012 A 
ENDBRANCH  16  18
ENDBRANCH  14  16
ENDBRANCH   1  14
TORSDOF 5
ENDMDL
MODEL 5
REMARK VINA RESULT:      -7.8      1.313      1.911
REMARK  5 active torsions:
REMARK  status: ('A' for Active; 'I' for Inactive)
REMARK    1  A    between atoms: C_8  and  N_9 
REMARK       I    between atoms: N_9  and  C_10 
REMARK    2  A    between atoms: C_10  and  C_11 
REMARK    3  A    between atoms: C_11  and  N_12 
REMARK    4  A    between atoms: N_12  and  C_13 
REMARK    5  A    between atoms: C_13  and  C_14 
ROOT
HETATM    1  C   UNL     1      -3.310   2.324 -31.318  1.00  0.00     0.372 C 
ENDROOT
BRANCH   1   2
HETATM    2  C   UNL     1      -3.371   3.803 -31.736  1.00  0.00     0.250 C 
HETATM    3  N   UNL     1      -2.334   4.152 -32.574  1.00  0.00    -0.322 N 
HETATM    4  H   UNL     1      -1.705   3.387 -32.801  1.00  0.00     0.169 HD
HETATM    5  O   UNL     1      -4.289   4.520 -31.353  1.00  0.00    -0.271 OA
BRANCH   3   6
HETATM    6  C   UNL     1      -2.044   5.394 -33.106  1.00  0.00     0.085 A 
HETATM    7  C   UNL     1      -2.660   5.846 -34.259  1.00  0.00     0.052 A 
HETATM    8  C   UNL     1      -3.673   5.245 -35.156  1.00  0.00     0.072 C 
HETATM    9  N   UNL     1      -2.139   7.085 -34.500  1.00  0.00    -0.280 N 
HETATM   10  H   UNL     1      -2.355   7.720 -35.261  1.00  0.00     0.189 HD
HETATM   11  N   UNL     1      -1.233   7.475 -33.600  1.00  0.00    -0.177 NA
HETATM   12  C   UNL     1      -1.162   6.451 -32.734  1.00  0.00     0.079 A 
HETATM   13  C   UNL     1      -0.218   6.569 -31.595  1.00  0.00     0.075 C 
ENDBRANCH   3   6
ENDBRANCH   1   2
BRANCH   1  14
HETATM   14  N   UNL     1      -3.775   1.450 -32.424  1.00  0.00     0.100 N 
HETATM   15  H   UNL     1      -2.960   0.935 -32.766  1.00  0.00     0.317 HD
BRANCH  14  16
HETATM   16  C   UNL     1      -4.781   0.453 -32.006  1.00  0.00     0.250 C 
HETATM   17  C   UNL     1      -6.215   0.932 -32.274  1.00  0.00     0.048 C 
BRANCH  16  18
HETATM   18  C   UNL     1      -4.456  -0.954 -32.488  1.00  0.00    -0.024 A 
HETATM   19  C   UNL     1      -5.074  -1.537 -33.609  1.00  0.00     0.036 A 
HETATM   20  C   UNL     1      -4.740  -2.833 -34.013  1.00  0.00     0.073 A 
HETATM   21 CL   UNL     1      -5.522  -3.516 -35.387  1.00  0.00    -0.081 Cl
HETATM   22  C   UNL     1      -3.785  -3.557 -33.307  1.00  0.00     0.138 A 
HETATM   23  F   UNL     1      -3.455  -4.803 -33.678  1.00  0.00    -0.204 F 
HETATM   24  C   UNL     1      -3.153  -2.999 -32.203  1.00  0.00     0.044 A 
HETATM   25  C   UNL     1      -3.483  -1.704 -31.798  1.00  0.00     0.012 A 
ENDBRANCH  16  18
ENDBRANCH  14  16
ENDBRANCH   1  14
TORSDOF 5
ENDMDL
MODEL 6
REMARK VINA RESULT:      -7.8      5.008      7.445
REMARK  5 active torsions:
REMARK  status: ('A' for Active; 'I' for Inactive)
REMARK    1  A    between atoms: C_8  and  N_9 
REMARK       I    between atoms: N_9  and  C_10 
REMARK    2  A    between atoms: C_10  and  C_11 
REMARK    3  A    between atoms: C_11  and  N_12 
REMARK    4  A    between atoms: N_12  and  C_13 
REMARK    5  A    between atoms: C_13  and  C_14 
ROOT
HETATM    1  C   UNL     1      -7.996   0.841 -34.234  1.00  0.00     0.372 C 
ENDROOT
BRANCH   1   2
HETATM    2  C   UNL     1      -9.428   1.023 -33.705  1.00  0.00     0.250 C 
HETATM    3  N   UNL     1     -10.303   1.420 -34.693  1.00  0.00    -0.322 N 
HETATM    4  H   UNL     1      -9.881   1.514 -35.613  1.00  0.00     0.169 HD
HETATM    5  O   UNL     1      -9.693   0.788 -32.531  1.00  0.00    -0.271 OA
BRANCH   3   6
HETATM    6  C   UNL     1     -11.647   1.722 -34.576  1.00  0.00     0.085 A 
HETATM    7  C   UNL     1     -12.139   2.968 -34.921  1.00  0.00     0.052 A 
HETATM    8  C   UNL     1     -11.492   4.190 -35.450  1.00  0.00     0.072 C 
HETATM    9  N   UNL     1     -13.481   2.921 -34.673  1.00  0.00    -0.280 N 
HETATM   10  H   UNL     1     -14.170   3.653 -34.807  1.00  0.00     0.189 HD
HETATM   11  N   UNL     1     -13.902   1.749 -34.192  1.00  0.00    -0.177 NA
HETATM   12  C   UNL     1     -12.790   0.998 -34.127  1.00  0.00     0.079 A 
HETATM   13  C   UNL     1     -12.918  -0.389 -33.614  1.00  0.00     0.075 C 
ENDBRANCH   3   6
ENDBRANCH   1   2
BRANCH   1  14
HETATM   14  N   UNL     1      -7.137   0.205 -33.204  1.00  0.00     0.100 N 
HETATM   15  H   UNL     1      -7.608  -0.652 -32.903  1.00  0.00     0.317 HD
BRANCH  14  16
HETATM   16  C   UNL     1      -5.801  -0.180 -33.705  1.00  0.00     0.250 C 
HETATM   17  C   UNL     1      -4.673   0.353 -32.811  1.00  0.00     0.048 C 
BRANCH  16  18
HETATM   18  C   UNL     1      -5.710  -1.655 -34.072  1.00  0.00    -0.024 A 
HETATM   19  C   UNL     1      -4.567  -2.434 -33.816  1.00  0.00     0.036 A 
HETATM   20  C   UNL     1      -4.532  -3.785 -34.170  1.00  0.00     0.073 A 
HETATM   21 CL   UNL     1      -3.113  -4.706 -33.846  1.00  0.00    -0.081 Cl
HETATM   22  C   UNL     1      -5.636  -4.374 -34.778  1.00  0.00     0.138 A 
HETATM   23  F   UNL     1      -5.618  -5.668 -35.129  1.00  0.00    -0.204 F 
HETATM   24  C   UNL     1      -6.780  -3.627 -35.032  1.00  0.00     0.044 A 
HETATM   25  C   UNL     1      -6.819  -2.278 -34.677  1.00  0.00     0.012 A 
ENDBRANCH  16  18
ENDBRANCH  14  16
ENDBRANCH   1  14
TORSDOF 5
ENDMDL
MODEL 7
REMARK VINA RESULT:      -7.7      2.526      3.752
REMARK  5 active torsions:
REMARK  status: ('A' for Active; 'I' for Inactive)
REMARK    1  A    between atoms: C_8  and  N_9 
REMARK       I    between atoms: N_9  and  C_10 
REMARK    2  A    between atoms: C_10  and  C_11 
REMARK    3  A    between atoms: C_11  and  N_12 
REMARK    4  A    between atoms: N_12  and  C_13 
REMARK    5  A    between atoms: C_13  and  C_14 
ROOT
HETATM    1  C   UNL     1      -8.063   1.853 -32.183  1.00  0.00     0.372 C 
ENDROOT
BRANCH   1   2
HETATM    2  C   UNL     1      -6.952   2.546 -31.377  1.00  0.00     0.250 C 
HETATM    3  N   UNL     1      -5.928   2.999 -32.182  1.00  0.00    -0.322 N 
HETATM    4  H   UNL     1      -6.068   2.827 -33.173  1.00  0.00     0.169 HD
HETATM    5  O   UNL     1      -7.051   2.673 -30.162  1.00  0.00    -0.271 OA
BRANCH   3   6
HETATM    6  C   UNL     1      -4.754   3.622 -31.803  1.00  0.00     0.085 A 
HETATM    7  C   UNL     1      -3.634   2.893 -31.445  1.00  0.00     0.052 A 
HETATM    8  C   UNL     1      -3.368   1.438 -31.368  1.00  0.00     0.072 C 
HETATM    9  N   UNL     1      -2.677   3.813 -31.124  1.00  0.00    -0.280 N 
HETATM   10  H   UNL     1      -1.725   3.646 -30.816  1.00  0.00     0.189 HD
HETATM   11  N   UNL     1      -3.082   5.079 -31.240  1.00  0.00    -0.177 NA
HETATM   12  C   UNL     1      -4.355   4.983 -31.658  1.00  0.00     0.079 A 
HETATM   13  C   UNL     1      -5.110   6.242 -31.880  1.00  0.00     0.075 C 
ENDBRANCH   3   6
ENDBRANCH   1   2
BRANCH   1  14
HETATM   14  N   UNL     1      -7.858   0.384 -32.198  1.00  0.00     0.100 N 
HETATM   15  H   UNL     1      -8.600  -0.032 -31.630  1.00  0.00     0.317 HD
BRANCH  14  16
HETATM   16  C   UNL     1      -7.951  -0.212 -33.547  1.00  0.00     0.250 C 
HETATM   17  C   UNL     1      -8.177   0.850 -34.633  1.00  0.00     0.048 C 
BRANCH  16  18
HETATM   18  C   UNL     1      -6.841  -1.215 -33.828  1.00  0.00    -0.024 A 
HETATM   19  C   UNL     1      -7.047  -2.391 -34.572  1.00  0.00     0.036 A 
HETATM   20  C   UNL     1      -5.995  -3.280 -34.806  1.00  0.00     0.073 A 
HETATM   21 CL   UNL     1      -6.287  -4.712 -35.717  1.00  0.00    -0.081 Cl
HETATM   22  C   UNL     1      -4.727  -3.005 -34.303  1.00  0.00     0.138 A 
HETATM   23  F   UNL     1      -3.707  -3.850 -34.513  1.00  0.00    -0.204 F 
HETATM   24  C   UNL     1      -4.496  -1.845 -33.573  1.00  0.00     0.044 A 
HETATM   25  C   UNL     1      -5.545  -0.954 -33.341  1.00  0.00     0.012 A 
ENDBRANCH  16  18
ENDBRANCH  14  16
ENDBRANCH   1  14
TORSDOF 5
ENDMDL
MODEL 8
REMARK VINA RESULT:      -7.6      2.148      3.328
REMARK  5 active torsions:
REMARK  status: ('A' for Active; 'I' for Inactive)
REMARK    1  A    between atoms: C_8  and  N_9 
REMARK       I    between atoms: N_9  and  C_10 
REMARK    2  A    between atoms: C_10  and  C_11 
REMARK    3  A    between atoms: C_11  and  N_12 
REMARK    4  A    between atoms: N_12  and  C_13 
REMARK    5  A    between atoms: C_13  and  C_14 
ROOT
HETATM    1  C   UNL     1      -6.780   2.718 -33.970  1.00  0.00     0.372 C 
ENDROOT
BRANCH   1   2
HETATM    2  C   UNL     1      -5.863   3.904 -33.628  1.00  0.00     0.250 C 
HETATM    3  N   UNL     1      -5.047   3.639 -32.548  1.00  0.00    -0.322 N 
HETATM    4  H   UNL     1      -5.160   2.707 -32.158  1.00  0.00     0.169 HD
HETATM    5  O   UNL     1      -5.887   4.925 -34.305  1.00  0.00    -0.271 OA
BRANCH   3   6
HETATM    6  C   UNL     1      -4.138   4.480 -31.936  1.00  0.00     0.085 A 
HETATM    7  C   UNL     1      -4.401   5.055 -30.705  1.00  0.00     0.052 A 
HETATM    8  C   UNL     1      -5.558   4.966 -29.785  1.00  0.00     0.072 C 
HETATM    9  N   UNL     1      -3.311   5.822 -30.410  1.00  0.00    -0.280 N 
HETATM   10  H   UNL     1      -3.149   6.391 -29.587  1.00  0.00     0.189 HD
HETATM   11  N   UNL     1      -2.362   5.797 -31.349  1.00  0.00    -0.177 NA
HETATM   12  C   UNL     1      -2.849   4.976 -32.293  1.00  0.00     0.079 A 
HETATM   13  C   UNL     1      -2.020   4.737 -33.501  1.00  0.00     0.075 C 
ENDBRANCH   3   6
ENDBRANCH   1   2
BRANCH   1  14
HETATM   14  N   UNL     1      -6.056   1.433 -33.799  1.00  0.00     0.100 N 
HETATM   15  H   UNL     1      -5.709   1.407 -32.837  1.00  0.00     0.317 HD
BRANCH  14  16
HETATM   16  C   UNL     1      -6.912   0.244 -33.991  1.00  0.00     0.250 C 
HETATM   17  C   UNL     1      -7.959   0.457 -35.094  1.00  0.00     0.048 C 
BRANCH  16  18
HETATM   18  C   UNL     1      -6.114  -1.050 -34.081  1.00  0.00    -0.024 A 
HETATM   19  C   UNL     1      -6.602  -2.202 -34.723  1.00  0.00     0.036 A 
HETATM   20  C   UNL     1      -5.831  -3.366 -34.780  1.00  0.00     0.073 A 
HETATM   21 CL   UNL     1      -6.463  -4.760 -35.570  1.00  0.00    -0.081 Cl
HETATM   22  C   UNL     1      -4.566  -3.392 -34.202  1.00  0.00     0.138 A 
HETATM   23  F   UNL     1      -3.813  -4.501 -34.244  1.00  0.00    -0.204 F 
HETATM   24  C   UNL     1      -4.058  -2.263 -33.571  1.00  0.00     0.044 A 
HETATM   25  C   UNL     1      -4.825  -1.098 -33.514  1.00  0.00     0.012 A 
ENDBRANCH  16  18
ENDBRANCH  14  16
ENDBRANCH   1  14
TORSDOF 5
ENDMDL
MODEL 9
REMARK VINA RESULT:      -7.6      3.920      5.908
REMARK  5 active torsions:
REMARK  status: ('A' for Active; 'I' for Inactive)
REMARK    1  A    between atoms: C_8  and  N_9 
REMARK       I    between atoms: N_9  and  C_10 
REMARK    2  A    between atoms: C_10  and  C_11 
REMARK    3  A    between atoms: C_11  and  N_12 
REMARK    4  A    between atoms: N_12  and  C_13 
REMARK    5  A    between atoms: C_13  and  C_14 
ROOT
HETATM    1  C   UNL     1      -5.959   2.151 -32.258  1.00  0.00     0.372 C 
ENDROOT
BRANCH   1   2
HETATM    2  C   UNL     1      -7.485   2.306 -32.148  1.00  0.00     0.250 C 
HETATM    3  N   UNL     1      -8.121   2.068 -33.348  1.00  0.00    -0.322 N 
HETATM    4  H   UNL     1      -7.498   1.813 -34.108  1.00  0.00     0.169 HD
HETATM    5  O   UNL     1      -8.007   2.577 -31.073  1.00  0.00    -0.271 OA
BRANCH   3   6
HETATM    6  C   UNL     1      -9.471   2.160 -33.633  1.00  0.00     0.085 A 
HETATM    7  C   UNL     1     -10.336   1.114 -33.370  1.00  0.00     0.052 A 
HETATM    8  C   UNL     1     -10.134  -0.231 -32.785  1.00  0.00     0.072 C 
HETATM    9  N   UNL     1     -11.568   1.537 -33.780  1.00  0.00    -0.280 N 
HETATM   10  H   UNL     1     -12.449   1.034 -33.742  1.00  0.00     0.189 HD
HETATM   11  N   UNL     1     -11.575   2.770 -34.290  1.00  0.00    -0.177 NA
HETATM   12  C   UNL     1     -10.296   3.171 -34.207  1.00  0.00     0.079 A 
HETATM   13  C   UNL     1      -9.959   4.526 -34.710  1.00  0.00     0.075 C 
ENDBRANCH   3   6
ENDBRANCH   1   2
BRANCH   1  14
HETATM   14  N   UNL     1      -5.608   1.179 -33.323  1.00  0.00     0.100 N 
HETATM   15  H   UNL     1      -5.082   1.688 -34.037  1.00  0.00     0.317 HD
BRANCH  14  16
HETATM   16  C   UNL     1      -4.752   0.071 -32.852  1.00  0.00     0.250 C 
HETATM   17  C   UNL     1      -4.639   0.038 -31.322  1.00  0.00     0.048 C 
BRANCH  16  18
HETATM   18  C   UNL     1      -5.086  -1.258 -33.517  1.00  0.00    -0.024 A 
HETATM   19  C   UNL     1      -4.203  -2.353 -33.516  1.00  0.00     0.036 A 
HETATM   20  C   UNL     1      -4.556  -3.553 -34.139  1.00  0.00     0.073 A 
HETATM   21 CL   UNL     1      -3.447  -4.870 -34.123  1.00  0.00    -0.081 Cl
HETATM   22  C   UNL     1      -5.793  -3.675 -34.764  1.00  0.00     0.138 A 
HETATM   23  F   UNL     1      -6.147  -4.817 -35.370  1.00  0.00    -0.204 F 
HETATM   24  C   UNL     1      -6.687  -2.610 -34.769  1.00  0.00     0.044 A 
HETATM   25  C   UNL     1      -6.337  -1.411 -34.145  1.00  0.00     0.012 A 
ENDBRANCH  16  18
ENDBRANCH  14  16
ENDBRANCH   1  14
TORSDOF 5
ENDMDL
MODEL 10
REMARK VINA RESULT:      -7.5      1.916      2.309
REMARK  5 active torsions:
REMARK  status: ('A' for Active; 'I' for Inactive)
REMARK    1  A    between atoms: C_8  and  N_9 
REMARK       I    between atoms: N_9  and  C_10 
REMARK    2  A    between atoms: C_10  and  C_11 
REMARK    3  A    between atoms: C_11  and  N_12 
REMARK    4  A    between atoms: N_12  and  C_13 
REMARK    5  A    between atoms: C_13  and  C_14 
ROOT
HETATM    1  C   UNL     1      -3.877   2.548 -32.062  1.00  0.00     0.372 C 
ENDROOT
BRANCH   1   2
HETATM    2  C   UNL     1      -2.917   3.746 -31.967  1.00  0.00     0.250 C 
HETATM    3  N   UNL     1      -3.391   4.850 -32.645  1.00  0.00    -0.322 N 
HETATM    4  H   UNL     1      -4.297   4.714 -33.084  1.00  0.00     0.169 HD
HETATM    5  O   UNL     1      -1.882   3.665 -31.315  1.00  0.00    -0.271 OA
BRANCH   3   6
HETATM    6  C   UNL     1      -2.779   6.078 -32.813  1.00  0.00     0.085 A 
HETATM    7  C   UNL     1      -1.852   6.291 -33.818  1.00  0.00     0.052 A 
HETATM    8  C   UNL     1      -1.303   5.413 -34.876  1.00  0.00     0.072 C 
HETATM    9  N   UNL     1      -1.451   7.589 -33.687  1.00  0.00    -0.280 N 
HETATM   10  H   UNL     1      -0.779   8.098 -34.250  1.00  0.00     0.189 HD
HETATM   11  N   UNL     1      -2.038   8.237 -32.678  1.00  0.00    -0.177 NA
HETATM   12  C   UNL     1      -2.859   7.327 -32.130  1.00  0.00     0.079 A 
HETATM   13  C   UNL     1      -3.668   7.739 -30.956  1.00  0.00     0.075 C 
ENDBRANCH   3   6
ENDBRANCH   1   2
BRANCH   1  14
HETATM   14  N   UNL     1      -3.402   1.432 -31.207  1.00  0.00     0.100 N 
HETATM   15  H   UNL     1      -3.109   1.836 -30.314  1.00  0.00     0.317 HD
BRANCH  14  16
HETATM   16  C   UNL     1      -4.446   0.429 -30.914  1.00  0.00     0.250 C 
HETATM   17  C   UNL     1      -5.647   1.042 -30.180  1.00  0.00     0.048 C 
BRANCH  16  18
HETATM   18  C   UNL     1      -4.785  -0.443 -32.116  1.00  0.00    -0.024 A 
HETATM   19  C   UNL     1      -5.875  -0.181 -32.964  1.00  0.00     0.036 A 
HETATM   20  C   UNL     1      -6.143  -1.010 -34.057  1.00  0.00     0.073 A 
HETATM   21 CL   UNL     1      -7.491  -0.660 -35.071  1.00  0.00    -0.081 Cl
HETATM   22  C   UNL     1      -5.326  -2.105 -34.316  1.00  0.00     0.138 A 
HETATM   23  F   UNL     1      -5.571  -2.915 -35.357  1.00  0.00    -0.204 F 
HETATM   24  C   UNL     1      -4.236  -2.380 -33.498  1.00  0.00     0.044 A 
HETATM   25  C   UNL     1      -3.965  -1.551 -32.407  1.00  0.00     0.012 A 
ENDBRANCH  16  18
ENDBRANCH  14  16
ENDBRANCH   1  14
TORSDOF 5
ENDMDL
