MODEL 1
REMARK VINA RESULT:     -10.0      0.000      0.000
REMARK  6 active torsions:
REMARK  status: ('A' for Active; 'I' for Inactive)
REMARK    1  A    between atoms: C_2  and  O_4 
REMARK    2  A    between atoms: O_4  and  C_5 
REMARK    3  A    between atoms: C_9  and  N_10 
REMARK    4  A    between atoms: N_10  and  C_11 
REMARK    5  A    between atoms: N_14  and  C_17 
REMARK    6  A    between atoms: C_20  and  C_23 
ROOT
HETATM    1  C   UNL     1      -4.993   8.086 -30.488  1.00  0.00     0.176 C 
HETATM    2  C   UNL     1      -5.041   7.536 -29.071  1.00  0.00     0.055 C 
HETATM    3  C   UNL     1      -4.347   6.192 -29.185  1.00  0.00     0.135 C 
HETATM    4  N   UNL     1      -4.674   5.723 -30.510  1.00  0.00    -0.316 N 
HETATM    5  C   UNL     1      -4.989   6.811 -31.342  1.00  0.00     0.247 C 
HETATM    6  O   UNL     1      -5.194   6.819 -32.550  1.00  0.00    -0.271 OA
ENDROOT
BRANCH   4   7
HETATM    7  C   UNL     1      -4.595   4.355 -30.894  1.00  0.00     0.037 A 
HETATM    8  C   UNL     1      -5.444   3.383 -30.345  1.00  0.00     0.030 A 
HETATM    9  C   UNL     1      -5.319   2.027 -30.677  1.00  0.00     0.016 A 
HETATM   10  C   UNL     1      -4.313   1.614 -31.547  1.00  0.00    -0.005 A 
HETATM   11  C   UNL     1      -3.491   2.566 -32.148  1.00  0.00     0.016 A 
HETATM   12  C   UNL     1      -3.633   3.922 -31.824  1.00  0.00     0.030 A 
BRANCH  10  13
HETATM   13  C   UNL     1      -4.136   0.179 -31.890  1.00  0.00     0.098 A 
HETATM   14  N   UNL     1      -3.221  -0.469 -31.232  1.00  0.00    -0.170 NA
HETATM   15  N   UNL     1      -2.987  -1.768 -31.552  1.00  0.00    -0.242 N 
HETATM   16  C   UNL     1      -3.594  -2.475 -32.561  1.00  0.00     0.272 A 
HETATM   17  H   UNL     1      -2.244  -2.235 -31.042  1.00  0.00     0.192 HD
HETATM   18  O   UNL     1      -3.283  -3.628 -32.834  1.00  0.00    -0.266 OA
HETATM   19  C   UNL     1      -4.666  -1.777 -33.285  1.00  0.00     0.046 A 
HETATM   20  C   UNL     1      -5.391  -2.444 -34.282  1.00  0.00     0.018 A 
HETATM   21  C   UNL     1      -4.975  -0.463 -32.940  1.00  0.00     0.011 A 
HETATM   22  C   UNL     1      -6.446  -1.798 -34.925  1.00  0.00     0.001 A 
HETATM   23  C   UNL     1      -6.787  -0.497 -34.557  1.00  0.00     0.001 A 
HETATM   24  C   UNL     1      -6.063   0.166 -33.561  1.00  0.00     0.015 A 
ENDBRANCH  10  13
ENDBRANCH   4   7
BRANCH   1  25
HETATM   25  N   UNL     1      -3.763   8.860 -30.682  1.00  0.00    -0.377 N 
HETATM   26  H   UNL     1      -3.647   9.620 -30.011  1.00  0.00     0.160 HD
BRANCH  25  27
HETATM   27  C   UNL     1      -2.552   8.262 -31.030  1.00  0.00     0.031 A 
HETATM   28  C   UNL     1      -1.589   7.829 -30.113  1.00  0.00     0.029 A 
HETATM   29  C   UNL     1      -0.422   7.184 -30.536  1.00  0.00     0.005 A 
HETATM   30  C   UNL     1      -0.226   6.910 -31.886  1.00  0.00     0.037 A 
HETATM   31  C   UNL     1      -1.201   7.270 -32.812  1.00  0.00     0.077 A 
HETATM   32  C   UNL     1      -2.339   7.962 -32.386  1.00  0.00     0.066 A 
BRANCH  31  33
HETATM   33  O   UNL     1      -0.938   6.925 -34.109  1.00  0.00    -0.290 OA
BRANCH  33  34
HETATM   34  C   UNL     1      -1.421   5.643 -34.483  1.00  0.00     0.505 C 
HETATM   35  F   UNL     1      -2.663   5.776 -35.009  1.00  0.00    -0.184 F 
HETATM   36  F   UNL     1      -0.623   5.186 -35.482  1.00  0.00    -0.184 F 
ENDBRANCH  33  34
ENDBRANCH  31  33
ENDBRANCH  25  27
ENDBRANCH   1  25
TORSDOF 6
ENDMDL
MODEL 2
REMARK VINA RESULT:     -10.0      2.284      2.675
REMARK  6 active torsions:
REMARK  status: ('A' for Active; 'I' for Inactive)
REMARK    1  A    between atoms: C_2  and  O_4 
REMARK    2  A    between atoms: O_4  and  C_5 
REMARK    3  A    between atoms: C_9  and  N_10 
REMARK    4  A    between atoms: N_10  and  C_11 
REMARK    5  A    between atoms: N_14  and  C_17 
REMARK    6  A    between atoms: C_20  and  C_23 
ROOT
HETATM    1  C   UNL     1      -4.938   7.842 -31.098  1.00  0.00     0.176 C 
HETATM    2  C   UNL     1      -5.431   7.347 -29.746  1.00  0.00     0.055 C 
HETATM    3  C   UNL     1      -4.811   5.969 -29.622  1.00  0.00     0.135 C 
HETATM    4  N   UNL     1      -4.761   5.467 -30.974  1.00  0.00    -0.316 N 
HETATM    5  C   UNL     1      -4.756   6.537 -31.886  1.00  0.00     0.247 C 
HETATM    6  O   UNL     1      -4.597   6.511 -33.100  1.00  0.00    -0.271 OA
ENDROOT
BRANCH   4   7
HETATM    7  C   UNL     1      -4.650   4.083 -31.290  1.00  0.00     0.037 A 
HETATM    8  C   UNL     1      -5.523   3.130 -30.746  1.00  0.00     0.030 A 
HETATM    9  C   UNL     1      -5.369   1.761 -31.007  1.00  0.00     0.016 A 
HETATM   10  C   UNL     1      -4.311   1.318 -31.797  1.00  0.00    -0.005 A 
HETATM   11  C   UNL     1      -3.461   2.249 -32.392  1.00  0.00     0.016 A 
HETATM   12  C   UNL     1      -3.632   3.618 -32.140  1.00  0.00     0.030 A 
BRANCH  10  13
HETATM   13  C   UNL     1      -4.104  -0.129 -32.062  1.00  0.00     0.098 A 
HETATM   14  N   UNL     1      -3.191  -0.726 -31.355  1.00  0.00    -0.170 NA
HETATM   15  N   UNL     1      -2.929  -2.036 -31.603  1.00  0.00    -0.242 N 
HETATM   16  C   UNL     1      -3.506  -2.804 -32.584  1.00  0.00     0.272 A 
HETATM   17  H   UNL     1      -2.188  -2.464 -31.056  1.00  0.00     0.192 HD
HETATM   18  O   UNL     1      -3.171  -3.965 -32.792  1.00  0.00    -0.266 OA
HETATM   19  C   UNL     1      -4.576  -2.164 -33.362  1.00  0.00     0.046 A 
HETATM   20  C   UNL     1      -5.272  -2.894 -34.336  1.00  0.00     0.018 A 
HETATM   21  C   UNL     1      -4.913  -0.839 -33.091  1.00  0.00     0.011 A 
HETATM   22  C   UNL     1      -6.325  -2.300 -35.029  1.00  0.00     0.001 A 
HETATM   23  C   UNL     1      -6.695  -0.988 -34.735  1.00  0.00     0.001 A 
HETATM   24  C   UNL     1      -6.000  -0.262 -33.763  1.00  0.00     0.015 A 
ENDBRANCH  10  13
ENDBRANCH   4   7
BRANCH   1  25
HETATM   25  N   UNL     1      -3.664   8.548 -30.936  1.00  0.00    -0.377 N 
HETATM   26  H   UNL     1      -3.650   9.192 -30.145  1.00  0.00     0.160 HD
BRANCH  25  27
HETATM   27  C   UNL     1      -2.434   7.926 -31.144  1.00  0.00     0.031 A 
HETATM   28  C   UNL     1      -1.778   7.857 -32.378  1.00  0.00     0.029 A 
HETATM   29  C   UNL     1      -0.516   7.265 -32.498  1.00  0.00     0.005 A 
HETATM   30  C   UNL     1       0.138   6.783 -31.369  1.00  0.00     0.037 A 
HETATM   31  C   UNL     1      -0.463   6.901 -30.119  1.00  0.00     0.077 A 
HETATM   32  C   UNL     1      -1.748   7.444 -30.017  1.00  0.00     0.066 A 
BRANCH  31  33
HETATM   33  O   UNL     1       0.272   6.434 -29.064  1.00  0.00    -0.290 OA
BRANCH  33  34
HETATM   34  C   UNL     1       0.648   7.431 -28.127  1.00  0.00     0.505 C 
HETATM   35  F   UNL     1       1.427   6.866 -27.171  1.00  0.00    -0.184 F 
HETATM   36  F   UNL     1       1.428   8.328 -28.782  1.00  0.00    -0.184 F 
ENDBRANCH  33  34
ENDBRANCH  31  33
ENDBRANCH  25  27
ENDBRANCH   1  25
TORSDOF 6
ENDMDL
MODEL 3
REMARK VINA RESULT:      -9.7      3.121      9.282
REMARK  6 active torsions:
REMARK  status: ('A' for Active; 'I' for Inactive)
REMARK    1  A    between atoms: C_2  and  O_4 
REMARK    2  A    between atoms: O_4  and  C_5 
REMARK    3  A    between atoms: C_9  and  N_10 
REMARK    4  A    between atoms: N_10  and  C_11 
REMARK    5  A    between atoms: N_14  and  C_17 
REMARK    6  A    between atoms: C_20  and  C_23 
ROOT
HETATM    1  C   UNL     1      -7.376  -0.454 -33.895  1.00  0.00     0.176 C 
HETATM    2  C   UNL     1      -8.150   0.692 -34.528  1.00  0.00     0.055 C 
HETATM    3  C   UNL     1      -7.170   1.849 -34.492  1.00  0.00     0.135 C 
HETATM    4  N   UNL     1      -6.396   1.635 -33.293  1.00  0.00    -0.316 N 
HETATM    5  C   UNL     1      -6.422   0.275 -32.939  1.00  0.00     0.247 C 
HETATM    6  O   UNL     1      -5.789  -0.302 -32.063  1.00  0.00    -0.271 OA
ENDROOT
BRANCH   4   7
HETATM    7  C   UNL     1      -5.663   2.668 -32.643  1.00  0.00     0.037 A 
HETATM    8  C   UNL     1      -5.573   2.743 -31.245  1.00  0.00     0.030 A 
HETATM    9  C   UNL     1      -4.906   3.799 -30.609  1.00  0.00     0.016 A 
HETATM   10  C   UNL     1      -4.340   4.821 -31.366  1.00  0.00    -0.005 A 
HETATM   11  C   UNL     1      -4.368   4.742 -32.758  1.00  0.00     0.016 A 
HETATM   12  C   UNL     1      -5.023   3.675 -33.387  1.00  0.00     0.030 A 
BRANCH  10  13
HETATM   13  C   UNL     1      -3.656   5.969 -30.716  1.00  0.00     0.098 A 
HETATM   14  N   UNL     1      -4.418   6.845 -30.131  1.00  0.00    -0.170 NA
HETATM   15  N   UNL     1      -3.838   7.940 -29.572  1.00  0.00    -0.242 N 
HETATM   16  C   UNL     1      -2.503   8.255 -29.607  1.00  0.00     0.272 A 
HETATM   17  H   UNL     1      -4.464   8.621 -29.152  1.00  0.00     0.192 HD
HETATM   18  O   UNL     1      -2.061   9.297 -29.137  1.00  0.00    -0.266 OA
HETATM   19  C   UNL     1      -1.617   7.254 -30.221  1.00  0.00     0.046 A 
HETATM   20  C   UNL     1      -0.230   7.457 -30.236  1.00  0.00     0.018 A 
HETATM   21  C   UNL     1      -2.172   6.090 -30.747  1.00  0.00     0.011 A 
HETATM   22  C   UNL     1       0.609   6.478 -30.765  1.00  0.00     0.001 A 
HETATM   23  C   UNL     1       0.065   5.292 -31.258  1.00  0.00     0.001 A 
HETATM   24  C   UNL     1      -1.319   5.093 -31.241  1.00  0.00     0.015 A 
ENDBRANCH  10  13
ENDBRANCH   4   7
BRANCH   1  25
HETATM   25  N   UNL     1      -6.638  -1.188 -34.926  1.00  0.00    -0.377 N 
HETATM   26  H   UNL     1      -6.012  -0.601 -35.478  1.00  0.00     0.160 HD
BRANCH  25  27
HETATM   27  C   UNL     1      -6.125  -2.466 -34.709  1.00  0.00     0.031 A 
HETATM   28  C   UNL     1      -6.639  -3.635 -35.281  1.00  0.00     0.029 A 
HETATM   29  C   UNL     1      -6.033  -4.877 -35.063  1.00  0.00     0.005 A 
HETATM   30  C   UNL     1      -4.865  -4.962 -34.313  1.00  0.00     0.037 A 
HETATM   31  C   UNL     1      -4.294  -3.805 -33.790  1.00  0.00     0.077 A 
HETATM   32  C   UNL     1      -4.937  -2.575 -33.968  1.00  0.00     0.066 A 
BRANCH  31  33
HETATM   33  O   UNL     1      -3.127  -3.983 -33.101  1.00  0.00    -0.290 OA
BRANCH  33  34
HETATM   34  C   UNL     1      -3.080  -3.316 -31.848  1.00  0.00     0.505 C 
HETATM   35  F   UNL     1      -2.248  -3.993 -31.019  1.00  0.00    -0.184 F 
HETATM   36  F   UNL     1      -2.514  -2.101 -32.058  1.00  0.00    -0.184 F 
ENDBRANCH  33  34
ENDBRANCH  31  33
ENDBRANCH  25  27
ENDBRANCH   1  25
TORSDOF 6
ENDMDL
MODEL 4
REMARK VINA RESULT:      -9.6      5.603     10.678
REMARK  6 active torsions:
REMARK  status: ('A' for Active; 'I' for Inactive)
REMARK    1  A    between atoms: C_2  and  O_4 
REMARK    2  A    between atoms: O_4  and  C_5 
REMARK    3  A    between atoms: C_9  and  N_10 
REMARK    4  A    between atoms: N_10  and  C_11 
REMARK    5  A    between atoms: N_14  and  C_17 
REMARK    6  A    between atoms: C_20  and  C_23 
ROOT
HETATM    1  C   UNL     1      -2.012   5.363 -31.494  1.00  0.00     0.176 C 
HETATM    2  C   UNL     1      -0.586   5.214 -32.002  1.00  0.00     0.055 C 
HETATM    3  C   UNL     1       0.249   5.242 -30.736  1.00  0.00     0.135 C 
HETATM    4  N   UNL     1      -0.467   6.124 -29.845  1.00  0.00    -0.316 N 
HETATM    5  C   UNL     1      -1.825   6.171 -30.203  1.00  0.00     0.247 C 
HETATM    6  O   UNL     1      -2.756   6.706 -29.613  1.00  0.00    -0.271 OA
ENDROOT
BRANCH   4   7
HETATM    7  C   UNL     1       0.140   6.766 -28.729  1.00  0.00     0.037 A 
HETATM    8  C   UNL     1      -0.040   6.298 -27.419  1.00  0.00     0.030 A 
HETATM    9  C   UNL     1       0.505   6.973 -26.319  1.00  0.00     0.016 A 
HETATM   10  C   UNL     1       1.218   8.154 -26.509  1.00  0.00    -0.005 A 
HETATM   11  C   UNL     1       1.457   8.611 -27.804  1.00  0.00     0.016 A 
HETATM   12  C   UNL     1       0.923   7.922 -28.902  1.00  0.00     0.030 A 
BRANCH  10  13
HETATM   13  C   UNL     1       1.778   8.907 -25.357  1.00  0.00     0.098 A 
HETATM   14  N   UNL     1       3.072   8.895 -25.227  1.00  0.00    -0.170 NA
HETATM   15  N   UNL     1       3.624   9.523 -24.156  1.00  0.00    -0.242 N 
HETATM   16  C   UNL     1       2.938  10.141 -23.139  1.00  0.00     0.272 A 
HETATM   17  H   UNL     1       4.634   9.467 -24.066  1.00  0.00     0.192 HD
HETATM   18  O   UNL     1       3.504  10.630 -22.169  1.00  0.00    -0.266 OA
HETATM   19  C   UNL     1       1.477  10.208 -23.291  1.00  0.00     0.046 A 
HETATM   20  C   UNL     1       0.702  10.883 -22.339  1.00  0.00     0.018 A 
HETATM   21  C   UNL     1       0.884   9.629 -24.411  1.00  0.00     0.011 A 
HETATM   22  C   UNL     1      -0.676  10.996 -22.518  1.00  0.00     0.001 A 
HETATM   23  C   UNL     1      -1.272  10.454 -23.656  1.00  0.00     0.001 A 
HETATM   24  C   UNL     1      -0.496   9.781 -24.605  1.00  0.00     0.015 A 
ENDBRANCH  10  13
ENDBRANCH   4   7
BRANCH   1  25
HETATM   25  N   UNL     1      -2.584   4.042 -31.218  1.00  0.00    -0.377 N 
HETATM   26  H   UNL     1      -2.599   3.802 -30.226  1.00  0.00     0.160 HD
BRANCH  25  27
HETATM   27  C   UNL     1      -3.691   3.549 -31.907  1.00  0.00     0.031 A 
HETATM   28  C   UNL     1      -4.439   4.282 -32.835  1.00  0.00     0.029 A 
HETATM   29  C   UNL     1      -5.504   3.699 -33.531  1.00  0.00     0.005 A 
HETATM   30  C   UNL     1      -5.801   2.352 -33.352  1.00  0.00     0.037 A 
HETATM   31  C   UNL     1      -5.029   1.584 -32.485  1.00  0.00     0.077 A 
HETATM   32  C   UNL     1      -4.001   2.188 -31.753  1.00  0.00     0.066 A 
BRANCH  31  33
HETATM   33  O   UNL     1      -5.373   0.263 -32.404  1.00  0.00    -0.290 OA
BRANCH  33  34
HETATM   34  C   UNL     1      -5.330  -0.430 -33.643  1.00  0.00     0.505 C 
HETATM   35  F   UNL     1      -4.066  -0.868 -33.860  1.00  0.00    -0.184 F 
HETATM   36  F   UNL     1      -6.107  -1.536 -33.514  1.00  0.00    -0.184 F 
ENDBRANCH  33  34
ENDBRANCH  31  33
ENDBRANCH  25  27
ENDBRANCH   1  25
TORSDOF 6
ENDMDL
MODEL 5
REMARK VINA RESULT:      -9.6      2.964      3.656
REMARK  6 active torsions:
REMARK  status: ('A' for Active; 'I' for Inactive)
REMARK    1  A    between atoms: C_2  and  O_4 
REMARK    2  A    between atoms: O_4  and  C_5 
REMARK    3  A    between atoms: C_9  and  N_10 
REMARK    4  A    between atoms: N_10  and  C_11 
REMARK    5  A    between atoms: N_14  and  C_17 
REMARK    6  A    between atoms: C_20  and  C_23 
ROOT
HETATM    1  C   UNL     1      -4.555   6.512 -30.515  1.00  0.00     0.176 C 
HETATM    2  C   UNL     1      -6.023   6.115 -30.549  1.00  0.00     0.055 C 
HETATM    3  C   UNL     1      -5.998   4.627 -30.258  1.00  0.00     0.135 C 
HETATM    4  N   UNL     1      -4.765   4.160 -30.846  1.00  0.00    -0.316 N 
HETATM    5  C   UNL     1      -3.849   5.220 -30.950  1.00  0.00     0.247 C 
HETATM    6  O   UNL     1      -2.669   5.186 -31.279  1.00  0.00    -0.271 OA
ENDROOT
BRANCH   4   7
HETATM    7  C   UNL     1      -4.528   2.797 -31.180  1.00  0.00     0.037 A 
HETATM    8  C   UNL     1      -3.678   2.432 -32.235  1.00  0.00     0.030 A 
HETATM    9  C   UNL     1      -3.500   1.092 -32.603  1.00  0.00     0.016 A 
HETATM   10  C   UNL     1      -4.199   0.088 -31.936  1.00  0.00    -0.005 A 
HETATM   11  C   UNL     1      -5.007   0.419 -30.850  1.00  0.00     0.016 A 
HETATM   12  C   UNL     1      -5.168   1.760 -30.477  1.00  0.00     0.030 A 
BRANCH  10  13
HETATM   13  C   UNL     1      -4.053  -1.338 -32.328  1.00  0.00     0.098 A 
HETATM   14  N   UNL     1      -3.100  -2.006 -31.749  1.00  0.00    -0.170 NA
HETATM   15  N   UNL     1      -2.895  -3.298 -32.118  1.00  0.00    -0.242 N 
HETATM   16  C   UNL     1      -3.571  -3.975 -33.102  1.00  0.00     0.272 A 
HETATM   17  H   UNL     1      -2.121  -3.781 -31.671  1.00  0.00     0.192 HD
HETATM   18  O   UNL     1      -3.286  -5.122 -33.426  1.00  0.00    -0.266 OA
HETATM   19  C   UNL     1      -4.686  -3.254 -33.735  1.00  0.00     0.046 A 
HETATM   20  C   UNL     1      -5.479  -3.892 -34.698  1.00  0.00     0.018 A 
HETATM   21  C   UNL     1      -4.964  -1.949 -33.335  1.00  0.00     0.011 A 
HETATM   22  C   UNL     1      -6.571  -3.226 -35.252  1.00  0.00     0.001 A 
HETATM   23  C   UNL     1      -6.880  -1.933 -34.828  1.00  0.00     0.001 A 
HETATM   24  C   UNL     1      -6.087  -1.300 -33.866  1.00  0.00     0.015 A 
ENDBRANCH  10  13
ENDBRANCH   4   7
BRANCH   1  25
HETATM   25  N   UNL     1      -4.173   6.895 -29.153  1.00  0.00    -0.377 N 
HETATM   26  H   UNL     1      -4.175   6.116 -28.493  1.00  0.00     0.160 HD
BRANCH  25  27
HETATM   27  C   UNL     1      -3.159   7.817 -28.893  1.00  0.00     0.031 A 
HETATM   28  C   UNL     1      -3.374   9.142 -28.499  1.00  0.00     0.029 A 
HETATM   29  C   UNL     1      -2.305   9.992 -28.198  1.00  0.00     0.005 A 
HETATM   30  C   UNL     1      -1.000   9.511 -28.232  1.00  0.00     0.037 A 
HETATM   31  C   UNL     1      -0.763   8.178 -28.555  1.00  0.00     0.077 A 
HETATM   32  C   UNL     1      -1.834   7.350 -28.906  1.00  0.00     0.066 A 
BRANCH  31  33
HETATM   33  O   UNL     1       0.547   7.788 -28.525  1.00  0.00    -0.290 OA
BRANCH  33  34
HETATM   34  C   UNL     1       1.272   8.261 -27.399  1.00  0.00     0.505 C 
HETATM   35  F   UNL     1       1.891   7.213 -26.801  1.00  0.00    -0.184 F 
HETATM   36  F   UNL     1       2.253   9.076 -27.864  1.00  0.00    -0.184 F 
ENDBRANCH  33  34
ENDBRANCH  31  33
ENDBRANCH  25  27
ENDBRANCH   1  25
TORSDOF 6
ENDMDL
MODEL 6
REMARK VINA RESULT:      -9.5      3.603      4.358
REMARK  6 active torsions:
REMARK  status: ('A' for Active; 'I' for Inactive)
REMARK    1  A    between atoms: C_2  and  O_4 
REMARK    2  A    between atoms: O_4  and  C_5 
REMARK    3  A    between atoms: C_9  and  N_10 
REMARK    4  A    between atoms: N_10  and  C_11 
REMARK    5  A    between atoms: N_14  and  C_17 
REMARK    6  A    between atoms: C_20  and  C_23 
ROOT
HETATM    1  C   UNL     1      -2.979   6.201 -30.781  1.00  0.00     0.176 C 
HETATM    2  C   UNL     1      -4.474   6.225 -31.063  1.00  0.00     0.055 C 
HETATM    3  C   UNL     1      -4.908   4.793 -30.815  1.00  0.00     0.135 C 
HETATM    4  N   UNL     1      -3.773   3.993 -31.209  1.00  0.00    -0.316 N 
HETATM    5  C   UNL     1      -2.595   4.757 -31.133  1.00  0.00     0.247 C 
HETATM    6  O   UNL     1      -1.434   4.392 -31.269  1.00  0.00    -0.271 OA
ENDROOT
BRANCH   4   7
HETATM    7  C   UNL     1      -3.869   2.612 -31.540  1.00  0.00     0.037 A 
HETATM    8  C   UNL     1      -4.506   1.692 -30.694  1.00  0.00     0.030 A 
HETATM    9  C   UNL     1      -4.540   0.323 -30.992  1.00  0.00     0.016 A 
HETATM   10  C   UNL     1      -3.905  -0.156 -32.136  1.00  0.00    -0.005 A 
HETATM   11  C   UNL     1      -3.312   0.744 -33.020  1.00  0.00     0.016 A 
HETATM   12  C   UNL     1      -3.296   2.114 -32.724  1.00  0.00     0.030 A 
BRANCH  10  13
HETATM   13  C   UNL     1      -3.897  -1.606 -32.459  1.00  0.00     0.098 A 
HETATM   14  N   UNL     1      -2.982  -2.326 -31.881  1.00  0.00    -0.170 NA
HETATM   15  N   UNL     1      -2.902  -3.647 -32.190  1.00  0.00    -0.242 N 
HETATM   16  C   UNL     1      -3.672  -4.309 -33.114  1.00  0.00     0.272 A 
HETATM   17  H   UNL     1      -2.156  -4.174 -31.747  1.00  0.00     0.192 HD
HETATM   18  O   UNL     1      -3.499  -5.491 -33.388  1.00  0.00    -0.266 OA
HETATM   19  C   UNL     1      -4.746  -3.526 -33.743  1.00  0.00     0.046 A 
HETATM   20  C   UNL     1      -5.628  -4.138 -34.643  1.00  0.00     0.018 A 
HETATM   21  C   UNL     1      -4.896  -2.183 -33.401  1.00  0.00     0.011 A 
HETATM   22  C   UNL     1      -6.681  -3.406 -35.191  1.00  0.00     0.001 A 
HETATM   23  C   UNL     1      -6.861  -2.073 -34.823  1.00  0.00     0.001 A 
HETATM   24  C   UNL     1      -5.980  -1.465 -33.924  1.00  0.00     0.015 A 
ENDBRANCH  10  13
ENDBRANCH   4   7
BRANCH   1  25
HETATM   25  N   UNL     1      -2.733   6.486 -29.364  1.00  0.00    -0.377 N 
HETATM   26  H   UNL     1      -3.156   5.807 -28.731  1.00  0.00     0.160 HD
BRANCH  25  27
HETATM   27  C   UNL     1      -1.509   6.965 -28.901  1.00  0.00     0.031 A 
HETATM   28  C   UNL     1      -0.397   7.216 -29.712  1.00  0.00     0.029 A 
HETATM   29  C   UNL     1       0.782   7.752 -29.183  1.00  0.00     0.005 A 
HETATM   30  C   UNL     1       0.847   8.100 -27.837  1.00  0.00     0.037 A 
HETATM   31  C   UNL     1      -0.268   7.924 -27.023  1.00  0.00     0.077 A 
HETATM   32  C   UNL     1      -1.424   7.337 -27.549  1.00  0.00     0.066 A 
BRANCH  31  33
HETATM   33  O   UNL     1      -0.121   8.331 -25.726  1.00  0.00    -0.290 OA
BRANCH  33  34
HETATM   34  C   UNL     1      -1.280   8.929 -25.166  1.00  0.00     0.505 C 
HETATM   35  F   UNL     1      -2.109   7.953 -24.720  1.00  0.00    -0.184 F 
HETATM   36  F   UNL     1      -0.885   9.631 -24.073  1.00  0.00    -0.184 F 
ENDBRANCH  33  34
ENDBRANCH  31  33
ENDBRANCH  25  27
ENDBRANCH   1  25
TORSDOF 6
ENDMDL
MODEL 7
REMARK VINA RESULT:      -9.5      4.792      5.906
REMARK  6 active torsions:
REMARK  status: ('A' for Active; 'I' for Inactive)
REMARK    1  A    between atoms: C_2  and  O_4 
REMARK    2  A    between atoms: O_4  and  C_5 
REMARK    3  A    between atoms: C_9  and  N_10 
REMARK    4  A    between atoms: N_10  and  C_11 
REMARK    5  A    between atoms: N_14  and  C_17 
REMARK    6  A    between atoms: C_20  and  C_23 
ROOT
HETATM    1  C   UNL     1      -1.848   4.851 -33.047  1.00  0.00     0.176 C 
HETATM    2  C   UNL     1      -2.315   5.288 -34.427  1.00  0.00     0.055 C 
HETATM    3  C   UNL     1      -3.827   5.249 -34.322  1.00  0.00     0.135 C 
HETATM    4  N   UNL     1      -4.103   4.165 -33.410  1.00  0.00    -0.316 N 
HETATM    5  C   UNL     1      -2.991   3.939 -32.580  1.00  0.00     0.247 C 
HETATM    6  O   UNL     1      -2.894   3.195 -31.612  1.00  0.00    -0.271 OA
ENDROOT
BRANCH   4   7
HETATM    7  C   UNL     1      -5.362   3.505 -33.340  1.00  0.00     0.037 A 
HETATM    8  C   UNL     1      -5.528   2.183 -33.780  1.00  0.00     0.030 A 
HETATM    9  C   UNL     1      -6.783   1.560 -33.772  1.00  0.00     0.016 A 
HETATM   10  C   UNL     1      -7.908   2.265 -33.349  1.00  0.00    -0.005 A 
HETATM   11  C   UNL     1      -7.761   3.561 -32.857  1.00  0.00     0.016 A 
HETATM   12  C   UNL     1      -6.500   4.172 -32.853  1.00  0.00     0.030 A 
BRANCH  10  13
HETATM   13  C   UNL     1      -9.255   1.639 -33.361  1.00  0.00     0.098 A 
HETATM   14  N   UNL     1      -9.404   0.564 -32.646  1.00  0.00    -0.170 NA
HETATM   15  N   UNL     1     -10.604  -0.073 -32.672  1.00  0.00    -0.242 N 
HETATM   16  C   UNL     1     -11.690   0.277 -33.437  1.00  0.00     0.272 A 
HETATM   17  H   UNL     1     -10.678  -0.928 -32.128  1.00  0.00     0.192 HD
HETATM   18  O   UNL     1     -12.720  -0.386 -33.458  1.00  0.00    -0.266 OA
HETATM   19  C   UNL     1     -11.560   1.517 -34.215  1.00  0.00     0.046 A 
HETATM   20  C   UNL     1     -12.642   1.992 -34.968  1.00  0.00     0.018 A 
HETATM   21  C   UNL     1     -10.363   2.230 -34.162  1.00  0.00     0.011 A 
HETATM   22  C   UNL     1     -12.534   3.199 -35.657  1.00  0.00     0.001 A 
HETATM   23  C   UNL     1     -11.354   3.938 -35.576  1.00  0.00     0.001 A 
HETATM   24  C   UNL     1     -10.276   3.463 -34.824  1.00  0.00     0.015 A 
ENDBRANCH  10  13
ENDBRANCH   4   7
BRANCH   1  25
HETATM   25  N   UNL     1      -1.709   6.020 -32.174  1.00  0.00    -0.377 N 
HETATM   26  H   UNL     1      -2.573   6.551 -32.059  1.00  0.00     0.160 HD
BRANCH  25  27
HETATM   27  C   UNL     1      -0.934   5.998 -31.015  1.00  0.00     0.031 A 
HETATM   28  C   UNL     1      -0.078   4.952 -30.652  1.00  0.00     0.029 A 
HETATM   29  C   UNL     1       0.713   5.027 -29.501  1.00  0.00     0.005 A 
HETATM   30  C   UNL     1       0.703   6.179 -28.722  1.00  0.00     0.037 A 
HETATM   31  C   UNL     1      -0.088   7.261 -29.098  1.00  0.00     0.077 A 
HETATM   32  C   UNL     1      -0.917   7.156 -30.220  1.00  0.00     0.066 A 
BRANCH  31  33
HETATM   33  O   UNL     1      -0.002   8.363 -28.292  1.00  0.00    -0.290 OA
BRANCH  33  34
HETATM   34  C   UNL     1       1.154   8.397 -27.470  1.00  0.00     0.505 C 
HETATM   35  F   UNL     1       2.145   9.048 -28.128  1.00  0.00    -0.184 F 
HETATM   36  F   UNL     1       0.854   9.149 -26.380  1.00  0.00    -0.184 F 
ENDBRANCH  33  34
ENDBRANCH  31  33
ENDBRANCH  25  27
ENDBRANCH   1  25
TORSDOF 6
ENDMDL
MODEL 8
REMARK VINA RESULT:      -9.4      3.621      9.726
REMARK  6 active torsions:
REMARK  status: ('A' for Active; 'I' for Inactive)
REMARK    1  A    between atoms: C_2  and  O_4 
REMARK    2  A    between atoms: O_4  and  C_5 
REMARK    3  A    between atoms: C_9  and  N_10 
REMARK    4  A    between atoms: N_10  and  C_11 
REMARK    5  A    between atoms: N_14  and  C_17 
REMARK    6  A    between atoms: C_20  and  C_23 
ROOT
HETATM    1  C   UNL     1      -6.032   1.242 -32.501  1.00  0.00     0.176 C 
HETATM    2  C   UNL     1      -6.772   2.262 -33.354  1.00  0.00     0.055 C 
HETATM    3  C   UNL     1      -5.865   3.476 -33.328  1.00  0.00     0.135 C 
HETATM    4  N   UNL     1      -5.246   3.442 -32.024  1.00  0.00    -0.316 N 
HETATM    5  C   UNL     1      -5.250   2.129 -31.523  1.00  0.00     0.247 C 
HETATM    6  O   UNL     1      -4.710   1.690 -30.515  1.00  0.00    -0.271 OA
ENDROOT
BRANCH   4   7
HETATM    7  C   UNL     1      -4.657   4.583 -31.410  1.00  0.00     0.037 A 
HETATM    8  C   UNL     1      -3.500   5.185 -31.926  1.00  0.00     0.030 A 
HETATM    9  C   UNL     1      -2.886   6.267 -31.281  1.00  0.00     0.016 A 
HETATM   10  C   UNL     1      -3.406   6.748 -30.081  1.00  0.00    -0.005 A 
HETATM   11  C   UNL     1      -4.585   6.203 -29.576  1.00  0.00     0.016 A 
HETATM   12  C   UNL     1      -5.203   5.132 -30.236  1.00  0.00     0.030 A 
BRANCH  10  13
HETATM   13  C   UNL     1      -2.756   7.872 -29.359  1.00  0.00     0.098 A 
HETATM   14  N   UNL     1      -3.435   8.978 -29.270  1.00  0.00    -0.170 NA
HETATM   15  N   UNL     1      -2.857  10.049 -28.667  1.00  0.00    -0.242 N 
HETATM   16  C   UNL     1      -1.576  10.107 -28.176  1.00  0.00     0.272 A 
HETATM   17  H   UNL     1      -3.401  10.906 -28.643  1.00  0.00     0.192 HD
HETATM   18  O   UNL     1      -1.100  11.133 -27.703  1.00  0.00    -0.266 OA
HETATM   19  C   UNL     1      -0.808   8.855 -28.222  1.00  0.00     0.046 A 
HETATM   20  C   UNL     1       0.482   8.800 -27.677  1.00  0.00     0.018 A 
HETATM   21  C   UNL     1      -1.394   7.719 -28.777  1.00  0.00     0.011 A 
HETATM   22  C   UNL     1       1.184   7.596 -27.670  1.00  0.00     0.001 A 
HETATM   23  C   UNL     1       0.588   6.445 -28.187  1.00  0.00     0.001 A 
HETATM   24  C   UNL     1      -0.699   6.502 -28.729  1.00  0.00     0.015 A 
ENDBRANCH  10  13
ENDBRANCH   4   7
BRANCH   1  25
HETATM   25  N   UNL     1      -5.129   0.450 -33.341  1.00  0.00    -0.377 N 
HETATM   26  H   UNL     1      -4.142   0.576 -33.113  1.00  0.00     0.160 HD
BRANCH  25  27
HETATM   27  C   UNL     1      -5.427  -0.853 -33.736  1.00  0.00     0.031 A 
HETATM   28  C   UNL     1      -6.695  -1.290 -34.137  1.00  0.00     0.029 A 
HETATM   29  C   UNL     1      -6.905  -2.602 -34.576  1.00  0.00     0.005 A 
HETATM   30  C   UNL     1      -5.834  -3.485 -34.675  1.00  0.00     0.037 A 
HETATM   31  C   UNL     1      -4.551  -3.055 -34.347  1.00  0.00     0.077 A 
HETATM   32  C   UNL     1      -4.360  -1.758 -33.858  1.00  0.00     0.066 A 
BRANCH  31  33
HETATM   33  O   UNL     1      -3.558  -3.980 -34.513  1.00  0.00    -0.290 OA
BRANCH  33  34
HETATM   34  C   UNL     1      -3.356  -4.828 -33.392  1.00  0.00     0.505 C 
HETATM   35  F   UNL     1      -3.348  -4.074 -32.265  1.00  0.00    -0.184 F 
HETATM   36  F   UNL     1      -4.435  -5.646 -33.304  1.00  0.00    -0.184 F 
ENDBRANCH  33  34
ENDBRANCH  31  33
ENDBRANCH  25  27
ENDBRANCH   1  25
TORSDOF 6
ENDMDL
MODEL 9
REMARK VINA RESULT:      -9.3      6.643      9.803
REMARK  6 active torsions:
REMARK  status: ('A' for Active; 'I' for Inactive)
REMARK    1  A    between atoms: C_2  and  O_4 
REMARK    2  A    between atoms: O_4  and  C_5 
REMARK    3  A    between atoms: C_9  and  N_10 
REMARK    4  A    between atoms: N_10  and  C_11 
REMARK    5  A    between atoms: N_14  and  C_17 
REMARK    6  A    between atoms: C_20  and  C_23 
ROOT
HETATM    1  C   UNL     1      -5.587   1.184 -31.249  1.00  0.00     0.176 C 
HETATM    2  C   UNL     1      -6.538   0.071 -30.837  1.00  0.00     0.055 C 
HETATM    3  C   UNL     1      -7.850   0.460 -31.492  1.00  0.00     0.135 C 
HETATM    4  N   UNL     1      -7.849   1.903 -31.484  1.00  0.00    -0.316 N 
HETATM    5  C   UNL     1      -6.530   2.384 -31.418  1.00  0.00     0.247 C 
HETATM    6  O   UNL     1      -6.127   3.537 -31.515  1.00  0.00    -0.271 OA
ENDROOT
BRANCH   4   7
HETATM    7  C   UNL     1      -9.032   2.685 -31.608  1.00  0.00     0.037 A 
HETATM    8  C   UNL     1      -9.656   3.263 -30.492  1.00  0.00     0.030 A 
HETATM    9  C   UNL     1     -10.856   3.976 -30.611  1.00  0.00     0.016 A 
HETATM   10  C   UNL     1     -11.474   4.096 -31.854  1.00  0.00    -0.005 A 
HETATM   11  C   UNL     1     -10.848   3.577 -32.985  1.00  0.00     0.016 A 
HETATM   12  C   UNL     1      -9.638   2.880 -32.861  1.00  0.00     0.030 A 
BRANCH  10  13
HETATM   13  C   UNL     1     -12.765   4.818 -32.002  1.00  0.00     0.098 A 
HETATM   14  N   UNL     1     -12.699   6.112 -32.105  1.00  0.00    -0.170 NA
HETATM   15  N   UNL     1     -13.858   6.817 -32.187  1.00  0.00    -0.242 N 
HETATM   16  C   UNL     1     -15.127   6.299 -32.115  1.00  0.00     0.272 A 
HETATM   17  H   UNL     1     -13.773   7.828 -32.233  1.00  0.00     0.192 HD
HETATM   18  O   UNL     1     -16.128   7.006 -32.130  1.00  0.00    -0.266 OA
HETATM   19  C   UNL     1     -15.225   4.833 -32.048  1.00  0.00     0.046 A 
HETATM   20  C   UNL     1     -16.481   4.211 -32.046  1.00  0.00     0.018 A 
HETATM   21  C   UNL     1     -14.055   4.076 -32.027  1.00  0.00     0.011 A 
HETATM   22  C   UNL     1     -16.567   2.820 -32.043  1.00  0.00     0.001 A 
HETATM   23  C   UNL     1     -15.402   2.054 -32.062  1.00  0.00     0.001 A 
HETATM   24  C   UNL     1     -14.150   2.677 -32.065  1.00  0.00     0.015 A 
ENDBRANCH  10  13
ENDBRANCH   4   7
BRANCH   1  25
HETATM   25  N   UNL     1      -4.933   0.839 -32.514  1.00  0.00    -0.377 N 
HETATM   26  H   UNL     1      -4.232   1.519 -32.812  1.00  0.00     0.160 HD
BRANCH  25  27
HETATM   27  C   UNL     1      -4.583  -0.471 -32.841  1.00  0.00     0.031 A 
HETATM   28  C   UNL     1      -3.683  -1.256 -32.114  1.00  0.00     0.029 A 
HETATM   29  C   UNL     1      -3.426  -2.585 -32.470  1.00  0.00     0.005 A 
HETATM   30  C   UNL     1      -4.113  -3.168 -33.530  1.00  0.00     0.037 A 
HETATM   31  C   UNL     1      -5.064  -2.429 -34.227  1.00  0.00     0.077 A 
HETATM   32  C   UNL     1      -5.275  -1.085 -33.898  1.00  0.00     0.066 A 
BRANCH  31  33
HETATM   33  O   UNL     1      -5.714  -3.098 -35.227  1.00  0.00    -0.290 OA
BRANCH  33  34
HETATM   34  C   UNL     1      -6.317  -4.317 -34.818  1.00  0.00     0.505 C 
HETATM   35  F   UNL     1      -7.456  -4.040 -34.137  1.00  0.00    -0.184 F 
HETATM   36  F   UNL     1      -6.689  -4.981 -35.942  1.00  0.00    -0.184 F 
ENDBRANCH  33  34
ENDBRANCH  31  33
ENDBRANCH  25  27
ENDBRANCH   1  25
TORSDOF 6
ENDMDL
MODEL 10
REMARK VINA RESULT:      -9.3      5.238      6.929
REMARK  6 active torsions:
REMARK  status: ('A' for Active; 'I' for Inactive)
REMARK    1  A    between atoms: C_2  and  O_4 
REMARK    2  A    between atoms: O_4  and  C_5 
REMARK    3  A    between atoms: C_9  and  N_10 
REMARK    4  A    between atoms: N_10  and  C_11 
REMARK    5  A    between atoms: N_14  and  C_17 
REMARK    6  A    between atoms: C_20  and  C_23 
ROOT
HETATM    1  C   UNL     1      -3.672   3.060 -31.860  1.00  0.00     0.176 C 
HETATM    2  C   UNL     1      -3.927   1.563 -31.947  1.00  0.00     0.055 C 
HETATM    3  C   UNL     1      -5.256   1.468 -32.672  1.00  0.00     0.135 C 
HETATM    4  N   UNL     1      -5.986   2.640 -32.252  1.00  0.00    -0.316 N 
HETATM    5  C   UNL     1      -5.092   3.641 -31.834  1.00  0.00     0.247 C 
HETATM    6  O   UNL     1      -5.329   4.803 -31.530  1.00  0.00    -0.271 OA
ENDROOT
BRANCH   4   7
HETATM    7  C   UNL     1      -7.403   2.751 -32.342  1.00  0.00     0.037 A 
HETATM    8  C   UNL     1      -8.038   3.141 -33.530  1.00  0.00     0.030 A 
HETATM    9  C   UNL     1      -9.428   3.313 -33.596  1.00  0.00     0.016 A 
HETATM   10  C   UNL     1     -10.207   3.126 -32.456  1.00  0.00    -0.005 A 
HETATM   11  C   UNL     1      -9.606   2.686 -31.278  1.00  0.00     0.016 A 
HETATM   12  C   UNL     1      -8.218   2.500 -31.224  1.00  0.00     0.030 A 
BRANCH  10  13
HETATM   13  C   UNL     1     -11.678   3.333 -32.489  1.00  0.00     0.098 A 
HETATM   14  N   UNL     1     -12.113   4.483 -32.065  1.00  0.00    -0.170 NA
HETATM   15  N   UNL     1     -13.454   4.695 -32.025  1.00  0.00    -0.242 N 
HETATM   16  C   UNL     1     -14.428   3.781 -32.343  1.00  0.00     0.272 A 
HETATM   17  H   UNL     1     -13.762   5.591 -31.657  1.00  0.00     0.192 HD
HETATM   18  O   UNL     1     -15.623   4.024 -32.219  1.00  0.00    -0.266 OA
HETATM   19  C   UNL     1     -13.958   2.493 -32.872  1.00  0.00     0.046 A 
HETATM   20  C   UNL     1     -14.881   1.526 -33.292  1.00  0.00     0.018 A 
HETATM   21  C   UNL     1     -12.588   2.265 -32.986  1.00  0.00     0.011 A 
HETATM   22  C   UNL     1     -14.431   0.329 -33.848  1.00  0.00     0.001 A 
HETATM   23  C   UNL     1     -13.062   0.110 -34.003  1.00  0.00     0.001 A 
HETATM   24  C   UNL     1     -12.143   1.077 -33.583  1.00  0.00     0.015 A 
ENDBRANCH  10  13
ENDBRANCH   4   7
BRANCH   1  25
HETATM   25  N   UNL     1      -2.935   3.510 -33.044  1.00  0.00    -0.377 N 
HETATM   26  H   UNL     1      -3.409   3.306 -33.924  1.00  0.00     0.160 HD
BRANCH  25  27
HETATM   27  C   UNL     1      -2.240   4.719 -33.076  1.00  0.00     0.031 A 
HETATM   28  C   UNL     1      -2.560   5.796 -33.911  1.00  0.00     0.029 A 
HETATM   29  C   UNL     1      -1.852   7.001 -33.845  1.00  0.00     0.005 A 
HETATM   30  C   UNL     1      -0.846   7.168 -32.899  1.00  0.00     0.037 A 
HETATM   31  C   UNL     1      -0.554   6.137 -32.011  1.00  0.00     0.077 A 
HETATM   32  C   UNL     1      -1.230   4.917 -32.120  1.00  0.00     0.066 A 
BRANCH  31  33
HETATM   33  O   UNL     1       0.423   6.408 -31.093  1.00  0.00    -0.290 OA
BRANCH  33  34
HETATM   34  C   UNL     1       0.384   5.584 -29.938  1.00  0.00     0.505 C 
HETATM   35  F   UNL     1       1.318   4.609 -30.059  1.00  0.00    -0.184 F 
HETATM   36  F   UNL     1       0.758   6.351 -28.882  1.00  0.00    -0.184 F 
ENDBRANCH  33  34
ENDBRANCH  31  33
ENDBRANCH  25  27
ENDBRANCH   1  25
TORSDOF 6
ENDMDL
