MODEL 1
REMARK VINA RESULT:      -9.6      0.000      0.000
REMARK  5 active torsions:
REMARK  status: ('A' for Active; 'I' for Inactive)
REMARK    1  A    between atoms: C_7  and  C_8 
REMARK    2  A    between atoms: C_16  and  C_17 
REMARK    3  A    between atoms: C_19  and  O_20 
REMARK    4  A    between atoms: C_24  and  C_25 
REMARK       I    between atoms: C_25  and  N_26 
REMARK    5  A    between atoms: N_26  and  C_27 
ROOT
HETATM    1  C   UNL     1      -6.751   5.357 -29.435  1.00  0.00     0.070 C 
HETATM    2  C   UNL     1      -5.747   4.521 -30.196  1.00  0.00     0.037 A 
HETATM    3  N   UNL     1      -6.199   3.259 -30.574  1.00  0.00    -0.192 N 
HETATM    4  C   UNL     1      -5.417   2.331 -31.149  1.00  0.00     0.726 A 
HETATM    5  N   UNL     1      -4.135   2.654 -31.472  1.00  0.00    -0.083 N 
HETATM    6  N   UNL     1      -3.449   1.579 -31.906  1.00  0.00    -0.135 NA
HETATM    7  C   UNL     1      -4.414   0.641 -31.927  1.00  0.00     0.199 A 
HETATM    8  N   UNL     1      -5.639   1.080 -31.450  1.00  0.00    -0.041 NA
HETATM    9  C   UNL     1      -3.532   3.970 -31.234  1.00  0.00     0.202 A 
HETATM   10  C   UNL     1      -4.474   4.912 -30.484  1.00  0.00     0.062 A 
HETATM   11  H   UNL     1      -7.142   2.997 -30.301  1.00  0.00     0.184 HD
ENDROOT
BRANCH  10  12
HETATM   12  C   UNL     1      -3.995   6.293 -30.124  1.00  0.00     0.256 C 
HETATM   13  N   UNL     1      -3.121   6.363 -29.057  1.00  0.00    -0.323 N 
HETATM   14  H   UNL     1      -2.755   5.512 -28.660  1.00  0.00     0.169 HD
HETATM   15  O   UNL     1      -4.352   7.254 -30.799  1.00  0.00    -0.267 OA
BRANCH  13  16
HETATM   16  C   UNL     1      -2.598   7.535 -28.463  1.00  0.00     0.035 A 
HETATM   17  C   UNL     1      -3.337   8.399 -27.652  1.00  0.00     0.029 A 
HETATM   18  C   UNL     1      -2.734   9.524 -27.078  1.00  0.00     0.002 A 
HETATM   19  C   UNL     1      -1.389   9.797 -27.314  1.00  0.00     0.000 A 
HETATM   20  C   UNL     1      -0.643   8.944 -28.121  1.00  0.00     0.002 A 
HETATM   21  C   UNL     1      -1.243   7.816 -28.688  1.00  0.00     0.029 A 
ENDBRANCH  13  16
ENDBRANCH  10  12
BRANCH   9  22
HETATM   22  C   UNL     1      -3.002   4.531 -32.551  1.00  0.00    -0.025 A 
HETATM   23  C   UNL     1      -3.826   4.673 -33.683  1.00  0.00     0.046 A 
HETATM   24  C   UNL     1      -3.295   5.174 -34.869  1.00  0.00     0.066 A 
HETATM   25  C   UNL     1      -1.954   5.524 -34.963  1.00  0.00     0.036 A 
HETATM   26  C   UNL     1      -1.123   5.371 -33.856  1.00  0.00     0.003 A 
HETATM   27  C   UNL     1      -1.641   4.875 -32.658  1.00  0.00     0.010 A 
BRANCH  24  28
HETATM   28  O   UNL     1      -4.069   5.334 -35.980  1.00  0.00    -0.361 OA
HETATM   29  H   UNL     1      -3.648   5.984 -36.566  1.00  0.00     0.217 HD
ENDBRANCH  24  28
ENDBRANCH   9  22
BRANCH   7  30
HETATM   30  C   UNL     1      -4.203  -0.729 -32.384  1.00  0.00     0.016 A 
HETATM   31  C   UNL     1      -4.853  -1.212 -33.529  1.00  0.00     0.039 A 
HETATM   32  C   UNL     1      -4.644  -2.523 -33.953  1.00  0.00     0.035 A 
HETATM   33 CL   UNL     1      -5.447  -3.105 -35.360  1.00  0.00    -0.084 Cl
HETATM   34  C   UNL     1      -3.790  -3.370 -33.248  1.00  0.00     0.024 A 
HETATM   35  C   UNL     1      -3.139  -2.901 -32.109  1.00  0.00     0.003 A 
HETATM   36  C   UNL     1      -3.345  -1.587 -31.679  1.00  0.00     0.015 A 
ENDBRANCH   7  30
TORSDOF 5
ENDMDL
MODEL 2
REMARK VINA RESULT:      -9.4      1.897      2.222
REMARK  5 active torsions:
REMARK  status: ('A' for Active; 'I' for Inactive)
REMARK    1  A    between atoms: C_7  and  C_8 
REMARK    2  A    between atoms: C_16  and  C_17 
REMARK    3  A    between atoms: C_19  and  O_20 
REMARK    4  A    between atoms: C_24  and  C_25 
REMARK       I    between atoms: C_25  and  N_26 
REMARK    5  A    between atoms: N_26  and  C_27 
ROOT
HETATM    1  C   UNL     1      -8.022   5.436 -30.339  1.00  0.00     0.070 C 
HETATM    2  C   UNL     1      -7.007   4.514 -30.976  1.00  0.00     0.037 A 
HETATM    3  N   UNL     1      -7.544   3.393 -31.603  1.00  0.00    -0.192 N 
HETATM    4  C   UNL     1      -6.799   2.402 -32.120  1.00  0.00     0.726 A 
HETATM    5  N   UNL     1      -5.444   2.525 -32.122  1.00  0.00    -0.083 N 
HETATM    6  N   UNL     1      -4.845   1.393 -32.541  1.00  0.00    -0.135 NA
HETATM    7  C   UNL     1      -5.909   0.645 -32.887  1.00  0.00     0.199 A 
HETATM    8  N   UNL     1      -7.130   1.243 -32.623  1.00  0.00    -0.041 NA
HETATM    9  C   UNL     1      -4.722   3.687 -31.592  1.00  0.00     0.202 A 
HETATM   10  C   UNL     1      -5.659   4.703 -30.938  1.00  0.00     0.062 A 
HETATM   11  H   UNL     1      -8.553   3.274 -31.570  1.00  0.00     0.184 HD
ENDROOT
BRANCH  10  12
HETATM   12  C   UNL     1      -5.074   5.939 -30.306  1.00  0.00     0.256 C 
HETATM   13  N   UNL     1      -4.920   7.024 -31.146  1.00  0.00    -0.323 N 
HETATM   14  H   UNL     1      -5.307   6.988 -32.076  1.00  0.00     0.169 HD
HETATM   15  O   UNL     1      -4.813   5.940 -29.107  1.00  0.00    -0.267 OA
BRANCH  13  16
HETATM   16  C   UNL     1      -4.316   8.263 -30.831  1.00  0.00     0.035 A 
HETATM   17  C   UNL     1      -4.989   9.334 -30.239  1.00  0.00     0.029 A 
HETATM   18  C   UNL     1      -4.307  10.517 -29.932  1.00  0.00     0.002 A 
HETATM   19  C   UNL     1      -2.950  10.641 -30.218  1.00  0.00     0.000 A 
HETATM   20  C   UNL     1      -2.270   9.580 -30.808  1.00  0.00     0.002 A 
HETATM   21  C   UNL     1      -2.948   8.395 -31.107  1.00  0.00     0.029 A 
ENDBRANCH  13  16
ENDBRANCH  10  12
BRANCH   9  22
HETATM   22  C   UNL     1      -3.828   4.271 -32.683  1.00  0.00    -0.025 A 
HETATM   23  C   UNL     1      -4.336   4.635 -33.943  1.00  0.00     0.046 A 
HETATM   24  C   UNL     1      -3.481   5.148 -34.916  1.00  0.00     0.066 A 
HETATM   25  C   UNL     1      -2.122   5.293 -34.669  1.00  0.00     0.036 A 
HETATM   26  C   UNL     1      -1.602   4.919 -33.433  1.00  0.00     0.003 A 
HETATM   27  C   UNL     1      -2.447   4.409 -32.446  1.00  0.00     0.010 A 
BRANCH  24  28
HETATM   28  O   UNL     1      -3.943   5.520 -36.143  1.00  0.00    -0.361 OA
HETATM   29  H   UNL     1      -3.497   6.339 -36.413  1.00  0.00     0.217 HD
ENDBRANCH  24  28
ENDBRANCH   9  22
BRANCH   7  30
HETATM   30  C   UNL     1      -5.805  -0.691 -33.466  1.00  0.00     0.016 A 
HETATM   31  C   UNL     1      -4.764  -1.554 -33.097  1.00  0.00     0.039 A 
HETATM   32  C   UNL     1      -4.676  -2.827 -33.659  1.00  0.00     0.035 A 
HETATM   33 CL   UNL     1      -3.394  -3.878 -33.198  1.00  0.00    -0.084 Cl
HETATM   34  C   UNL     1      -5.617  -3.257 -34.595  1.00  0.00     0.024 A 
HETATM   35  C   UNL     1      -6.655  -2.406 -34.970  1.00  0.00     0.003 A 
HETATM   36  C   UNL     1      -6.748  -1.130 -34.409  1.00  0.00     0.015 A 
ENDBRANCH   7  30
TORSDOF 5
ENDMDL
MODEL 3
REMARK VINA RESULT:      -9.4      5.105      8.853
REMARK  5 active torsions:
REMARK  status: ('A' for Active; 'I' for Inactive)
REMARK    1  A    between atoms: C_7  and  C_8 
REMARK    2  A    between atoms: C_16  and  C_17 
REMARK    3  A    between atoms: C_19  and  O_20 
REMARK    4  A    between atoms: C_24  and  C_25 
REMARK       I    between atoms: C_25  and  N_26 
REMARK    5  A    between atoms: N_26  and  C_27 
ROOT
HETATM    1  C   UNL     1      -9.525   3.501 -30.131  1.00  0.00     0.070 C 
HETATM    2  C   UNL     1      -8.428   3.347 -31.160  1.00  0.00     0.037 A 
HETATM    3  N   UNL     1      -7.251   4.033 -30.871  1.00  0.00    -0.192 N 
HETATM    4  C   UNL     1      -6.212   4.114 -31.718  1.00  0.00     0.726 A 
HETATM    5  N   UNL     1      -6.255   3.420 -32.888  1.00  0.00    -0.083 N 
HETATM    6  N   UNL     1      -5.208   3.720 -33.680  1.00  0.00    -0.135 NA
HETATM    7  C   UNL     1      -4.495   4.533 -32.878  1.00  0.00     0.199 A 
HETATM    8  N   UNL     1      -5.103   4.803 -31.663  1.00  0.00    -0.041 NA
HETATM    9  C   UNL     1      -7.378   2.570 -33.300  1.00  0.00     0.202 A 
HETATM   10  C   UNL     1      -8.545   2.632 -32.313  1.00  0.00     0.062 A 
HETATM   11  H   UNL     1      -7.227   4.585 -30.018  1.00  0.00     0.184 HD
ENDROOT
BRANCH  10  12
HETATM   12  C   UNL     1      -9.796   1.847 -32.608  1.00  0.00     0.256 C 
HETATM   13  N   UNL     1     -10.828   2.562 -33.183  1.00  0.00    -0.323 N 
HETATM   14  H   UNL     1     -10.666   3.508 -33.486  1.00  0.00     0.169 HD
HETATM   15  O   UNL     1      -9.823   0.642 -32.376  1.00  0.00    -0.267 OA
BRANCH  13  16
HETATM   16  C   UNL     1     -12.129   2.089 -33.473  1.00  0.00     0.035 A 
HETATM   17  C   UNL     1     -12.412   1.105 -34.423  1.00  0.00     0.029 A 
HETATM   18  C   UNL     1     -13.727   0.673 -34.627  1.00  0.00     0.002 A 
HETATM   19  C   UNL     1     -14.770   1.223 -33.887  1.00  0.00     0.000 A 
HETATM   20  C   UNL     1     -14.500   2.204 -32.939  1.00  0.00     0.002 A 
HETATM   21  C   UNL     1     -13.186   2.630 -32.728  1.00  0.00     0.029 A 
ENDBRANCH  13  16
ENDBRANCH  10  12
BRANCH   9  22
HETATM   22  C   UNL     1      -6.869   1.159 -33.580  1.00  0.00    -0.025 A 
HETATM   23  C   UNL     1      -5.998   0.494 -32.698  1.00  0.00     0.046 A 
HETATM   24  C   UNL     1      -5.545  -0.788 -33.003  1.00  0.00     0.066 A 
HETATM   25  C   UNL     1      -5.927  -1.421 -34.178  1.00  0.00     0.036 A 
HETATM   26  C   UNL     1      -6.774  -0.768 -35.070  1.00  0.00     0.003 A 
HETATM   27  C   UNL     1      -7.241   0.514 -34.775  1.00  0.00     0.010 A 
BRANCH  24  28
HETATM   28  O   UNL     1      -4.708  -1.462 -32.165  1.00  0.00    -0.361 OA
HETATM   29  H   UNL     1      -5.229  -1.845 -31.440  1.00  0.00     0.217 HD
ENDBRANCH  24  28
ENDBRANCH   9  22
BRANCH   7  30
HETATM   30  C   UNL     1      -3.207   5.110 -33.248  1.00  0.00     0.016 A 
HETATM   31  C   UNL     1      -2.403   5.743 -32.290  1.00  0.00     0.039 A 
HETATM   32  C   UNL     1      -1.175   6.292 -32.658  1.00  0.00     0.035 A 
HETATM   33 CL   UNL     1      -0.196   7.067 -31.473  1.00  0.00    -0.084 Cl
HETATM   34  C   UNL     1      -0.732   6.221 -33.978  1.00  0.00     0.024 A 
HETATM   35  C   UNL     1      -1.523   5.594 -34.938  1.00  0.00     0.003 A 
HETATM   36  C   UNL     1      -2.755   5.042 -34.575  1.00  0.00     0.015 A 
ENDBRANCH   7  30
TORSDOF 5
ENDMDL
MODEL 4
REMARK VINA RESULT:      -9.3      1.643      1.998
REMARK  5 active torsions:
REMARK  status: ('A' for Active; 'I' for Inactive)
REMARK    1  A    between atoms: C_7  and  C_8 
REMARK    2  A    between atoms: C_16  and  C_17 
REMARK    3  A    between atoms: C_19  and  O_20 
REMARK    4  A    between atoms: C_24  and  C_25 
REMARK       I    between atoms: C_25  and  N_26 
REMARK    5  A    between atoms: N_26  and  C_27 
ROOT
HETATM    1  C   UNL     1      -7.914   5.571 -29.952  1.00  0.00     0.070 C 
HETATM    2  C   UNL     1      -6.874   4.658 -30.559  1.00  0.00     0.037 A 
HETATM    3  N   UNL     1      -7.384   3.596 -31.300  1.00  0.00    -0.192 N 
HETATM    4  C   UNL     1      -6.623   2.615 -31.814  1.00  0.00     0.726 A 
HETATM    5  N   UNL     1      -5.270   2.696 -31.695  1.00  0.00    -0.083 N 
HETATM    6  N   UNL     1      -4.668   1.573 -32.134  1.00  0.00    -0.135 NA
HETATM    7  C   UNL     1      -5.717   0.881 -32.615  1.00  0.00     0.199 A 
HETATM    8  N   UNL     1      -6.941   1.500 -32.416  1.00  0.00    -0.041 NA
HETATM    9  C   UNL     1      -4.566   3.799 -31.033  1.00  0.00     0.202 A 
HETATM   10  C   UNL     1      -5.529   4.802 -30.396  1.00  0.00     0.062 A 
HETATM   11  H   UNL     1      -8.395   3.507 -31.359  1.00  0.00     0.184 HD
ENDROOT
BRANCH  10  12
HETATM   12  C   UNL     1      -4.967   5.977 -29.640  1.00  0.00     0.256 C 
HETATM   13  N   UNL     1      -4.833   5.801 -28.277  1.00  0.00    -0.323 N 
HETATM   14  H   UNL     1      -4.989   4.890 -27.878  1.00  0.00     0.169 HD
HETATM   15  O   UNL     1      -4.624   6.983 -30.253  1.00  0.00    -0.267 OA
BRANCH  13  16
HETATM   16  C   UNL     1      -4.421   6.771 -27.333  1.00  0.00     0.035 A 
HETATM   17  C   UNL     1      -5.176   7.892 -26.980  1.00  0.00     0.029 A 
HETATM   18  C   UNL     1      -4.706   8.787 -26.013  1.00  0.00     0.002 A 
HETATM   19  C   UNL     1      -3.478   8.573 -25.394  1.00  0.00     0.000 A 
HETATM   20  C   UNL     1      -2.717   7.460 -25.738  1.00  0.00     0.002 A 
HETATM   21  C   UNL     1      -3.189   6.560 -26.698  1.00  0.00     0.029 A 
ENDBRANCH  13  16
ENDBRANCH  10  12
BRANCH   9  22
HETATM   22  C   UNL     1      -3.567   4.420 -32.006  1.00  0.00    -0.025 A 
HETATM   23  C   UNL     1      -3.963   4.913 -33.263  1.00  0.00     0.046 A 
HETATM   24  C   UNL     1      -3.014   5.457 -34.126  1.00  0.00     0.066 A 
HETATM   25  C   UNL     1      -1.671   5.507 -33.774  1.00  0.00     0.036 A 
HETATM   26  C   UNL     1      -1.263   5.005 -32.541  1.00  0.00     0.003 A 
HETATM   27  C   UNL     1      -2.202   4.463 -31.663  1.00  0.00     0.010 A 
BRANCH  24  28
HETATM   28  O   UNL     1      -3.366   5.952 -35.346  1.00  0.00    -0.361 OA
HETATM   29  H   UNL     1      -3.183   5.281 -36.023  1.00  0.00     0.217 HD
ENDBRANCH  24  28
ENDBRANCH   9  22
BRANCH   7  30
HETATM   30  C   UNL     1      -5.600  -0.418 -33.268  1.00  0.00     0.016 A 
HETATM   31  C   UNL     1      -4.645  -1.352 -32.841  1.00  0.00     0.039 A 
HETATM   32  C   UNL     1      -4.542  -2.589 -33.475  1.00  0.00     0.035 A 
HETATM   33 CL   UNL     1      -3.366  -3.727 -32.942  1.00  0.00    -0.084 Cl
HETATM   34  C   UNL     1      -5.382  -2.915 -34.539  1.00  0.00     0.024 A 
HETATM   35  C   UNL     1      -6.335  -1.994 -34.972  1.00  0.00     0.003 A 
HETATM   36  C   UNL     1      -6.443  -0.752 -34.340  1.00  0.00     0.015 A 
ENDBRANCH   7  30
TORSDOF 5
ENDMDL
MODEL 5
REMARK VINA RESULT:      -9.2      3.183      5.292
REMARK  5 active torsions:
REMARK  status: ('A' for Active; 'I' for Inactive)
REMARK    1  A    between atoms: C_7  and  C_8 
REMARK    2  A    between atoms: C_16  and  C_17 
REMARK    3  A    between atoms: C_19  and  O_20 
REMARK    4  A    between atoms: C_24  and  C_25 
REMARK       I    between atoms: C_25  and  N_26 
REMARK    5  A    between atoms: N_26  and  C_27 
ROOT
HETATM    1  C   UNL     1      -3.436   4.624 -31.383  1.00  0.00     0.070 C 
HETATM    2  C   UNL     1      -4.208   3.510 -32.053  1.00  0.00     0.037 A 
HETATM    3  N   UNL     1      -3.737   2.227 -31.789  1.00  0.00    -0.192 N 
HETATM    4  C   UNL     1      -4.215   1.122 -32.385  1.00  0.00     0.726 A 
HETATM    5  N   UNL     1      -5.278   1.231 -33.226  1.00  0.00    -0.083 N 
HETATM    6  N   UNL     1      -5.540   0.064 -33.846  1.00  0.00    -0.135 NA
HETATM    7  C   UNL     1      -4.657  -0.756 -33.248  1.00  0.00     0.199 A 
HETATM    8  N   UNL     1      -3.815  -0.121 -32.349  1.00  0.00    -0.041 NA
HETATM    9  C   UNL     1      -5.956   2.495 -33.536  1.00  0.00     0.202 A 
HETATM   10  C   UNL     1      -5.268   3.697 -32.888  1.00  0.00     0.062 A 
HETATM   11  H   UNL     1      -2.918   2.140 -31.193  1.00  0.00     0.184 HD
ENDROOT
BRANCH  10  12
HETATM   12  C   UNL     1      -5.815   5.077 -33.138  1.00  0.00     0.256 C 
HETATM   13  N   UNL     1      -6.599   5.601 -32.129  1.00  0.00    -0.323 N 
HETATM   14  H   UNL     1      -6.667   5.113 -31.251  1.00  0.00     0.169 HD
HETATM   15  O   UNL     1      -5.512   5.670 -34.169  1.00  0.00    -0.267 OA
BRANCH  13  16
HETATM   16  C   UNL     1      -7.303   6.828 -32.152  1.00  0.00     0.035 A 
HETATM   17  C   UNL     1      -6.737   8.062 -31.822  1.00  0.00     0.029 A 
HETATM   18  C   UNL     1      -7.497   9.234 -31.899  1.00  0.00     0.002 A 
HETATM   19  C   UNL     1      -8.829   9.183 -32.302  1.00  0.00     0.000 A 
HETATM   20  C   UNL     1      -9.403   7.959 -32.632  1.00  0.00     0.002 A 
HETATM   21  C   UNL     1      -8.642   6.789 -32.563  1.00  0.00     0.029 A 
ENDBRANCH  13  16
ENDBRANCH  10  12
BRANCH   9  22
HETATM   22  C   UNL     1      -7.441   2.368 -33.205  1.00  0.00    -0.025 A 
HETATM   23  C   UNL     1      -7.904   2.319 -31.877  1.00  0.00     0.046 A 
HETATM   24  C   UNL     1      -9.267   2.186 -31.621  1.00  0.00     0.066 A 
HETATM   25  C   UNL     1     -10.184   2.084 -32.659  1.00  0.00     0.036 A 
HETATM   26  C   UNL     1      -9.738   2.112 -33.978  1.00  0.00     0.003 A 
HETATM   27  C   UNL     1      -8.376   2.250 -34.251  1.00  0.00     0.010 A 
BRANCH  24  28
HETATM   28  O   UNL     1      -9.748   2.146 -30.346  1.00  0.00    -0.361 OA
HETATM   29  H   UNL     1     -10.696   2.355 -30.361  1.00  0.00     0.217 HD
ENDBRANCH  24  28
ENDBRANCH   9  22
BRANCH   7  30
HETATM   30  C   UNL     1      -4.560  -2.185 -33.527  1.00  0.00     0.016 A 
HETATM   31  C   UNL     1      -5.436  -2.799 -34.434  1.00  0.00     0.039 A 
HETATM   32  C   UNL     1      -5.334  -4.166 -34.691  1.00  0.00     0.035 A 
HETATM   33 CL   UNL     1      -6.414  -4.909 -35.806  1.00  0.00    -0.084 Cl
HETATM   34  C   UNL     1      -4.366  -4.939 -34.051  1.00  0.00     0.024 A 
HETATM   35  C   UNL     1      -3.491  -4.339 -33.148  1.00  0.00     0.003 A 
HETATM   36  C   UNL     1      -3.588  -2.969 -32.887  1.00  0.00     0.015 A 
ENDBRANCH   7  30
TORSDOF 5
ENDMDL
MODEL 6
REMARK VINA RESULT:      -9.2      4.700      9.519
REMARK  5 active torsions:
REMARK  status: ('A' for Active; 'I' for Inactive)
REMARK    1  A    between atoms: C_7  and  C_8 
REMARK    2  A    between atoms: C_16  and  C_17 
REMARK    3  A    between atoms: C_19  and  O_20 
REMARK    4  A    between atoms: C_24  and  C_25 
REMARK       I    between atoms: C_25  and  N_26 
REMARK    5  A    between atoms: N_26  and  C_27 
ROOT
HETATM    1  C   UNL     1      -3.491   2.410 -32.278  1.00  0.00     0.070 C 
HETATM    2  C   UNL     1      -4.910   2.636 -31.809  1.00  0.00     0.037 A 
HETATM    3  N   UNL     1      -5.230   3.959 -31.519  1.00  0.00    -0.192 N 
HETATM    4  C   UNL     1      -6.400   4.339 -30.978  1.00  0.00     0.726 A 
HETATM    5  N   UNL     1      -7.372   3.408 -30.781  1.00  0.00    -0.083 N 
HETATM    6  N   UNL     1      -8.418   3.921 -30.105  1.00  0.00    -0.135 NA
HETATM    7  C   UNL     1      -8.064   5.216 -30.014  1.00  0.00     0.199 A 
HETATM    8  N   UNL     1      -6.811   5.497 -30.536  1.00  0.00    -0.041 NA
HETATM    9  C   UNL     1      -7.234   1.988 -31.124  1.00  0.00     0.202 A 
HETATM   10  C   UNL     1      -5.833   1.648 -31.634  1.00  0.00     0.062 A 
HETATM   11  H   UNL     1      -4.497   4.654 -31.626  1.00  0.00     0.184 HD
ENDROOT
BRANCH  10  12
HETATM   12  C   UNL     1      -5.510   0.222 -31.994  1.00  0.00     0.256 C 
HETATM   13  N   UNL     1      -5.790  -0.143 -33.296  1.00  0.00    -0.323 N 
HETATM   14  H   UNL     1      -6.068   0.562 -33.959  1.00  0.00     0.169 HD
HETATM   15  O   UNL     1      -4.989  -0.510 -31.159  1.00  0.00    -0.267 OA
BRANCH  13  16
HETATM   16  C   UNL     1      -5.669  -1.435 -33.860  1.00  0.00     0.035 A 
HETATM   17  C   UNL     1      -4.453  -2.095 -34.053  1.00  0.00     0.029 A 
HETATM   18  C   UNL     1      -4.424  -3.386 -34.590  1.00  0.00     0.002 A 
HETATM   19  C   UNL     1      -5.609  -4.027 -34.944  1.00  0.00     0.000 A 
HETATM   20  C   UNL     1      -6.825  -3.378 -34.758  1.00  0.00     0.002 A 
HETATM   21  C   UNL     1      -6.856  -2.092 -34.213  1.00  0.00     0.029 A 
ENDBRANCH  13  16
ENDBRANCH  10  12
BRANCH   9  22
HETATM   22  C   UNL     1      -8.361   1.584 -32.071  1.00  0.00    -0.025 A 
HETATM   23  C   UNL     1      -8.740   2.389 -33.161  1.00  0.00     0.046 A 
HETATM   24  C   UNL     1      -9.786   1.988 -33.989  1.00  0.00     0.066 A 
HETATM   25  C   UNL     1     -10.478   0.807 -33.750  1.00  0.00     0.036 A 
HETATM   26  C   UNL     1     -10.124   0.010 -32.664  1.00  0.00     0.003 A 
HETATM   27  C   UNL     1      -9.075   0.395 -31.828  1.00  0.00     0.010 A 
BRANCH  24  28
HETATM   28  O   UNL     1     -10.172   2.740 -35.059  1.00  0.00    -0.361 OA
HETATM   29  H   UNL     1      -9.704   3.590 -35.032  1.00  0.00     0.217 HD
ENDBRANCH  24  28
ENDBRANCH   9  22
BRANCH   7  30
HETATM   30  C   UNL     1      -8.900   6.243 -29.401  1.00  0.00     0.016 A 
HETATM   31  C   UNL     1     -10.037   6.731 -30.060  1.00  0.00     0.039 A 
HETATM   32  C   UNL     1     -10.825   7.714 -29.464  1.00  0.00     0.035 A 
HETATM   33 CL   UNL     1     -12.219   8.305 -30.283  1.00  0.00    -0.084 Cl
HETATM   34  C   UNL     1     -10.495   8.225 -28.210  1.00  0.00     0.024 A 
HETATM   35  C   UNL     1      -9.367   7.748 -27.545  1.00  0.00     0.003 A 
HETATM   36  C   UNL     1      -8.573   6.763 -28.138  1.00  0.00     0.015 A 
ENDBRANCH   7  30
TORSDOF 5
ENDMDL
MODEL 7
REMARK VINA RESULT:      -9.0      2.613      3.548
REMARK  5 active torsions:
REMARK  status: ('A' for Active; 'I' for Inactive)
REMARK    1  A    between atoms: C_7  and  C_8 
REMARK    2  A    between atoms: C_16  and  C_17 
REMARK    3  A    between atoms: C_19  and  O_20 
REMARK    4  A    between atoms: C_24  and  C_25 
REMARK       I    between atoms: C_25  and  N_26 
REMARK    5  A    between atoms: N_26  and  C_27 
ROOT
HETATM    1  C   UNL     1      -8.881   5.088 -33.752  1.00  0.00     0.070 C 
HETATM    2  C   UNL     1      -7.740   4.154 -33.415  1.00  0.00     0.037 A 
HETATM    3  N   UNL     1      -7.744   2.947 -34.108  1.00  0.00    -0.192 N 
HETATM    4  C   UNL     1      -6.884   1.946 -33.861  1.00  0.00     0.726 A 
HETATM    5  N   UNL     1      -5.891   2.135 -32.951  1.00  0.00    -0.083 N 
HETATM    6  N   UNL     1      -5.210   0.997 -32.717  1.00  0.00    -0.135 NA
HETATM    7  C   UNL     1      -5.776   0.163 -33.610  1.00  0.00     0.199 A 
HETATM    8  N   UNL     1      -6.825   0.724 -34.320  1.00  0.00    -0.041 NA
HETATM    9  C   UNL     1      -5.685   3.382 -32.205  1.00  0.00     0.202 A 
HETATM   10  C   UNL     1      -6.777   4.414 -32.487  1.00  0.00     0.062 A 
HETATM   11  H   UNL     1      -8.506   2.782 -34.761  1.00  0.00     0.184 HD
ENDROOT
BRANCH  10  12
HETATM   12  C   UNL     1      -6.737   5.737 -31.770  1.00  0.00     0.256 C 
HETATM   13  N   UNL     1      -7.153   5.717 -30.454  1.00  0.00    -0.323 N 
HETATM   14  H   UNL     1      -7.338   4.833 -30.007  1.00  0.00     0.169 HD
HETATM   15  O   UNL     1      -6.307   6.729 -32.352  1.00  0.00    -0.267 OA
BRANCH  13  16
HETATM   16  C   UNL     1      -7.298   6.829 -29.592  1.00  0.00     0.035 A 
HETATM   17  C   UNL     1      -8.458   7.600 -29.496  1.00  0.00     0.029 A 
HETATM   18  C   UNL     1      -8.528   8.667 -28.593  1.00  0.00     0.002 A 
HETATM   19  C   UNL     1      -7.438   8.975 -27.784  1.00  0.00     0.000 A 
HETATM   20  C   UNL     1      -6.277   8.214 -27.872  1.00  0.00     0.002 A 
HETATM   21  C   UNL     1      -6.209   7.143 -28.767  1.00  0.00     0.029 A 
ENDBRANCH  13  16
ENDBRANCH  10  12
BRANCH   9  22
HETATM   22  C   UNL     1      -4.265   3.889 -32.447  1.00  0.00    -0.025 A 
HETATM   23  C   UNL     1      -3.294   3.891 -31.430  1.00  0.00     0.046 A 
HETATM   24  C   UNL     1      -2.015   4.379 -31.692  1.00  0.00     0.066 A 
HETATM   25  C   UNL     1      -1.683   4.883 -32.944  1.00  0.00     0.036 A 
HETATM   26  C   UNL     1      -2.641   4.904 -33.954  1.00  0.00     0.003 A 
HETATM   27  C   UNL     1      -3.924   4.413 -33.709  1.00  0.00     0.010 A 
BRANCH  24  28
HETATM   28  O   UNL     1      -1.048   4.386 -30.732  1.00  0.00    -0.361 OA
HETATM   29  H   UNL     1      -1.264   3.717 -30.062  1.00  0.00     0.217 HD
ENDBRANCH  24  28
ENDBRANCH   9  22
BRANCH   7  30
HETATM   30  C   UNL     1      -5.354  -1.220 -33.807  1.00  0.00     0.016 A 
HETATM   31  C   UNL     1      -6.144  -2.112 -34.546  1.00  0.00     0.039 A 
HETATM   32  C   UNL     1      -5.730  -3.432 -34.725  1.00  0.00     0.035 A 
HETATM   33 CL   UNL     1      -6.707  -4.518 -35.634  1.00  0.00    -0.084 Cl
HETATM   34  C   UNL     1      -4.530  -3.881 -34.174  1.00  0.00     0.024 A 
HETATM   35  C   UNL     1      -3.738  -3.003 -33.438  1.00  0.00     0.003 A 
HETATM   36  C   UNL     1      -4.148  -1.679 -33.255  1.00  0.00     0.015 A 
ENDBRANCH   7  30
TORSDOF 5
ENDMDL
MODEL 8
REMARK VINA RESULT:      -9.0      5.233      9.782
REMARK  5 active torsions:
REMARK  status: ('A' for Active; 'I' for Inactive)
REMARK    1  A    between atoms: C_7  and  C_8 
REMARK    2  A    between atoms: C_16  and  C_17 
REMARK    3  A    between atoms: C_19  and  O_20 
REMARK    4  A    between atoms: C_24  and  C_25 
REMARK       I    between atoms: C_25  and  N_26 
REMARK    5  A    between atoms: N_26  and  C_27 
ROOT
HETATM    1  C   UNL     1     -10.455  -0.786 -32.706  1.00  0.00     0.070 C 
HETATM    2  C   UNL     1      -9.871   0.574 -33.019  1.00  0.00     0.037 A 
HETATM    3  N   UNL     1     -10.800   1.607 -33.106  1.00  0.00    -0.192 N 
HETATM    4  C   UNL     1     -10.489   2.855 -33.490  1.00  0.00     0.726 A 
HETATM    5  N   UNL     1      -9.187   3.171 -33.723  1.00  0.00    -0.083 N 
HETATM    6  N   UNL     1      -9.062   4.411 -34.235  1.00  0.00    -0.135 NA
HETATM    7  C   UNL     1     -10.335   4.846 -34.186  1.00  0.00     0.199 A 
HETATM    8  N   UNL     1     -11.240   3.895 -33.741  1.00  0.00    -0.041 NA
HETATM    9  C   UNL     1      -8.073   2.227 -33.581  1.00  0.00     0.202 A 
HETATM   10  C   UNL     1      -8.549   0.814 -33.242  1.00  0.00     0.062 A 
HETATM   11  H   UNL     1     -11.780   1.370 -32.972  1.00  0.00     0.184 HD
ENDROOT
BRANCH  10  12
HETATM   12  C   UNL     1      -7.532  -0.287 -33.100  1.00  0.00     0.256 C 
HETATM   13  N   UNL     1      -7.258  -0.999 -34.251  1.00  0.00    -0.323 N 
HETATM   14  H   UNL     1      -7.637  -0.684 -35.130  1.00  0.00     0.169 HD
HETATM   15  O   UNL     1      -6.980  -0.465 -32.019  1.00  0.00    -0.267 OA
BRANCH  13  16
HETATM   16  C   UNL     1      -6.419  -2.131 -34.369  1.00  0.00     0.035 A 
HETATM   17  C   UNL     1      -5.039  -2.110 -34.157  1.00  0.00     0.029 A 
HETATM   18  C   UNL     1      -4.286  -3.284 -34.265  1.00  0.00     0.002 A 
HETATM   19  C   UNL     1      -4.905  -4.488 -34.592  1.00  0.00     0.000 A 
HETATM   20  C   UNL     1      -6.279  -4.521 -34.807  1.00  0.00     0.002 A 
HETATM   21  C   UNL     1      -7.033  -3.350 -34.690  1.00  0.00     0.029 A 
ENDBRANCH  13  16
ENDBRANCH  10  12
BRANCH   9  22
HETATM   22  C   UNL     1      -7.048   2.795 -32.602  1.00  0.00    -0.025 A 
HETATM   23  C   UNL     1      -7.362   3.028 -31.251  1.00  0.00     0.046 A 
HETATM   24  C   UNL     1      -6.400   3.564 -30.397  1.00  0.00     0.066 A 
HETATM   25  C   UNL     1      -5.133   3.891 -30.861  1.00  0.00     0.036 A 
HETATM   26  C   UNL     1      -4.814   3.683 -32.201  1.00  0.00     0.003 A 
HETATM   27  C   UNL     1      -5.765   3.142 -33.068  1.00  0.00     0.010 A 
BRANCH  24  28
HETATM   28  O   UNL     1      -6.669   3.792 -29.080  1.00  0.00    -0.361 OA
HETATM   29  H   UNL     1      -6.772   4.747 -28.940  1.00  0.00     0.217 HD
ENDBRANCH  24  28
ENDBRANCH   9  22
BRANCH   7  30
HETATM   30  C   UNL     1     -10.750   6.186 -34.586  1.00  0.00     0.016 A 
HETATM   31  C   UNL     1     -10.304   6.745 -35.792  1.00  0.00     0.039 A 
HETATM   32  C   UNL     1     -10.706   8.028 -36.162  1.00  0.00     0.035 A 
HETATM   33 CL   UNL     1     -10.153   8.703 -37.645  1.00  0.00    -0.084 Cl
HETATM   34  C   UNL     1     -11.552   8.771 -35.340  1.00  0.00     0.024 A 
HETATM   35  C   UNL     1     -12.001   8.226 -34.139  1.00  0.00     0.003 A 
HETATM   36  C   UNL     1     -11.601   6.941 -33.763  1.00  0.00     0.015 A 
ENDBRANCH   7  30
TORSDOF 5
ENDMDL
MODEL 9
REMARK VINA RESULT:      -8.9      2.227      3.019
REMARK  5 active torsions:
REMARK  status: ('A' for Active; 'I' for Inactive)
REMARK    1  A    between atoms: C_7  and  C_8 
REMARK    2  A    between atoms: C_16  and  C_17 
REMARK    3  A    between atoms: C_19  and  O_20 
REMARK    4  A    between atoms: C_24  and  C_25 
REMARK       I    between atoms: C_25  and  N_26 
REMARK    5  A    between atoms: N_26  and  C_27 
ROOT
HETATM    1  C   UNL     1      -5.599   8.134 -28.937  1.00  0.00     0.070 C 
HETATM    2  C   UNL     1      -5.328   6.876 -29.731  1.00  0.00     0.037 A 
HETATM    3  N   UNL     1      -6.463   6.166 -30.112  1.00  0.00    -0.192 N 
HETATM    4  C   UNL     1      -6.421   4.968 -30.717  1.00  0.00     0.726 A 
HETATM    5  N   UNL     1      -5.215   4.445 -31.068  1.00  0.00    -0.083 N 
HETATM    6  N   UNL     1      -5.337   3.185 -31.530  1.00  0.00    -0.135 NA
HETATM    7  C   UNL     1      -6.675   3.037 -31.539  1.00  0.00     0.199 A 
HETATM    8  N   UNL     1      -7.367   4.122 -31.027  1.00  0.00    -0.041 NA
HETATM    9  C   UNL     1      -3.929   5.109 -30.829  1.00  0.00     0.202 A 
HETATM   10  C   UNL     1      -4.086   6.413 -30.045  1.00  0.00     0.062 A 
HETATM   11  H   UNL     1      -7.366   6.530 -29.819  1.00  0.00     0.184 HD
ENDROOT
BRANCH  10  12
HETATM   12  C   UNL     1      -2.856   7.201 -29.681  1.00  0.00     0.256 C 
HETATM   13  N   UNL     1      -2.075   6.661 -28.678  1.00  0.00    -0.323 N 
HETATM   14  H   UNL     1      -2.282   5.737 -28.334  1.00  0.00     0.169 HD
HETATM   15  O   UNL     1      -2.588   8.226 -30.300  1.00  0.00    -0.267 OA
BRANCH  13  16
HETATM   16  C   UNL     1      -0.928   7.241 -28.090  1.00  0.00     0.035 A 
HETATM   17  C   UNL     1       0.225   7.590 -28.797  1.00  0.00     0.029 A 
HETATM   18  C   UNL     1       1.306   8.189 -28.142  1.00  0.00     0.002 A 
HETATM   19  C   UNL     1       1.247   8.440 -26.773  1.00  0.00     0.000 A 
HETATM   20  C   UNL     1       0.104   8.095 -26.058  1.00  0.00     0.002 A 
HETATM   21  C   UNL     1      -0.980   7.505 -26.714  1.00  0.00     0.029 A 
ENDBRANCH  13  16
ENDBRANCH  10  12
BRANCH   9  22
HETATM   22  C   UNL     1      -3.182   5.259 -32.152  1.00  0.00    -0.025 A 
HETATM   23  C   UNL     1      -3.861   5.416 -33.374  1.00  0.00     0.046 A 
HETATM   24  C   UNL     1      -3.138   5.533 -34.560  1.00  0.00     0.066 A 
HETATM   25  C   UNL     1      -1.750   5.480 -34.560  1.00  0.00     0.036 A 
HETATM   26  C   UNL     1      -1.066   5.306 -33.360  1.00  0.00     0.003 A 
HETATM   27  C   UNL     1      -1.776   5.193 -32.163  1.00  0.00     0.010 A 
BRANCH  24  28
HETATM   28  O   UNL     1      -3.765   5.697 -35.759  1.00  0.00    -0.361 OA
HETATM   29  H   UNL     1      -4.500   5.065 -35.819  1.00  0.00     0.217 HD
ENDBRANCH  24  28
ENDBRANCH   9  22
BRANCH   7  30
HETATM   30  C   UNL     1      -7.354   1.836 -32.017  1.00  0.00     0.016 A 
HETATM   31  C   UNL     1      -6.700   0.934 -32.868  1.00  0.00     0.039 A 
HETATM   32  C   UNL     1      -7.361  -0.208 -33.319  1.00  0.00     0.035 A 
HETATM   33 CL   UNL     1      -6.549  -1.309 -34.364  1.00  0.00    -0.084 Cl
HETATM   34  C   UNL     1      -8.675  -0.468 -32.933  1.00  0.00     0.024 A 
HETATM   35  C   UNL     1      -9.334   0.422 -32.087  1.00  0.00     0.003 A 
HETATM   36  C   UNL     1      -8.677   1.569 -31.632  1.00  0.00     0.015 A 
ENDBRANCH   7  30
TORSDOF 5
ENDMDL
MODEL 10
REMARK VINA RESULT:      -8.9      3.971      5.709
REMARK  5 active torsions:
REMARK  status: ('A' for Active; 'I' for Inactive)
REMARK    1  A    between atoms: C_7  and  C_8 
REMARK    2  A    between atoms: C_16  and  C_17 
REMARK    3  A    between atoms: C_19  and  O_20 
REMARK    4  A    between atoms: C_24  and  C_25 
REMARK       I    between atoms: C_25  and  N_26 
REMARK    5  A    between atoms: N_26  and  C_27 
ROOT
HETATM    1  C   UNL     1      -3.377   0.991 -31.762  1.00  0.00     0.070 C 
HETATM    2  C   UNL     1      -4.560   1.830 -32.189  1.00  0.00     0.037 A 
HETATM    3  N   UNL     1      -5.775   1.153 -32.235  1.00  0.00    -0.192 N 
HETATM    4  C   UNL     1      -6.911   1.696 -32.703  1.00  0.00     0.726 A 
HETATM    5  N   UNL     1      -6.916   3.006 -33.071  1.00  0.00    -0.083 N 
HETATM    6  N   UNL     1      -8.083   3.353 -33.647  1.00  0.00    -0.135 NA
HETATM    7  C   UNL     1      -8.797   2.221 -33.499  1.00  0.00     0.199 A 
HETATM    8  N   UNL     1      -8.088   1.176 -32.929  1.00  0.00    -0.041 NA
HETATM    9  C   UNL     1      -5.747   3.888 -32.991  1.00  0.00     0.202 A 
HETATM   10  C   UNL     1      -4.488   3.143 -32.545  1.00  0.00     0.062 A 
HETATM   11  H   UNL     1      -5.771   0.164 -32.000  1.00  0.00     0.184 HD
ENDROOT
BRANCH  10  12
HETATM   12  C   UNL     1      -3.187   3.896 -32.449  1.00  0.00     0.256 C 
HETATM   13  N   UNL     1      -2.900   4.437 -31.212  1.00  0.00    -0.323 N 
HETATM   14  H   UNL     1      -3.484   4.209 -30.424  1.00  0.00     0.169 HD
HETATM   15  O   UNL     1      -2.447   3.951 -33.426  1.00  0.00    -0.267 OA
BRANCH  13  16
HETATM   16  C   UNL     1      -1.798   5.260 -30.881  1.00  0.00     0.035 A 
HETATM   17  C   UNL     1      -0.479   4.807 -30.796  1.00  0.00     0.029 A 
HETATM   18  C   UNL     1       0.557   5.696 -30.491  1.00  0.00     0.002 A 
HETATM   19  C   UNL     1       0.285   7.042 -30.263  1.00  0.00     0.000 A 
HETATM   20  C   UNL     1      -1.025   7.504 -30.344  1.00  0.00     0.002 A 
HETATM   21  C   UNL     1      -2.060   6.619 -30.657  1.00  0.00     0.029 A 
ENDBRANCH  13  16
ENDBRANCH  10  12
BRANCH   9  22
HETATM   22  C   UNL     1      -6.089   5.107 -32.139  1.00  0.00    -0.025 A 
HETATM   23  C   UNL     1      -6.500   4.985 -30.799  1.00  0.00     0.046 A 
HETATM   24  C   UNL     1      -6.818   6.125 -30.064  1.00  0.00     0.066 A 
HETATM   25  C   UNL     1      -6.753   7.389 -30.637  1.00  0.00     0.036 A 
HETATM   26  C   UNL     1      -6.365   7.523 -31.968  1.00  0.00     0.003 A 
HETATM   27  C   UNL     1      -6.037   6.391 -32.716  1.00  0.00     0.010 A 
BRANCH  24  28
HETATM   28  O   UNL     1      -7.210   6.042 -28.761  1.00  0.00    -0.361 OA
HETATM   29  H   UNL     1      -7.641   5.184 -28.615  1.00  0.00     0.217 HD
ENDBRANCH  24  28
ENDBRANCH   9  22
BRANCH   7  30
HETATM   30  C   UNL     1     -10.188   2.080 -33.919  1.00  0.00     0.016 A 
HETATM   31  C   UNL     1     -10.932   0.945 -33.566  1.00  0.00     0.039 A 
HETATM   32  C   UNL     1     -12.259   0.822 -33.975  1.00  0.00     0.035 A 
HETATM   33 CL   UNL     1     -13.163  -0.575 -33.535  1.00  0.00    -0.084 Cl
HETATM   34  C   UNL     1     -12.862   1.820 -34.740  1.00  0.00     0.024 A 
HETATM   35  C   UNL     1     -12.132   2.952 -35.097  1.00  0.00     0.003 A 
HETATM   36  C   UNL     1     -10.801   3.081 -34.689  1.00  0.00     0.015 A 
ENDBRANCH   7  30
TORSDOF 5
ENDMDL
