MODEL 1
REMARK VINA RESULT:      -9.3      0.000      0.000
REMARK  6 active torsions:
REMARK  status: ('A' for Active; 'I' for Inactive)
REMARK    1  A    between atoms: C_3  and  C_4 
REMARK    2  A    between atoms: C_5  and  C_6 
REMARK       I    between atoms: C_6  and  N_7 
REMARK    3  A    between atoms: N_7  and  C_8 
REMARK    4  A    between atoms: C_8  and  C_9 
REMARK    5  A    between atoms: C_11  and  O_12 
REMARK    6  A    between atoms: O_12  and  C_13 
ROOT
HETATM    1  C   UNL     1      -4.594   2.706 -31.025  1.00  0.00     0.161 C 
ENDROOT
BRANCH   1   2
HETATM    2  N   UNL     1      -4.829   1.378 -31.549  1.00  0.00    -0.353 N 
HETATM    3  C   UNL     1      -3.882   0.396 -31.444  1.00  0.00     0.241 C 
HETATM    4  O   UNL     1      -2.767   0.560 -30.970  1.00  0.00    -0.269 OA
HETATM    5  H   UNL     1      -5.713   1.200 -32.006  1.00  0.00     0.163 HD
BRANCH   3   6
HETATM    6  C   UNL     1      -4.360  -0.914 -31.956  1.00  0.00     0.075 C 
HETATM    7  C   UNL     1      -4.465  -1.117 -33.278  1.00  0.00     0.018 C 
BRANCH   7   8
HETATM    8  C   UNL     1      -4.875  -2.401 -33.874  1.00  0.00    -0.014 A 
HETATM    9  C   UNL     1      -4.063  -3.538 -33.711  1.00  0.00     0.013 A 
HETATM   10  C   UNL     1      -4.438  -4.773 -34.249  1.00  0.00     0.001 A 
HETATM   11  C   UNL     1      -5.636  -4.896 -34.948  1.00  0.00     0.002 A 
HETATM   12  C   UNL     1      -6.463  -3.784 -35.105  1.00  0.00     0.024 A 
HETATM   13  C   UNL     1      -6.090  -2.545 -34.570  1.00  0.00     0.044 A 
HETATM   14 CL   UNL     1      -7.169  -1.217 -34.825  1.00  0.00    -0.083 Cl
ENDBRANCH   7   8
ENDBRANCH   3   6
ENDBRANCH   1   2
BRANCH   1  15
HETATM   15  C   UNL     1      -3.903   3.575 -32.044  1.00  0.00    -0.038 A 
HETATM   16  C   UNL     1      -2.556   3.930 -31.874  1.00  0.00     0.046 A 
HETATM   17  C   UNL     1      -1.931   4.800 -32.770  1.00  0.00     0.078 A 
HETATM   18  C   UNL     1      -2.613   5.241 -33.901  1.00  0.00     0.037 A 
HETATM   19  C   UNL     1      -3.938   4.856 -34.108  1.00  0.00     0.003 A 
HETATM   20  C   UNL     1      -4.583   4.035 -33.180  1.00  0.00     0.009 A 
BRANCH  17  21
HETATM   21  O   UNL     1      -0.619   5.185 -32.628  1.00  0.00    -0.292 OA
BRANCH  21  22
HETATM   22  C   UNL     1      -0.188   5.548 -31.354  1.00  0.00     0.169 A 
HETATM   23  N   UNL     1       0.428   4.644 -30.555  1.00  0.00    -0.237 NA
HETATM   24  C   UNL     1       0.784   5.068 -29.322  1.00  0.00     0.119 A 
HETATM   25  C   UNL     1       0.553   6.351 -28.851  1.00  0.00     0.019 A 
HETATM   26  C   UNL     1      -0.091   7.255 -29.689  1.00  0.00     0.006 A 
HETATM   27  C   UNL     1      -0.477   6.848 -30.963  1.00  0.00     0.058 A 
ENDBRANCH  21  22
ENDBRANCH  17  21
ENDBRANCH   1  15
TORSDOF 6
ENDMDL
MODEL 2
REMARK VINA RESULT:      -9.0      1.933      2.379
REMARK  6 active torsions:
REMARK  status: ('A' for Active; 'I' for Inactive)
REMARK    1  A    between atoms: C_3  and  C_4 
REMARK    2  A    between atoms: C_5  and  C_6 
REMARK       I    between atoms: C_6  and  N_7 
REMARK    3  A    between atoms: N_7  and  C_8 
REMARK    4  A    between atoms: C_8  and  C_9 
REMARK    5  A    between atoms: C_11  and  O_12 
REMARK    6  A    between atoms: O_12  and  C_13 
ROOT
HETATM    1  C   UNL     1      -6.204   3.371 -33.605  1.00  0.00     0.161 C 
ENDROOT
BRANCH   1   2
HETATM    2  N   UNL     1      -6.102   1.930 -33.542  1.00  0.00    -0.353 N 
HETATM    3  C   UNL     1      -6.921   1.195 -32.729  1.00  0.00     0.241 C 
HETATM    4  O   UNL     1      -7.744   1.675 -31.963  1.00  0.00    -0.269 OA
HETATM    5  H   UNL     1      -5.396   1.481 -34.111  1.00  0.00     0.163 HD
BRANCH   3   6
HETATM    6  C   UNL     1      -6.718  -0.268 -32.887  1.00  0.00     0.075 C 
HETATM    7  C   UNL     1      -6.073  -0.741 -33.964  1.00  0.00     0.018 C 
BRANCH   7   8
HETATM    8  C   UNL     1      -5.777  -2.170 -34.173  1.00  0.00    -0.014 A 
HETATM    9  C   UNL     1      -6.703  -2.983 -34.851  1.00  0.00     0.013 A 
HETATM   10  C   UNL     1      -6.439  -4.337 -35.079  1.00  0.00     0.001 A 
HETATM   11  C   UNL     1      -5.242  -4.898 -34.645  1.00  0.00     0.002 A 
HETATM   12  C   UNL     1      -4.304  -4.105 -33.986  1.00  0.00     0.024 A 
HETATM   13  C   UNL     1      -4.565  -2.749 -33.754  1.00  0.00     0.044 A 
HETATM   14 CL   UNL     1      -3.352  -1.843 -32.915  1.00  0.00    -0.083 Cl
ENDBRANCH   7   8
ENDBRANCH   3   6
ENDBRANCH   1   2
BRANCH   1  15
HETATM   15  C   UNL     1      -4.843   4.006 -33.724  1.00  0.00    -0.038 A 
HETATM   16  C   UNL     1      -3.862   3.763 -32.750  1.00  0.00     0.046 A 
HETATM   17  C   UNL     1      -2.625   4.410 -32.808  1.00  0.00     0.078 A 
HETATM   18  C   UNL     1      -2.318   5.224 -33.896  1.00  0.00     0.037 A 
HETATM   19  C   UNL     1      -3.267   5.435 -34.897  1.00  0.00     0.003 A 
HETATM   20  C   UNL     1      -4.526   4.836 -34.807  1.00  0.00     0.009 A 
BRANCH  17  21
HETATM   21  O   UNL     1      -1.646   4.212 -31.865  1.00  0.00    -0.292 OA
BRANCH  21  22
HETATM   22  C   UNL     1      -1.243   5.314 -31.114  1.00  0.00     0.169 A 
HETATM   23  N   UNL     1      -2.149   6.030 -30.405  1.00  0.00    -0.237 NA
HETATM   24  C   UNL     1      -1.680   7.103 -29.732  1.00  0.00     0.119 A 
HETATM   25  C   UNL     1      -0.352   7.496 -29.733  1.00  0.00     0.019 A 
HETATM   26  C   UNL     1       0.555   6.749 -30.479  1.00  0.00     0.006 A 
HETATM   27  C   UNL     1       0.104   5.641 -31.190  1.00  0.00     0.058 A 
ENDBRANCH  21  22
ENDBRANCH  17  21
ENDBRANCH   1  15
TORSDOF 6
ENDMDL
MODEL 3
REMARK VINA RESULT:      -8.8      1.202      1.336
REMARK  6 active torsions:
REMARK  status: ('A' for Active; 'I' for Inactive)
REMARK    1  A    between atoms: C_3  and  C_4 
REMARK    2  A    between atoms: C_5  and  C_6 
REMARK       I    between atoms: C_6  and  N_7 
REMARK    3  A    between atoms: N_7  and  C_8 
REMARK    4  A    between atoms: C_8  and  C_9 
REMARK    5  A    between atoms: C_11  and  O_12 
REMARK    6  A    between atoms: O_12  and  C_13 
ROOT
HETATM    1  C   UNL     1      -4.719   3.222 -31.027  1.00  0.00     0.161 C 
ENDROOT
BRANCH   1   2
HETATM    2  N   UNL     1      -4.726   1.810 -31.341  1.00  0.00    -0.353 N 
HETATM    3  C   UNL     1      -5.838   1.041 -31.129  1.00  0.00     0.241 C 
HETATM    4  O   UNL     1      -6.870   1.447 -30.616  1.00  0.00    -0.269 OA
HETATM    5  H   UNL     1      -3.877   1.405 -31.713  1.00  0.00     0.163 HD
BRANCH   3   6
HETATM    6  C   UNL     1      -5.665  -0.355 -31.608  1.00  0.00     0.075 C 
HETATM    7  C   UNL     1      -4.745  -0.631 -32.545  1.00  0.00     0.018 C 
BRANCH   7   8
HETATM    8  C   UNL     1      -4.468  -1.993 -33.035  1.00  0.00    -0.014 A 
HETATM    9  C   UNL     1      -3.521  -2.795 -32.374  1.00  0.00     0.013 A 
HETATM   10  C   UNL     1      -3.253  -4.097 -32.806  1.00  0.00     0.001 A 
HETATM   11  C   UNL     1      -3.936  -4.625 -33.899  1.00  0.00     0.002 A 
HETATM   12  C   UNL     1      -4.892  -3.852 -34.557  1.00  0.00     0.024 A 
HETATM   13  C   UNL     1      -5.161  -2.546 -34.128  1.00  0.00     0.044 A 
HETATM   14 CL   UNL     1      -6.351  -1.654 -35.013  1.00  0.00    -0.083 Cl
ENDBRANCH   7   8
ENDBRANCH   3   6
ENDBRANCH   1   2
BRANCH   1  15
HETATM   15  C   UNL     1      -3.778   3.973 -31.934  1.00  0.00    -0.038 A 
HETATM   16  C   UNL     1      -2.414   4.066 -31.617  1.00  0.00     0.046 A 
HETATM   17  C   UNL     1      -1.550   4.827 -32.407  1.00  0.00     0.078 A 
HETATM   18  C   UNL     1      -2.019   5.416 -33.579  1.00  0.00     0.037 A 
HETATM   19  C   UNL     1      -3.363   5.292 -33.931  1.00  0.00     0.003 A 
HETATM   20  C   UNL     1      -4.241   4.581 -33.108  1.00  0.00     0.009 A 
BRANCH  17  21
HETATM   21  O   UNL     1      -0.213   4.956 -32.122  1.00  0.00    -0.292 OA
BRANCH  21  22
HETATM   22  C   UNL     1       0.133   5.495 -30.884  1.00  0.00     0.169 A 
HETATM   23  N   UNL     1       0.570   4.692 -29.884  1.00  0.00    -0.237 NA
HETATM   24  C   UNL     1       0.850   5.290 -28.706  1.00  0.00     0.119 A 
HETATM   25  C   UNL     1       0.715   6.651 -28.479  1.00  0.00     0.019 A 
HETATM   26  C   UNL     1       0.255   7.450 -29.520  1.00  0.00     0.006 A 
HETATM   27  C   UNL     1      -0.050   6.864 -30.745  1.00  0.00     0.058 A 
ENDBRANCH  21  22
ENDBRANCH  17  21
ENDBRANCH   1  15
TORSDOF 6
ENDMDL
MODEL 4
REMARK VINA RESULT:      -8.8      3.094      6.084
REMARK  6 active torsions:
REMARK  status: ('A' for Active; 'I' for Inactive)
REMARK    1  A    between atoms: C_3  and  C_4 
REMARK    2  A    between atoms: C_5  and  C_6 
REMARK       I    between atoms: C_6  and  N_7 
REMARK    3  A    between atoms: N_7  and  C_8 
REMARK    4  A    between atoms: C_8  and  C_9 
REMARK    5  A    between atoms: C_11  and  O_12 
REMARK    6  A    between atoms: O_12  and  C_13 
ROOT
HETATM    1  C   UNL     1      -3.447   2.488 -32.028  1.00  0.00     0.161 C 
ENDROOT
BRANCH   1   2
HETATM    2  N   UNL     1      -3.731   1.125 -32.421  1.00  0.00    -0.353 N 
HETATM    3  C   UNL     1      -3.156   0.065 -31.775  1.00  0.00     0.241 C 
HETATM    4  O   UNL     1      -2.330   0.168 -30.880  1.00  0.00    -0.269 OA
HETATM    5  H   UNL     1      -4.363   0.979 -33.197  1.00  0.00     0.163 HD
BRANCH   3   6
HETATM    6  C   UNL     1      -3.656  -1.244 -32.269  1.00  0.00     0.075 C 
HETATM    7  C   UNL     1      -4.419  -1.294 -33.371  1.00  0.00     0.018 C 
BRANCH   7   8
HETATM    8  C   UNL     1      -4.910  -2.553 -33.963  1.00  0.00    -0.014 A 
HETATM    9  C   UNL     1      -4.149  -3.728 -33.836  1.00  0.00     0.013 A 
HETATM   10  C   UNL     1      -4.600  -4.939 -34.371  1.00  0.00     0.001 A 
HETATM   11  C   UNL     1      -5.825  -4.997 -35.030  1.00  0.00     0.002 A 
HETATM   12  C   UNL     1      -6.602  -3.847 -35.150  1.00  0.00     0.024 A 
HETATM   13  C   UNL     1      -6.153  -2.632 -34.618  1.00  0.00     0.044 A 
HETATM   14 CL   UNL     1      -7.175  -1.251 -34.828  1.00  0.00    -0.083 Cl
ENDBRANCH   7   8
ENDBRANCH   3   6
ENDBRANCH   1   2
BRANCH   1  15
HETATM   15  C   UNL     1      -4.700   3.193 -31.577  1.00  0.00    -0.038 A 
HETATM   16  C   UNL     1      -5.835   2.454 -31.210  1.00  0.00     0.046 A 
HETATM   17  C   UNL     1      -7.025   3.100 -30.869  1.00  0.00     0.078 A 
HETATM   18  C   UNL     1      -7.063   4.490 -30.788  1.00  0.00     0.037 A 
HETATM   19  C   UNL     1      -5.926   5.236 -31.103  1.00  0.00     0.003 A 
HETATM   20  C   UNL     1      -4.753   4.592 -31.504  1.00  0.00     0.009 A 
BRANCH  17  21
HETATM   21  O   UNL     1      -8.163   2.412 -30.521  1.00  0.00    -0.292 OA
BRANCH  21  22
HETATM   22  C   UNL     1      -8.973   1.943 -31.553  1.00  0.00     0.169 A 
HETATM   23  N   UNL     1      -9.730   2.803 -32.276  1.00  0.00    -0.237 NA
HETATM   24  C   UNL     1     -10.513   2.262 -33.235  1.00  0.00     0.119 A 
HETATM   25  C   UNL     1     -10.575   0.904 -33.507  1.00  0.00     0.019 A 
HETATM   26  C   UNL     1      -9.794   0.043 -32.742  1.00  0.00     0.006 A 
HETATM   27  C   UNL     1      -8.982   0.568 -31.741  1.00  0.00     0.058 A 
ENDBRANCH  21  22
ENDBRANCH  17  21
ENDBRANCH   1  15
TORSDOF 6
ENDMDL
MODEL 5
REMARK VINA RESULT:      -8.6      3.066      8.928
REMARK  6 active torsions:
REMARK  status: ('A' for Active; 'I' for Inactive)
REMARK    1  A    between atoms: C_3  and  C_4 
REMARK    2  A    between atoms: C_5  and  C_6 
REMARK       I    between atoms: C_6  and  N_7 
REMARK    3  A    between atoms: N_7  and  C_8 
REMARK    4  A    between atoms: C_8  and  C_9 
REMARK    5  A    between atoms: C_11  and  O_12 
REMARK    6  A    between atoms: O_12  and  C_13 
ROOT
HETATM    1  C   UNL     1      -6.086   0.720 -30.323  1.00  0.00     0.161 C 
ENDROOT
BRANCH   1   2
HETATM    2  N   UNL     1      -5.361   1.950 -30.556  1.00  0.00    -0.353 N 
HETATM    3  C   UNL     1      -4.059   1.938 -30.977  1.00  0.00     0.241 C 
HETATM    4  O   UNL     1      -3.393   0.924 -31.130  1.00  0.00    -0.269 OA
HETATM    5  H   UNL     1      -5.844   2.823 -30.388  1.00  0.00     0.163 HD
BRANCH   3   6
HETATM    6  C   UNL     1      -3.534   3.300 -31.250  1.00  0.00     0.075 C 
HETATM    7  C   UNL     1      -2.724   3.507 -32.299  1.00  0.00     0.018 C 
BRANCH   7   8
HETATM    8  C   UNL     1      -2.205   4.835 -32.676  1.00  0.00    -0.014 A 
HETATM    9  C   UNL     1      -2.718   5.490 -33.810  1.00  0.00     0.013 A 
HETATM   10  C   UNL     1      -2.257   6.757 -34.178  1.00  0.00     0.001 A 
HETATM   11  C   UNL     1      -1.285   7.397 -33.413  1.00  0.00     0.002 A 
HETATM   12  C   UNL     1      -0.778   6.772 -32.275  1.00  0.00     0.024 A 
HETATM   13  C   UNL     1      -1.235   5.501 -31.904  1.00  0.00     0.044 A 
HETATM   14 CL   UNL     1      -0.539   4.794 -30.487  1.00  0.00    -0.083 Cl
ENDBRANCH   7   8
ENDBRANCH   3   6
ENDBRANCH   1   2
BRANCH   1  15
HETATM   15  C   UNL     1      -6.895   0.332 -31.533  1.00  0.00    -0.038 A 
HETATM   16  C   UNL     1      -6.278  -0.301 -32.623  1.00  0.00     0.046 A 
HETATM   17  C   UNL     1      -7.003  -0.591 -33.781  1.00  0.00     0.078 A 
HETATM   18  C   UNL     1      -8.374  -0.349 -33.822  1.00  0.00     0.037 A 
HETATM   19  C   UNL     1      -9.010   0.236 -32.725  1.00  0.00     0.003 A 
HETATM   20  C   UNL     1      -8.273   0.583 -31.590  1.00  0.00     0.009 A 
BRANCH  17  21
HETATM   21  O   UNL     1      -6.432  -1.194 -34.876  1.00  0.00    -0.292 OA
BRANCH  21  22
HETATM   22  C   UNL     1      -5.872  -2.457 -34.697  1.00  0.00     0.169 A 
HETATM   23  N   UNL     1      -4.563  -2.587 -34.371  1.00  0.00    -0.237 NA
HETATM   24  C   UNL     1      -4.091  -3.847 -34.250  1.00  0.00     0.119 A 
HETATM   25  C   UNL     1      -4.863  -4.983 -34.439  1.00  0.00     0.019 A 
HETATM   26  C   UNL     1      -6.201  -4.819 -34.784  1.00  0.00     0.006 A 
HETATM   27  C   UNL     1      -6.717  -3.534 -34.923  1.00  0.00     0.058 A 
ENDBRANCH  21  22
ENDBRANCH  17  21
ENDBRANCH   1  15
TORSDOF 6
ENDMDL
MODEL 6
REMARK VINA RESULT:      -8.3      2.866      4.364
REMARK  6 active torsions:
REMARK  status: ('A' for Active; 'I' for Inactive)
REMARK    1  A    between atoms: C_3  and  C_4 
REMARK    2  A    between atoms: C_5  and  C_6 
REMARK       I    between atoms: C_6  and  N_7 
REMARK    3  A    between atoms: N_7  and  C_8 
REMARK    4  A    between atoms: C_8  and  C_9 
REMARK    5  A    between atoms: C_11  and  O_12 
REMARK    6  A    between atoms: O_12  and  C_13 
ROOT
HETATM    1  C   UNL     1      -8.812   2.356 -30.782  1.00  0.00     0.161 C 
ENDROOT
BRANCH   1   2
HETATM    2  N   UNL     1      -8.478   1.144 -31.498  1.00  0.00    -0.353 N 
HETATM    3  C   UNL     1      -8.864   0.957 -32.798  1.00  0.00     0.241 C 
HETATM    4  O   UNL     1      -9.554   1.742 -33.432  1.00  0.00    -0.269 OA
HETATM    5  H   UNL     1      -7.958   0.431 -31.003  1.00  0.00     0.163 HD
BRANCH   3   6
HETATM    6  C   UNL     1      -8.337  -0.307 -33.373  1.00  0.00     0.075 C 
HETATM    7  C   UNL     1      -7.012  -0.517 -33.423  1.00  0.00     0.018 C 
BRANCH   7   8
HETATM    8  C   UNL     1      -6.406  -1.764 -33.924  1.00  0.00    -0.014 A 
HETATM    9  C   UNL     1      -7.230  -2.804 -34.389  1.00  0.00     0.013 A 
HETATM   10  C   UNL     1      -6.681  -3.990 -34.888  1.00  0.00     0.001 A 
HETATM   11  C   UNL     1      -5.299  -4.150 -34.941  1.00  0.00     0.002 A 
HETATM   12  C   UNL     1      -4.465  -3.124 -34.501  1.00  0.00     0.024 A 
HETATM   13  C   UNL     1      -5.012  -1.936 -33.999  1.00  0.00     0.044 A 
HETATM   14 CL   UNL     1      -3.902  -0.722 -33.461  1.00  0.00    -0.083 Cl
ENDBRANCH   7   8
ENDBRANCH   3   6
ENDBRANCH   1   2
BRANCH   1  15
HETATM   15  C   UNL     1      -7.591   3.214 -30.573  1.00  0.00    -0.038 A 
HETATM   16  C   UNL     1      -6.376   2.878 -31.191  1.00  0.00     0.046 A 
HETATM   17  C   UNL     1      -5.221   3.620 -30.938  1.00  0.00     0.078 A 
HETATM   18  C   UNL     1      -5.289   4.766 -30.149  1.00  0.00     0.037 A 
HETATM   19  C   UNL     1      -6.502   5.139 -29.568  1.00  0.00     0.003 A 
HETATM   20  C   UNL     1      -7.646   4.362 -29.771  1.00  0.00     0.009 A 
BRANCH  17  21
HETATM   21  O   UNL     1      -4.009   3.314 -31.509  1.00  0.00    -0.292 OA
BRANCH  21  22
HETATM   22  C   UNL     1      -3.613   4.058 -32.618  1.00  0.00     0.169 A 
HETATM   23  N   UNL     1      -4.523   4.449 -33.543  1.00  0.00    -0.237 NA
HETATM   24  C   UNL     1      -4.050   5.137 -34.605  1.00  0.00     0.119 A 
HETATM   25  C   UNL     1      -2.713   5.453 -34.788  1.00  0.00     0.019 A 
HETATM   26  C   UNL     1      -1.799   5.029 -33.828  1.00  0.00     0.006 A 
HETATM   27  C   UNL     1      -2.253   4.312 -32.725  1.00  0.00     0.058 A 
ENDBRANCH  21  22
ENDBRANCH  17  21
ENDBRANCH   1  15
TORSDOF 6
ENDMDL
MODEL 7
REMARK VINA RESULT:      -8.2      2.835      3.693
REMARK  6 active torsions:
REMARK  status: ('A' for Active; 'I' for Inactive)
REMARK    1  A    between atoms: C_3  and  C_4 
REMARK    2  A    between atoms: C_5  and  C_6 
REMARK       I    between atoms: C_6  and  N_7 
REMARK    3  A    between atoms: N_7  and  C_8 
REMARK    4  A    between atoms: C_8  and  C_9 
REMARK    5  A    between atoms: C_11  and  O_12 
REMARK    6  A    between atoms: O_12  and  C_13 
ROOT
HETATM    1  C   UNL     1      -8.404   3.183 -33.611  1.00  0.00     0.161 C 
ENDROOT
BRANCH   1   2
HETATM    2  N   UNL     1      -7.921   1.830 -33.444  1.00  0.00    -0.353 N 
HETATM    3  C   UNL     1      -8.652   0.756 -33.873  1.00  0.00     0.241 C 
HETATM    4  O   UNL     1      -9.769   0.834 -34.365  1.00  0.00    -0.269 OA
HETATM    5  H   UNL     1      -7.027   1.700 -32.988  1.00  0.00     0.163 HD
BRANCH   3   6
HETATM    6  C   UNL     1      -7.934  -0.532 -33.695  1.00  0.00     0.075 C 
HETATM    7  C   UNL     1      -7.058  -0.943 -34.624  1.00  0.00     0.018 C 
BRANCH   7   8
HETATM    8  C   UNL     1      -6.260  -2.177 -34.500  1.00  0.00    -0.014 A 
HETATM    9  C   UNL     1      -6.810  -3.407 -34.901  1.00  0.00     0.013 A 
HETATM   10  C   UNL     1      -6.069  -4.589 -34.812  1.00  0.00     0.001 A 
HETATM   11  C   UNL     1      -4.762  -4.560 -34.333  1.00  0.00     0.002 A 
HETATM   12  C   UNL     1      -4.193  -3.347 -33.948  1.00  0.00     0.024 A 
HETATM   13  C   UNL     1      -4.933  -2.161 -34.033  1.00  0.00     0.044 A 
HETATM   14 CL   UNL     1      -4.153  -0.705 -33.519  1.00  0.00    -0.083 Cl
ENDBRANCH   7   8
ENDBRANCH   3   6
ENDBRANCH   1   2
BRANCH   1  15
HETATM   15  C   UNL     1      -7.286   4.181 -33.452  1.00  0.00    -0.038 A 
HETATM   16  C   UNL     1      -5.983   3.855 -33.862  1.00  0.00     0.046 A 
HETATM   17  C   UNL     1      -4.926   4.741 -33.645  1.00  0.00     0.078 A 
HETATM   18  C   UNL     1      -5.176   6.003 -33.111  1.00  0.00     0.037 A 
HETATM   19  C   UNL     1      -6.475   6.358 -32.744  1.00  0.00     0.003 A 
HETATM   20  C   UNL     1      -7.523   5.449 -32.905  1.00  0.00     0.009 A 
BRANCH  17  21
HETATM   21  O   UNL     1      -3.635   4.452 -34.016  1.00  0.00    -0.292 OA
BRANCH  21  22
HETATM   22  C   UNL     1      -2.620   5.243 -33.484  1.00  0.00     0.169 A 
HETATM   23  N   UNL     1      -2.338   6.454 -34.023  1.00  0.00    -0.237 NA
HETATM   24  C   UNL     1      -1.316   7.141 -33.468  1.00  0.00     0.119 A 
HETATM   25  C   UNL     1      -0.562   6.677 -32.402  1.00  0.00     0.019 A 
HETATM   26  C   UNL     1      -0.866   5.426 -31.875  1.00  0.00     0.006 A 
HETATM   27  C   UNL     1      -1.909   4.689 -32.428  1.00  0.00     0.058 A 
ENDBRANCH  21  22
ENDBRANCH  17  21
ENDBRANCH   1  15
TORSDOF 6
ENDMDL
MODEL 8
REMARK VINA RESULT:      -8.1      5.678      8.996
REMARK  6 active torsions:
REMARK  status: ('A' for Active; 'I' for Inactive)
REMARK    1  A    between atoms: C_3  and  C_4 
REMARK    2  A    between atoms: C_5  and  C_6 
REMARK       I    between atoms: C_6  and  N_7 
REMARK    3  A    between atoms: N_7  and  C_8 
REMARK    4  A    between atoms: C_8  and  C_9 
REMARK    5  A    between atoms: C_11  and  O_12 
REMARK    6  A    between atoms: O_12  and  C_13 
ROOT
HETATM    1  C   UNL     1      -6.750   2.935 -32.944  1.00  0.00     0.161 C 
ENDROOT
BRANCH   1   2
HETATM    2  N   UNL     1      -8.150   2.898 -32.581  1.00  0.00    -0.353 N 
HETATM    3  C   UNL     1      -9.083   2.333 -33.407  1.00  0.00     0.241 C 
HETATM    4  O   UNL     1      -8.839   1.880 -34.516  1.00  0.00    -0.269 OA
HETATM    5  H   UNL     1      -8.421   3.313 -31.699  1.00  0.00     0.163 HD
BRANCH   3   6
HETATM    6  C   UNL     1     -10.441   2.312 -32.805  1.00  0.00     0.075 C 
HETATM    7  C   UNL     1     -11.494   2.746 -33.514  1.00  0.00     0.018 C 
BRANCH   7   8
HETATM    8  C   UNL     1     -12.881   2.707 -33.016  1.00  0.00    -0.014 A 
HETATM    9  C   UNL     1     -13.348   3.728 -32.169  1.00  0.00     0.013 A 
HETATM   10  C   UNL     1     -14.664   3.725 -31.697  1.00  0.00     0.001 A 
HETATM   11  C   UNL     1     -15.539   2.710 -32.074  1.00  0.00     0.002 A 
HETATM   12  C   UNL     1     -15.100   1.699 -32.928  1.00  0.00     0.024 A 
HETATM   13  C   UNL     1     -13.782   1.697 -33.400  1.00  0.00     0.044 A 
HETATM   14 CL   UNL     1     -13.318   0.395 -34.442  1.00  0.00    -0.083 Cl
ENDBRANCH   7   8
ENDBRANCH   3   6
ENDBRANCH   1   2
BRANCH   1  15
HETATM   15  C   UNL     1      -6.038   1.690 -32.481  1.00  0.00    -0.038 A 
HETATM   16  C   UNL     1      -5.395   0.857 -33.410  1.00  0.00     0.046 A 
HETATM   17  C   UNL     1      -4.803  -0.340 -33.000  1.00  0.00     0.078 A 
HETATM   18  C   UNL     1      -4.755  -0.664 -31.647  1.00  0.00     0.037 A 
HETATM   19  C   UNL     1      -5.349   0.180 -30.708  1.00  0.00     0.003 A 
HETATM   20  C   UNL     1      -5.995   1.348 -31.123  1.00  0.00     0.009 A 
BRANCH  17  21
HETATM   21  O   UNL     1      -4.179  -1.191 -33.880  1.00  0.00    -0.292 OA
BRANCH  21  22
HETATM   22  C   UNL     1      -4.800  -2.410 -34.147  1.00  0.00     0.169 A 
HETATM   23  N   UNL     1      -4.105  -3.569 -34.049  1.00  0.00    -0.237 NA
HETATM   24  C   UNL     1      -4.772  -4.703 -34.358  1.00  0.00     0.119 A 
HETATM   25  C   UNL     1      -6.098  -4.733 -34.761  1.00  0.00     0.019 A 
HETATM   26  C   UNL     1      -6.783  -3.527 -34.864  1.00  0.00     0.006 A 
HETATM   27  C   UNL     1      -6.123  -2.340 -34.559  1.00  0.00     0.058 A 
ENDBRANCH  21  22
ENDBRANCH  17  21
ENDBRANCH   1  15
TORSDOF 6
ENDMDL
MODEL 9
REMARK VINA RESULT:      -8.0      2.275      3.173
REMARK  6 active torsions:
REMARK  status: ('A' for Active; 'I' for Inactive)
REMARK    1  A    between atoms: C_3  and  C_4 
REMARK    2  A    between atoms: C_5  and  C_6 
REMARK       I    between atoms: C_6  and  N_7 
REMARK    3  A    between atoms: N_7  and  C_8 
REMARK    4  A    between atoms: C_8  and  C_9 
REMARK    5  A    between atoms: C_11  and  O_12 
REMARK    6  A    between atoms: O_12  and  C_13 
ROOT
HETATM    1  C   UNL     1      -4.877   5.116 -31.505  1.00  0.00     0.161 C 
ENDROOT
BRANCH   1   2
HETATM    2  N   UNL     1      -5.070   3.733 -31.879  1.00  0.00    -0.353 N 
HETATM    3  C   UNL     1      -5.370   2.779 -30.944  1.00  0.00     0.241 C 
HETATM    4  O   UNL     1      -5.440   2.990 -29.741  1.00  0.00    -0.269 OA
HETATM    5  H   UNL     1      -4.965   3.488 -32.854  1.00  0.00     0.163 HD
BRANCH   3   6
HETATM    6  C   UNL     1      -5.623   1.446 -31.549  1.00  0.00     0.075 C 
HETATM    7  C   UNL     1      -4.967   1.083 -32.662  1.00  0.00     0.018 C 
BRANCH   7   8
HETATM    8  C   UNL     1      -5.114  -0.241 -33.296  1.00  0.00    -0.014 A 
HETATM    9  C   UNL     1      -6.200  -0.487 -34.154  1.00  0.00     0.013 A 
HETATM   10  C   UNL     1      -6.352  -1.727 -34.783  1.00  0.00     0.001 A 
HETATM   11  C   UNL     1      -5.416  -2.735 -34.575  1.00  0.00     0.002 A 
HETATM   12  C   UNL     1      -4.323  -2.504 -33.742  1.00  0.00     0.024 A 
HETATM   13  C   UNL     1      -4.168  -1.265 -33.108  1.00  0.00     0.044 A 
HETATM   14 CL   UNL     1      -2.790  -1.071 -32.078  1.00  0.00    -0.083 Cl
ENDBRANCH   7   8
ENDBRANCH   3   6
ENDBRANCH   1   2
BRANCH   1  15
HETATM   15  C   UNL     1      -3.411   5.442 -31.373  1.00  0.00    -0.038 A 
HETATM   16  C   UNL     1      -2.996   6.527 -30.586  1.00  0.00     0.046 A 
HETATM   17  C   UNL     1      -1.648   6.886 -30.524  1.00  0.00     0.078 A 
HETATM   18  C   UNL     1      -0.690   6.102 -31.162  1.00  0.00     0.037 A 
HETATM   19  C   UNL     1      -1.085   4.991 -31.909  1.00  0.00     0.003 A 
HETATM   20  C   UNL     1      -2.440   4.668 -32.022  1.00  0.00     0.009 A 
BRANCH  17  21
HETATM   21  O   UNL     1      -1.203   7.951 -29.779  1.00  0.00    -0.292 OA
BRANCH  21  22
HETATM   22  C   UNL     1      -0.494   7.671 -28.613  1.00  0.00     0.169 A 
HETATM   23  N   UNL     1      -1.059   6.935 -27.626  1.00  0.00    -0.237 NA
HETATM   24  C   UNL     1      -0.316   6.738 -26.515  1.00  0.00     0.119 A 
HETATM   25  C   UNL     1       0.963   7.242 -26.342  1.00  0.00     0.019 A 
HETATM   26  C   UNL     1       1.516   8.003 -27.368  1.00  0.00     0.006 A 
HETATM   27  C   UNL     1       0.774   8.230 -28.523  1.00  0.00     0.058 A 
ENDBRANCH  21  22
ENDBRANCH  17  21
ENDBRANCH   1  15
TORSDOF 6
ENDMDL
MODEL 10
REMARK VINA RESULT:      -8.0      3.003      9.630
REMARK  6 active torsions:
REMARK  status: ('A' for Active; 'I' for Inactive)
REMARK    1  A    between atoms: C_3  and  C_4 
REMARK    2  A    between atoms: C_5  and  C_6 
REMARK       I    between atoms: C_6  and  N_7 
REMARK    3  A    between atoms: N_7  and  C_8 
REMARK    4  A    between atoms: C_8  and  C_9 
REMARK    5  A    between atoms: C_11  and  O_12 
REMARK    6  A    between atoms: O_12  and  C_13 
ROOT
HETATM    1  C   UNL     1      -6.153   3.364 -32.603  1.00  0.00     0.161 C 
ENDROOT
BRANCH   1   2
HETATM    2  N   UNL     1      -5.330   4.214 -31.770  1.00  0.00    -0.353 N 
HETATM    3  C   UNL     1      -4.109   4.659 -32.197  1.00  0.00     0.241 C 
HETATM    4  O   UNL     1      -3.591   4.340 -33.258  1.00  0.00    -0.269 OA
HETATM    5  H   UNL     1      -5.682   4.462 -30.855  1.00  0.00     0.163 HD
BRANCH   3   6
HETATM    6  C   UNL     1      -3.474   5.595 -31.234  1.00  0.00     0.075 C 
HETATM    7  C   UNL     1      -2.137   5.629 -31.117  1.00  0.00     0.018 C 
BRANCH   7   8
HETATM    8  C   UNL     1      -1.423   6.564 -30.230  1.00  0.00    -0.014 A 
HETATM    9  C   UNL     1      -2.129   7.598 -29.590  1.00  0.00     0.013 A 
HETATM   10  C   UNL     1      -1.479   8.487 -28.728  1.00  0.00     0.001 A 
HETATM   11  C   UNL     1      -0.116   8.351 -28.483  1.00  0.00     0.002 A 
HETATM   12  C   UNL     1       0.598   7.322 -29.094  1.00  0.00     0.024 A 
HETATM   13  C   UNL     1      -0.048   6.431 -29.960  1.00  0.00     0.044 A 
HETATM   14 CL   UNL     1       0.919   5.194 -30.687  1.00  0.00    -0.083 Cl
ENDBRANCH   7   8
ENDBRANCH   3   6
ENDBRANCH   1   2
BRANCH   1  15
HETATM   15  C   UNL     1      -5.930   1.909 -32.277  1.00  0.00    -0.038 A 
HETATM   16  C   UNL     1      -5.175   1.099 -33.139  1.00  0.00     0.046 A 
HETATM   17  C   UNL     1      -5.032  -0.267 -32.888  1.00  0.00     0.078 A 
HETATM   18  C   UNL     1      -5.552  -0.817 -31.719  1.00  0.00     0.037 A 
HETATM   19  C   UNL     1      -6.264  -0.012 -30.829  1.00  0.00     0.003 A 
HETATM   20  C   UNL     1      -6.460   1.343 -31.110  1.00  0.00     0.009 A 
BRANCH  17  21
HETATM   21  O   UNL     1      -4.315  -1.097 -33.717  1.00  0.00    -0.292 OA
BRANCH  21  22
HETATM   22  C   UNL     1      -4.897  -2.312 -34.071  1.00  0.00     0.169 A 
HETATM   23  N   UNL     1      -4.185  -3.463 -33.990  1.00  0.00    -0.237 NA
HETATM   24  C   UNL     1      -4.813  -4.592 -34.385  1.00  0.00     0.119 A 
HETATM   25  C   UNL     1      -6.116  -4.627 -34.857  1.00  0.00     0.019 A 
HETATM   26  C   UNL     1      -6.819  -3.429 -34.938  1.00  0.00     0.006 A 
HETATM   27  C   UNL     1      -6.199  -2.247 -34.546  1.00  0.00     0.058 A 
ENDBRANCH  21  22
ENDBRANCH  17  21
ENDBRANCH   1  15
TORSDOF 6
ENDMDL
