MODEL 1
REMARK VINA RESULT:      -7.8      0.000      0.000
REMARK  6 active torsions:
REMARK  status: ('A' for Active; 'I' for Inactive)
REMARK    1  A    between atoms: N_2  and  C_4 
REMARK    2  A    between atoms: N_2  and  C_11 
REMARK    3  A    between atoms: C_4  and  C_5 
REMARK    4  A    between atoms: C_5  and  O_6 
REMARK    5  A    between atoms: C_11  and  C_12 
REMARK    6  A    between atoms: C_13  and  C_14 
ROOT
HETATM    1  C   UNL     1      -4.928   1.370 -31.216  1.00  0.00     0.016 A 
HETATM    2  C   UNL     1      -5.702   0.176 -31.410  1.00  0.00     0.102 A 
HETATM    3  N   UNL     1      -6.516  -0.037 -30.369  1.00  0.00    -0.174 NA
HETATM    4  N   UNL     1      -6.308   0.987 -29.540  1.00  0.00    -0.288 N 
HETATM    5  H   UNL     1      -6.845   1.021 -28.678  1.00  0.00     0.188 HD
HETATM    6  C   UNL     1      -5.372   1.867 -30.003  1.00  0.00     0.120 A 
ENDROOT
BRANCH   1   7
HETATM    7  C   UNL     1      -3.923   1.927 -32.164  1.00  0.00     0.277 C 
BRANCH   7   8
HETATM    8  N   UNL     1      -4.302   3.238 -32.825  1.00  0.00    -0.068 N 
HETATM    9  C   UNL     1      -5.789   3.314 -33.088  1.00  0.00     0.270 C 
HETATM   10  H   UNL     1      -3.827   3.247 -33.732  1.00  0.00     0.279 HD
BRANCH   8  11
HETATM   11  C   UNL     1      -3.789   4.423 -32.009  1.00  0.00     0.272 C 
BRANCH  11  12
HETATM   12  C   UNL     1      -2.464   5.017 -32.540  1.00  0.00     0.082 C 
HETATM   13  C   UNL     1      -2.280   4.715 -34.030  1.00  0.00     0.039 C 
HETATM   14  C   UNL     1      -1.243   5.732 -34.489  1.00  0.00     0.003 C 
HETATM   15  C   UNL     1      -1.478   6.969 -33.628  1.00  0.00     0.003 C 
HETATM   16  C   UNL     1      -2.401   6.546 -32.481  1.00  0.00     0.039 C 
BRANCH  12  17
HETATM   17  O   UNL     1      -1.374   4.459 -31.803  1.00  0.00    -0.388 OA
HETATM   18  H   UNL     1      -0.823   5.181 -31.441  1.00  0.00     0.210 HD
ENDBRANCH  12  17
ENDBRANCH  11  12
ENDBRANCH   8  11
ENDBRANCH   7   8
ENDBRANCH   1   7
BRANCH   2  19
HETATM   19  C   UNL     1      -5.695  -0.753 -32.533  1.00  0.00     0.072 A 
HETATM   20  C   UNL     1      -6.783  -0.846 -33.403  1.00  0.00     0.132 A 
HETATM   21  F   UNL     1      -7.880  -0.099 -33.199  1.00  0.00    -0.205 F 
HETATM   22  C   UNL     1      -6.774  -1.722 -34.490  1.00  0.00     0.043 A 
HETATM   23  C   UNL     1      -5.658  -2.524 -34.723  1.00  0.00     0.006 A 
HETATM   24  C   UNL     1      -4.563  -2.448 -33.864  1.00  0.00     0.043 A 
HETATM   25  C   UNL     1      -4.588  -1.569 -32.780  1.00  0.00     0.132 A 
HETATM   26  F   UNL     1      -3.533  -1.560 -31.951  1.00  0.00    -0.205 F 
ENDBRANCH   2  19
TORSDOF 6
ENDMDL
MODEL 2
REMARK VINA RESULT:      -7.7      0.078      1.724
REMARK  6 active torsions:
REMARK  status: ('A' for Active; 'I' for Inactive)
REMARK    1  A    between atoms: N_2  and  C_4 
REMARK    2  A    between atoms: N_2  and  C_11 
REMARK    3  A    between atoms: C_4  and  C_5 
REMARK    4  A    between atoms: C_5  and  O_6 
REMARK    5  A    between atoms: C_11  and  C_12 
REMARK    6  A    between atoms: C_13  and  C_14 
ROOT
HETATM    1  C   UNL     1      -4.960   1.387 -31.262  1.00  0.00     0.016 A 
HETATM    2  C   UNL     1      -5.715   0.184 -31.468  1.00  0.00     0.102 A 
HETATM    3  N   UNL     1      -6.519  -0.058 -30.425  1.00  0.00    -0.174 NA
HETATM    4  N   UNL     1      -6.321   0.957 -29.583  1.00  0.00    -0.288 N 
HETATM    5  H   UNL     1      -6.852   0.970 -28.715  1.00  0.00     0.188 HD
HETATM    6  C   UNL     1      -5.403   1.859 -30.039  1.00  0.00     0.120 A 
ENDROOT
BRANCH   1   7
HETATM    7  C   UNL     1      -3.972   1.974 -32.209  1.00  0.00     0.277 C 
BRANCH   7   8
HETATM    8  N   UNL     1      -4.366   3.301 -32.830  1.00  0.00    -0.068 N 
HETATM    9  C   UNL     1      -5.862   3.393 -33.028  1.00  0.00     0.270 C 
HETATM   10  H   UNL     1      -3.930   3.322 -33.757  1.00  0.00     0.279 HD
BRANCH   8  11
HETATM   11  C   UNL     1      -3.807   4.466 -32.016  1.00  0.00     0.272 C 
BRANCH  11  12
HETATM   12  C   UNL     1      -2.473   5.023 -32.562  1.00  0.00     0.082 C 
HETATM   13  C   UNL     1      -2.318   4.723 -34.055  1.00  0.00     0.039 C 
HETATM   14  C   UNL     1      -1.257   5.712 -34.523  1.00  0.00     0.003 C 
HETATM   15  C   UNL     1      -1.445   6.952 -33.654  1.00  0.00     0.003 C 
HETATM   16  C   UNL     1      -2.365   6.550 -32.497  1.00  0.00     0.039 C 
BRANCH  12  17
HETATM   17  O   UNL     1      -1.390   4.431 -31.841  1.00  0.00    -0.388 OA
HETATM   18  H   UNL     1      -0.921   3.800 -32.421  1.00  0.00     0.210 HD
ENDBRANCH  12  17
ENDBRANCH  11  12
ENDBRANCH   8  11
ENDBRANCH   7   8
ENDBRANCH   1   7
BRANCH   2  19
HETATM   19  C   UNL     1      -5.702  -0.729 -32.605  1.00  0.00     0.072 A 
HETATM   20  C   UNL     1      -4.614  -1.569 -32.847  1.00  0.00     0.132 A 
HETATM   21  F   UNL     1      -3.535  -1.527 -32.050  1.00  0.00    -0.205 F 
HETATM   22  C   UNL     1      -4.605  -2.456 -33.925  1.00  0.00     0.043 A 
HETATM   23  C   UNL     1      -5.702  -2.515 -34.782  1.00  0.00     0.006 A 
HETATM   24  C   UNL     1      -6.797  -1.681 -34.560  1.00  0.00     0.043 A 
HETATM   25  C   UNL     1      -6.790  -0.798 -33.479  1.00  0.00     0.132 A 
HETATM   26  F   UNL     1      -7.844   0.019 -33.327  1.00  0.00    -0.205 F 
ENDBRANCH   2  19
TORSDOF 6
ENDMDL
MODEL 3
REMARK VINA RESULT:      -7.7      3.386      5.555
REMARK  6 active torsions:
REMARK  status: ('A' for Active; 'I' for Inactive)
REMARK    1  A    between atoms: N_2  and  C_4 
REMARK    2  A    between atoms: N_2  and  C_11 
REMARK    3  A    between atoms: C_4  and  C_5 
REMARK    4  A    between atoms: C_5  and  O_6 
REMARK    5  A    between atoms: C_11  and  C_12 
REMARK    6  A    between atoms: C_13  and  C_14 
ROOT
HETATM    1  C   UNL     1      -5.469   2.086 -31.000  1.00  0.00     0.016 A 
HETATM    2  C   UNL     1      -5.106   1.622 -32.309  1.00  0.00     0.102 A 
HETATM    3  N   UNL     1      -3.943   2.160 -32.699  1.00  0.00    -0.174 NA
HETATM    4  N   UNL     1      -3.545   2.922 -31.679  1.00  0.00    -0.288 N 
HETATM    5  H   UNL     1      -2.664   3.420 -31.770  1.00  0.00     0.188 HD
HETATM    6  C   UNL     1      -4.418   2.907 -30.629  1.00  0.00     0.120 A 
ENDROOT
BRANCH   1   7
HETATM    7  C   UNL     1      -6.690   1.699 -30.240  1.00  0.00     0.277 C 
BRANCH   7   8
HETATM    8  N   UNL     1      -7.824   2.705 -30.265  1.00  0.00    -0.068 N 
HETATM    9  C   UNL     1      -7.479   3.943 -29.469  1.00  0.00     0.270 C 
HETATM   10  H   UNL     1      -8.617   2.252 -29.802  1.00  0.00     0.279 HD
BRANCH   8  11
HETATM   11  C   UNL     1      -8.232   3.025 -31.702  1.00  0.00     0.272 C 
BRANCH  11  12
HETATM   12  C   UNL     1      -9.499   2.274 -32.170  1.00  0.00     0.082 C 
HETATM   13  C   UNL     1      -9.757   2.502 -33.662  1.00  0.00     0.039 C 
HETATM   14  C   UNL     1     -10.691   1.363 -34.055  1.00  0.00     0.003 C 
HETATM   15  C   UNL     1     -10.298   0.189 -33.162  1.00  0.00     0.003 C 
HETATM   16  C   UNL     1      -9.394   0.750 -32.060  1.00  0.00     0.039 C 
BRANCH  12  17
HETATM   17  O   UNL     1     -10.622   2.737 -31.416  1.00  0.00    -0.388 OA
HETATM   18  H   UNL     1     -10.373   3.545 -30.926  1.00  0.00     0.210 HD
ENDBRANCH  12  17
ENDBRANCH  11  12
ENDBRANCH   8  11
ENDBRANCH   7   8
ENDBRANCH   1   7
BRANCH   2  19
HETATM   19  C   UNL     1      -5.812   0.698 -33.188  1.00  0.00     0.072 A 
HETATM   20  C   UNL     1      -5.886  -0.665 -32.896  1.00  0.00     0.132 A 
HETATM   21  F   UNL     1      -5.272  -1.161 -31.811  1.00  0.00    -0.205 F 
HETATM   22  C   UNL     1      -6.576  -1.550 -33.726  1.00  0.00     0.043 A 
HETATM   23  C   UNL     1      -7.213  -1.073 -34.871  1.00  0.00     0.006 A 
HETATM   24  C   UNL     1      -7.147   0.284 -35.181  1.00  0.00     0.043 A 
HETATM   25  C   UNL     1      -6.451   1.157 -34.343  1.00  0.00     0.132 A 
HETATM   26  F   UNL     1      -6.374   2.447 -34.701  1.00  0.00    -0.205 F 
ENDBRANCH   2  19
TORSDOF 6
ENDMDL
MODEL 4
REMARK VINA RESULT:      -7.6      3.647      5.452
REMARK  6 active torsions:
REMARK  status: ('A' for Active; 'I' for Inactive)
REMARK    1  A    between atoms: N_2  and  C_4 
REMARK    2  A    between atoms: N_2  and  C_11 
REMARK    3  A    between atoms: C_4  and  C_5 
REMARK    4  A    between atoms: C_5  and  O_6 
REMARK    5  A    between atoms: C_11  and  C_12 
REMARK    6  A    between atoms: C_13  and  C_14 
ROOT
HETATM    1  C   UNL     1      -5.028  -0.101 -32.084  1.00  0.00     0.016 A 
HETATM    2  C   UNL     1      -4.196  -0.922 -32.918  1.00  0.00     0.102 A 
HETATM    3  N   UNL     1      -3.032  -0.313 -33.175  1.00  0.00    -0.174 NA
HETATM    4  N   UNL     1      -3.084   0.845 -32.515  1.00  0.00    -0.288 N 
HETATM    5  H   UNL     1      -2.280   1.464 -32.572  1.00  0.00     0.188 HD
HETATM    6  C   UNL     1      -4.255   1.020 -31.835  1.00  0.00     0.120 A 
ENDROOT
BRANCH   1   7
HETATM    7  C   UNL     1      -6.388  -0.451 -31.587  1.00  0.00     0.277 C 
BRANCH   7   8
HETATM    8  N   UNL     1      -7.461   0.595 -31.824  1.00  0.00    -0.068 N 
HETATM    9  C   UNL     1      -7.355   1.728 -30.829  1.00  0.00     0.270 C 
HETATM   10  H   UNL     1      -8.357   0.125 -31.663  1.00  0.00     0.279 HD
BRANCH   8  11
HETATM   11  C   UNL     1      -7.433   1.080 -33.272  1.00  0.00     0.272 C 
BRANCH  11  12
HETATM   12  C   UNL     1      -8.819   1.072 -33.957  1.00  0.00     0.082 C 
HETATM   13  C   UNL     1      -9.843   0.295 -33.125  1.00  0.00     0.039 C 
HETATM   14  C   UNL     1     -11.190   0.778 -33.651  1.00  0.00     0.003 C 
HETATM   15  C   UNL     1     -10.968   2.229 -34.065  1.00  0.00     0.003 C 
HETATM   16  C   UNL     1      -9.453   2.460 -34.090  1.00  0.00     0.039 C 
BRANCH  12  17
HETATM   17  O   UNL     1      -8.698   0.470 -35.248  1.00  0.00    -0.388 OA
HETATM   18  H   UNL     1      -9.351   0.870 -35.856  1.00  0.00     0.210 HD
ENDBRANCH  12  17
ENDBRANCH  11  12
ENDBRANCH   8  11
ENDBRANCH   7   8
ENDBRANCH   1   7
BRANCH   2  19
HETATM   19  C   UNL     1      -4.465  -2.245 -33.469  1.00  0.00     0.072 A 
HETATM   20  C   UNL     1      -5.418  -2.432 -34.472  1.00  0.00     0.132 A 
HETATM   21  F   UNL     1      -6.136  -1.393 -34.928  1.00  0.00    -0.205 F 
HETATM   22  C   UNL     1      -5.666  -3.694 -35.014  1.00  0.00     0.043 A 
HETATM   23  C   UNL     1      -4.950  -4.798 -34.554  1.00  0.00     0.006 A 
HETATM   24  C   UNL     1      -3.997  -4.632 -33.550  1.00  0.00     0.043 A 
HETATM   25  C   UNL     1      -3.762  -3.364 -33.016  1.00  0.00     0.132 A 
HETATM   26  F   UNL     1      -2.869  -3.255 -32.021  1.00  0.00    -0.205 F 
ENDBRANCH   2  19
TORSDOF 6
ENDMDL
MODEL 5
REMARK VINA RESULT:      -7.6      3.798      6.022
REMARK  6 active torsions:
REMARK  status: ('A' for Active; 'I' for Inactive)
REMARK    1  A    between atoms: N_2  and  C_4 
REMARK    2  A    between atoms: N_2  and  C_11 
REMARK    3  A    between atoms: C_4  and  C_5 
REMARK    4  A    between atoms: C_5  and  O_6 
REMARK    5  A    between atoms: C_11  and  C_12 
REMARK    6  A    between atoms: C_13  and  C_14 
ROOT
HETATM    1  C   UNL     1      -6.810   1.641 -31.915  1.00  0.00     0.016 A 
HETATM    2  C   UNL     1      -6.410   0.270 -31.773  1.00  0.00     0.102 A 
HETATM    3  N   UNL     1      -6.333  -0.072 -30.481  1.00  0.00    -0.174 NA
HETATM    4  N   UNL     1      -6.695   1.018 -29.803  1.00  0.00    -0.288 N 
HETATM    5  H   UNL     1      -6.714   0.966 -28.788  1.00  0.00     0.188 HD
HETATM    6  C   UNL     1      -7.002   2.074 -30.613  1.00  0.00     0.120 A 
ENDROOT
BRANCH   1   7
HETATM    7  C   UNL     1      -7.007   2.369 -33.200  1.00  0.00     0.277 C 
BRANCH   7   8
HETATM    8  N   UNL     1      -8.302   3.150 -33.319  1.00  0.00    -0.068 N 
HETATM    9  C   UNL     1      -8.056   4.549 -33.834  1.00  0.00     0.270 C 
HETATM   10  H   UNL     1      -8.674   3.231 -32.368  1.00  0.00     0.279 HD
BRANCH   8  11
HETATM   11  C   UNL     1      -9.319   2.384 -34.162  1.00  0.00     0.272 C 
BRANCH  11  12
HETATM   12  C   UNL     1     -10.676   2.166 -33.454  1.00  0.00     0.082 C 
HETATM   13  C   UNL     1     -11.742   3.121 -33.995  1.00  0.00     0.039 C 
HETATM   14  C   UNL     1     -13.061   2.479 -33.580  1.00  0.00     0.003 C 
HETATM   15  C   UNL     1     -12.804   0.975 -33.601  1.00  0.00     0.003 C 
HETATM   16  C   UNL     1     -11.288   0.783 -33.696  1.00  0.00     0.039 C 
BRANCH  12  17
HETATM   17  O   UNL     1     -10.510   2.382 -32.050  1.00  0.00    -0.388 OA
HETATM   18  H   UNL     1      -9.688   1.947 -31.750  1.00  0.00     0.210 HD
ENDBRANCH  12  17
ENDBRANCH  11  12
ENDBRANCH   8  11
ENDBRANCH   7   8
ENDBRANCH   1   7
BRANCH   2  19
HETATM   19  C   UNL     1      -6.104  -0.711 -32.807  1.00  0.00     0.072 A 
HETATM   20  C   UNL     1      -4.795  -1.142 -33.033  1.00  0.00     0.132 A 
HETATM   21  F   UNL     1      -3.780  -0.629 -32.320  1.00  0.00    -0.205 F 
HETATM   22  C   UNL     1      -4.501  -2.094 -34.010  1.00  0.00     0.043 A 
HETATM   23  C   UNL     1      -5.529  -2.636 -34.780  1.00  0.00     0.006 A 
HETATM   24  C   UNL     1      -6.841  -2.217 -34.572  1.00  0.00     0.043 A 
HETATM   25  C   UNL     1      -7.120  -1.262 -33.593  1.00  0.00     0.132 A 
HETATM   26  F   UNL     1      -8.390  -0.852 -33.455  1.00  0.00    -0.205 F 
ENDBRANCH   2  19
TORSDOF 6
ENDMDL
MODEL 6
REMARK VINA RESULT:      -7.5      3.425      5.414
REMARK  6 active torsions:
REMARK  status: ('A' for Active; 'I' for Inactive)
REMARK    1  A    between atoms: N_2  and  C_4 
REMARK    2  A    between atoms: N_2  and  C_11 
REMARK    3  A    between atoms: C_4  and  C_5 
REMARK    4  A    between atoms: C_5  and  O_6 
REMARK    5  A    between atoms: C_11  and  C_12 
REMARK    6  A    between atoms: C_13  and  C_14 
ROOT
HETATM    1  C   UNL     1      -5.554   2.317 -31.001  1.00  0.00     0.016 A 
HETATM    2  C   UNL     1      -5.140   1.713 -32.236  1.00  0.00     0.102 A 
HETATM    3  N   UNL     1      -3.893   2.085 -32.552  1.00  0.00    -0.174 NA
HETATM    4  N   UNL     1      -3.496   2.877 -31.555  1.00  0.00    -0.288 N 
HETATM    5  H   UNL     1      -2.557   3.266 -31.598  1.00  0.00     0.188 HD
HETATM    6  C   UNL     1      -4.449   3.043 -30.592  1.00  0.00     0.120 A 
ENDROOT
BRANCH   1   7
HETATM    7  C   UNL     1      -6.873   2.129 -30.333  1.00  0.00     0.277 C 
BRANCH   7   8
HETATM    8  N   UNL     1      -7.888   3.232 -30.564  1.00  0.00    -0.068 N 
HETATM    9  C   UNL     1      -7.371   4.567 -30.080  1.00  0.00     0.270 C 
HETATM   10  H   UNL     1      -8.704   2.991 -29.994  1.00  0.00     0.279 HD
BRANCH   8  11
HETATM   11  C   UNL     1      -8.325   3.266 -32.028  1.00  0.00     0.272 C 
BRANCH  11  12
HETATM   12  C   UNL     1      -9.579   2.411 -32.322  1.00  0.00     0.082 C 
HETATM   13  C   UNL     1      -9.954   2.474 -33.805  1.00  0.00     0.039 C 
HETATM   14  C   UNL     1     -10.849   1.258 -34.012  1.00  0.00     0.003 C 
HETATM   15  C   UNL     1     -10.330   0.201 -33.042  1.00  0.00     0.003 C 
HETATM   16  C   UNL     1      -9.382   0.913 -32.073  1.00  0.00     0.039 C 
BRANCH  12  17
HETATM   17  O   UNL     1     -10.669   2.894 -31.533  1.00  0.00    -0.388 OA
HETATM   18  H   UNL     1     -10.539   2.627 -30.603  1.00  0.00     0.210 HD
ENDBRANCH  12  17
ENDBRANCH  11  12
ENDBRANCH   8  11
ENDBRANCH   7   8
ENDBRANCH   1   7
BRANCH   2  19
HETATM   19  C   UNL     1      -5.874   0.806 -33.110  1.00  0.00     0.072 A 
HETATM   20  C   UNL     1      -6.474   1.261 -34.286  1.00  0.00     0.132 A 
HETATM   21  F   UNL     1      -6.415   2.560 -34.618  1.00  0.00    -0.205 F 
HETATM   22  C   UNL     1      -7.163   0.393 -35.134  1.00  0.00     0.043 A 
HETATM   23  C   UNL     1      -7.258  -0.960 -34.811  1.00  0.00     0.006 A 
HETATM   24  C   UNL     1      -6.669  -1.432 -33.640  1.00  0.00     0.043 A 
HETATM   25  C   UNL     1      -5.985  -0.552 -32.800  1.00  0.00     0.132 A 
HETATM   26  F   UNL     1      -5.472  -1.038 -31.660  1.00  0.00    -0.205 F 
ENDBRANCH   2  19
TORSDOF 6
ENDMDL
MODEL 7
REMARK VINA RESULT:      -7.2      1.664      1.867
REMARK  6 active torsions:
REMARK  status: ('A' for Active; 'I' for Inactive)
REMARK    1  A    between atoms: N_2  and  C_4 
REMARK    2  A    between atoms: N_2  and  C_11 
REMARK    3  A    between atoms: C_4  and  C_5 
REMARK    4  A    between atoms: C_5  and  O_6 
REMARK    5  A    between atoms: C_11  and  C_12 
REMARK    6  A    between atoms: C_13  and  C_14 
ROOT
HETATM    1  C   UNL     1      -6.399   2.561 -31.028  1.00  0.00     0.016 A 
HETATM    2  C   UNL     1      -7.360   1.725 -31.689  1.00  0.00     0.102 A 
HETATM    3  N   UNL     1      -8.566   1.847 -31.121  1.00  0.00    -0.174 NA
HETATM    4  N   UNL     1      -8.411   2.745 -30.148  1.00  0.00    -0.288 N 
HETATM    5  H   UNL     1      -9.225   2.992 -29.590  1.00  0.00     0.188 HD
HETATM    6  C   UNL     1      -7.132   3.215 -30.052  1.00  0.00     0.120 A 
ENDROOT
BRANCH   1   7
HETATM    7  C   UNL     1      -4.958   2.693 -31.385  1.00  0.00     0.277 C 
BRANCH   7   8
HETATM    8  N   UNL     1      -4.615   3.849 -32.305  1.00  0.00    -0.068 N 
HETATM    9  C   UNL     1      -5.860   4.500 -32.862  1.00  0.00     0.270 C 
HETATM   10  H   UNL     1      -4.100   3.443 -33.092  1.00  0.00     0.279 HD
BRANCH   8  11
HETATM   11  C   UNL     1      -3.695   4.845 -31.601  1.00  0.00     0.272 C 
BRANCH  11  12
HETATM   12  C   UNL     1      -2.371   5.109 -32.354  1.00  0.00     0.082 C 
HETATM   13  C   UNL     1      -2.454   4.626 -33.804  1.00  0.00     0.039 C 
HETATM   14  C   UNL     1      -1.322   5.366 -34.507  1.00  0.00     0.003 C 
HETATM   15  C   UNL     1      -1.206   6.707 -33.788  1.00  0.00     0.003 C 
HETATM   16  C   UNL     1      -2.023   6.593 -32.497  1.00  0.00     0.039 C 
BRANCH  12  17
HETATM   17  O   UNL     1      -1.309   4.425 -31.684  1.00  0.00    -0.388 OA
HETATM   18  H   UNL     1      -0.596   4.228 -32.322  1.00  0.00     0.210 HD
ENDBRANCH  12  17
ENDBRANCH  11  12
ENDBRANCH   8  11
ENDBRANCH   7   8
ENDBRANCH   1   7
BRANCH   2  19
HETATM   19  C   UNL     1      -7.175   0.831 -32.825  1.00  0.00     0.072 A 
HETATM   20  C   UNL     1      -7.574   1.201 -34.111  1.00  0.00     0.132 A 
HETATM   21  F   UNL     1      -8.172   2.384 -34.321  1.00  0.00    -0.205 F 
HETATM   22  C   UNL     1      -7.384   0.354 -35.204  1.00  0.00     0.043 A 
HETATM   23  C   UNL     1      -6.780  -0.889 -35.020  1.00  0.00     0.006 A 
HETATM   24  C   UNL     1      -6.378  -1.278 -33.744  1.00  0.00     0.043 A 
HETATM   25  C   UNL     1      -6.578  -0.422 -32.660  1.00  0.00     0.132 A 
HETATM   26  F   UNL     1      -6.218  -0.853 -31.441  1.00  0.00    -0.205 F 
ENDBRANCH   2  19
TORSDOF 6
ENDMDL
MODEL 8
REMARK VINA RESULT:      -7.2      2.872      6.676
REMARK  6 active torsions:
REMARK  status: ('A' for Active; 'I' for Inactive)
REMARK    1  A    between atoms: N_2  and  C_4 
REMARK    2  A    between atoms: N_2  and  C_11 
REMARK    3  A    between atoms: C_4  and  C_5 
REMARK    4  A    between atoms: C_5  and  O_6 
REMARK    5  A    between atoms: C_11  and  C_12 
REMARK    6  A    between atoms: C_13  and  C_14 
ROOT
HETATM    1  C   UNL     1      -4.942   3.289 -31.144  1.00  0.00     0.016 A 
HETATM    2  C   UNL     1      -4.242   4.507 -31.441  1.00  0.00     0.102 A 
HETATM    3  N   UNL     1      -4.430   5.412 -30.473  1.00  0.00    -0.174 NA
HETATM    4  N   UNL     1      -5.198   4.806 -29.566  1.00  0.00    -0.288 N 
HETATM    5  H   UNL     1      -5.454   5.328 -28.731  1.00  0.00     0.188 HD
HETATM    6  C   UNL     1      -5.527   3.527 -29.912  1.00  0.00     0.120 A 
ENDROOT
BRANCH   1   7
HETATM    7  C   UNL     1      -4.960   2.060 -31.986  1.00  0.00     0.277 C 
BRANCH   7   8
HETATM    8  N   UNL     1      -6.308   1.686 -32.571  1.00  0.00    -0.068 N 
HETATM    9  C   UNL     1      -7.185   2.903 -32.757  1.00  0.00     0.270 C 
HETATM   10  H   UNL     1      -6.761   1.081 -31.880  1.00  0.00     0.279 HD
BRANCH   8  11
HETATM   11  C   UNL     1      -6.134   0.885 -33.861  1.00  0.00     0.272 C 
BRANCH  11  12
HETATM   12  C   UNL     1      -6.099  -0.645 -33.642  1.00  0.00     0.082 C 
HETATM   13  C   UNL     1      -6.920  -1.374 -34.709  1.00  0.00     0.039 C 
HETATM   14  C   UNL     1      -6.405  -2.808 -34.657  1.00  0.00     0.003 C 
HETATM   15  C   UNL     1      -4.933  -2.697 -34.273  1.00  0.00     0.003 C 
HETATM   16  C   UNL     1      -4.704  -1.261 -33.790  1.00  0.00     0.039 C 
BRANCH  12  17
HETATM   17  O   UNL     1      -6.626  -0.944 -32.348  1.00  0.00    -0.388 OA
HETATM   18  H   UNL     1      -7.232  -0.229 -32.070  1.00  0.00     0.210 HD
ENDBRANCH  12  17
ENDBRANCH  11  12
ENDBRANCH   8  11
ENDBRANCH   7   8
ENDBRANCH   1   7
BRANCH   2  19
HETATM   19  C   UNL     1      -3.412   4.833 -32.594  1.00  0.00     0.072 A 
HETATM   20  C   UNL     1      -2.018   4.814 -32.511  1.00  0.00     0.132 A 
HETATM   21  F   UNL     1      -1.412   4.526 -31.349  1.00  0.00    -0.205 F 
HETATM   22  C   UNL     1      -1.219   5.110 -33.617  1.00  0.00     0.043 A 
HETATM   23  C   UNL     1      -1.815   5.429 -34.836  1.00  0.00     0.006 A 
HETATM   24  C   UNL     1      -3.205   5.457 -34.938  1.00  0.00     0.043 A 
HETATM   25  C   UNL     1      -3.991   5.162 -33.823  1.00  0.00     0.132 A 
HETATM   26  F   UNL     1      -5.323   5.244 -33.951  1.00  0.00    -0.205 F 
ENDBRANCH   2  19
TORSDOF 6
ENDMDL
MODEL 9
REMARK VINA RESULT:      -7.2      1.737      2.607
REMARK  6 active torsions:
REMARK  status: ('A' for Active; 'I' for Inactive)
REMARK    1  A    between atoms: N_2  and  C_4 
REMARK    2  A    between atoms: N_2  and  C_11 
REMARK    3  A    between atoms: C_4  and  C_5 
REMARK    4  A    between atoms: C_5  and  O_6 
REMARK    5  A    between atoms: C_11  and  C_12 
REMARK    6  A    between atoms: C_13  and  C_14 
ROOT
HETATM    1  C   UNL     1      -7.604   2.248 -32.208  1.00  0.00     0.016 A 
HETATM    2  C   UNL     1      -7.715   0.817 -32.247  1.00  0.00     0.102 A 
HETATM    3  N   UNL     1      -8.760   0.401 -31.520  1.00  0.00    -0.174 NA
HETATM    4  N   UNL     1      -9.327   1.512 -31.047  1.00  0.00    -0.288 N 
HETATM    5  H   UNL     1     -10.157   1.415 -30.467  1.00  0.00     0.188 HD
HETATM    6  C   UNL     1      -8.681   2.650 -31.436  1.00  0.00     0.120 A 
ENDROOT
BRANCH   1   7
HETATM    7  C   UNL     1      -6.570   3.066 -32.902  1.00  0.00     0.277 C 
BRANCH   7   8
HETATM    8  N   UNL     1      -5.435   3.565 -32.029  1.00  0.00    -0.068 N 
HETATM    9  C   UNL     1      -5.469   2.925 -30.660  1.00  0.00     0.270 C 
HETATM   10  H   UNL     1      -5.593   4.570 -31.904  1.00  0.00     0.279 HD
BRANCH   8  11
HETATM   11  C   UNL     1      -4.091   3.380 -32.731  1.00  0.00     0.272 C 
BRANCH  11  12
HETATM   12  C   UNL     1      -3.305   4.697 -32.927  1.00  0.00     0.082 C 
HETATM   13  C   UNL     1      -1.855   4.550 -32.456  1.00  0.00     0.039 C 
HETATM   14  C   UNL     1      -1.126   5.701 -33.138  1.00  0.00     0.003 C 
HETATM   15  C   UNL     1      -1.846   5.908 -34.467  1.00  0.00     0.003 C 
HETATM   16  C   UNL     1      -3.158   5.120 -34.391  1.00  0.00     0.039 C 
BRANCH  12  17
HETATM   17  O   UNL     1      -3.945   5.737 -32.184  1.00  0.00    -0.388 OA
HETATM   18  H   UNL     1      -3.908   6.570 -32.694  1.00  0.00     0.210 HD
ENDBRANCH  12  17
ENDBRANCH  11  12
ENDBRANCH   8  11
ENDBRANCH   7   8
ENDBRANCH   1   7
BRANCH   2  19
HETATM   19  C   UNL     1      -6.879  -0.153 -32.943  1.00  0.00     0.072 A 
HETATM   20  C   UNL     1      -5.712  -0.653 -32.361  1.00  0.00     0.132 A 
HETATM   21  F   UNL     1      -5.317  -0.219 -31.154  1.00  0.00    -0.205 F 
HETATM   22  C   UNL     1      -4.917  -1.594 -33.016  1.00  0.00     0.043 A 
HETATM   23  C   UNL     1      -5.289  -2.056 -34.278  1.00  0.00     0.006 A 
HETATM   24  C   UNL     1      -6.448  -1.566 -34.877  1.00  0.00     0.043 A 
HETATM   25  C   UNL     1      -7.231  -0.623 -34.211  1.00  0.00     0.132 A 
HETATM   26  F   UNL     1      -8.314  -0.144 -34.841  1.00  0.00    -0.205 F 
ENDBRANCH   2  19
TORSDOF 6
ENDMDL
MODEL 10
REMARK VINA RESULT:      -7.2      2.495      3.784
REMARK  6 active torsions:
REMARK  status: ('A' for Active; 'I' for Inactive)
REMARK    1  A    between atoms: N_2  and  C_4 
REMARK    2  A    between atoms: N_2  and  C_11 
REMARK    3  A    between atoms: C_4  and  C_5 
REMARK    4  A    between atoms: C_5  and  O_6 
REMARK    5  A    between atoms: C_11  and  C_12 
REMARK    6  A    between atoms: C_13  and  C_14 
ROOT
HETATM    1  C   UNL     1      -8.217   0.668 -33.056  1.00  0.00     0.016 A 
HETATM    2  C   UNL     1      -7.520  -0.055 -34.082  1.00  0.00     0.102 A 
HETATM    3  N   UNL     1      -8.141   0.076 -35.262  1.00  0.00    -0.174 NA
HETATM    4  N   UNL     1      -9.184   0.874 -35.026  1.00  0.00    -0.288 N 
HETATM    5  H   UNL     1      -9.791   1.110 -35.807  1.00  0.00     0.188 HD
HETATM    6  C   UNL     1      -9.273   1.267 -33.722  1.00  0.00     0.120 A 
ENDROOT
BRANCH   1   7
HETATM    7  C   UNL     1      -7.820   0.758 -31.623  1.00  0.00     0.277 C 
BRANCH   7   8
HETATM    8  N   UNL     1      -7.371   2.127 -31.152  1.00  0.00    -0.068 N 
HETATM    9  C   UNL     1      -8.471   2.839 -30.398  1.00  0.00     0.270 C 
HETATM   10  H   UNL     1      -7.176   2.670 -31.999  1.00  0.00     0.279 HD
BRANCH   8  11
HETATM   11  C   UNL     1      -6.077   2.025 -30.347  1.00  0.00     0.272 C 
BRANCH  11  12
HETATM   12  C   UNL     1      -5.022   3.089 -30.727  1.00  0.00     0.082 C 
HETATM   13  C   UNL     1      -3.684   2.437 -31.086  1.00  0.00     0.039 C 
HETATM   14  C   UNL     1      -2.947   3.514 -31.874  1.00  0.00     0.003 C 
HETATM   15  C   UNL     1      -4.033   4.296 -32.607  1.00  0.00     0.003 C 
HETATM   16  C   UNL     1      -5.373   3.889 -31.985  1.00  0.00     0.039 C 
BRANCH  12  17
HETATM   17  O   UNL     1      -4.838   3.979 -29.624  1.00  0.00    -0.388 OA
HETATM   18  H   UNL     1      -5.613   3.928 -29.032  1.00  0.00     0.210 HD
ENDBRANCH  12  17
ENDBRANCH  11  12
ENDBRANCH   8  11
ENDBRANCH   7   8
ENDBRANCH   1   7
BRANCH   2  19
HETATM   19  C   UNL     1      -6.303  -0.851 -33.984  1.00  0.00     0.072 A 
HETATM   20  C   UNL     1      -5.085  -0.270 -33.627  1.00  0.00     0.132 A 
HETATM   21  F   UNL     1      -5.004   1.050 -33.401  1.00  0.00    -0.205 F 
HETATM   22  C   UNL     1      -3.921  -1.032 -33.515  1.00  0.00     0.043 A 
HETATM   23  C   UNL     1      -3.965  -2.404 -33.758  1.00  0.00     0.006 A 
HETATM   24  C   UNL     1      -5.171  -3.001 -34.119  1.00  0.00     0.043 A 
HETATM   25  C   UNL     1      -6.326  -2.226 -34.230  1.00  0.00     0.132 A 
HETATM   26  F   UNL     1      -7.456  -2.832 -34.624  1.00  0.00    -0.205 F 
ENDBRANCH   2  19
TORSDOF 6
ENDMDL
