MODEL 1
REMARK VINA RESULT:      -9.0      0.000      0.000
REMARK  9 active torsions:
REMARK  status: ('A' for Active; 'I' for Inactive)
REMARK    1  A    between atoms: C_2  and  O_3 
REMARK    2  A    between atoms: O_3  and  C_4 
REMARK    3  A    between atoms: C_5  and  C_6 
REMARK    4  A    between atoms: N_7  and  C_9 
REMARK    5  A    between atoms: C_9  and  C_10 
REMARK       I    between atoms: C_10  and  N_11 
REMARK    6  A    between atoms: N_11  and  C_12 
REMARK    7  A    between atoms: C_20  and  C_21 
REMARK    8  A    between atoms: C_21  and  O_22 
REMARK    9  A    between atoms: C_28  and  O_29 
ROOT
HETATM    1  C   UNL     1      -4.382   5.406 -31.517  1.00  0.00     0.231 C 
HETATM    2  N   UNL     1      -4.828   3.953 -31.277  1.00  0.00    -0.054 N 
HETATM    3  H   UNL     1      -3.994   3.385 -31.514  1.00  0.00     0.281 HD
HETATM    4  C   UNL     1      -5.183   3.590 -29.857  1.00  0.00     0.239 C 
HETATM    5  C   UNL     1      -6.175   4.568 -29.257  1.00  0.00     0.066 C 
HETATM    6  C   UNL     1      -5.676   6.011 -29.346  1.00  0.00     0.065 C 
HETATM    7  C   UNL     1      -5.379   6.371 -30.818  1.00  0.00     0.055 C 
HETATM    8  C   UNL     1      -6.728   6.968 -28.750  1.00  0.00     0.038 C 
HETATM    9  C   UNL     1      -6.336   8.436 -28.915  1.00  0.00     0.003 C 
HETATM   10  C   UNL     1      -6.057   8.775 -30.373  1.00  0.00     0.001 C 
HETATM   11  C   UNL     1      -4.997   7.854 -30.973  1.00  0.00     0.010 C 
ENDROOT
BRANCH   2  12
HETATM   12  C   UNL     1      -5.870   3.441 -32.286  1.00  0.00     0.338 C 
BRANCH  12  13
HETATM   13  C   UNL     1      -5.926   1.910 -32.223  1.00  0.00     0.248 C 
HETATM   14  N   UNL     1      -5.084   1.278 -33.117  1.00  0.00    -0.319 N 
HETATM   15  H   UNL     1      -4.489   1.836 -33.732  1.00  0.00     0.169 HD
HETATM   16  O   UNL     1      -6.801   1.411 -31.519  1.00  0.00    -0.271 OA
BRANCH  14  17
HETATM   17  C   UNL     1      -5.087  -0.077 -33.434  1.00  0.00     0.094 A 
HETATM   18  S   UNL     1      -3.859  -1.111 -32.889  1.00  0.00    -0.075 SA
HETATM   19  C   UNL     1      -4.562  -2.456 -33.639  1.00  0.00    -0.008 A 
HETATM   20  C   UNL     1      -5.738  -2.149 -34.300  1.00  0.00    -0.026 A 
HETATM   21  C   UNL     1      -3.953  -3.821 -33.526  1.00  0.00     0.047 C 
HETATM   22  C   UNL     1      -6.524  -3.216 -35.016  1.00  0.00     0.041 C 
HETATM   23  C   UNL     1      -6.039  -0.733 -34.212  1.00  0.00     0.080 A 
HETATM   24  C   UNL     1      -6.088  -4.635 -34.616  1.00  0.00     0.005 C 
HETATM   25  C   UNL     1      -4.562  -4.769 -34.565  1.00  0.00     0.005 C 
BRANCH  23  26
HETATM   26  C   UNL     1      -7.180  -0.009 -34.786  1.00  0.00     0.296 C 
HETATM   27  O   UNL     1      -7.060   0.706 -35.780  1.00  0.00    -0.259 OA
BRANCH  26  28
HETATM   28  O   UNL     1      -8.347  -0.204 -34.116  1.00  0.00    -0.322 OA
HETATM   29  C   UNL     1      -9.243   0.909 -34.123  1.00  0.00     0.213 C 
ENDBRANCH  26  28
ENDBRANCH  23  26
ENDBRANCH  14  17
ENDBRANCH  12  13
ENDBRANCH   2  12
BRANCH   1  30
HETATM   30  C   UNL     1      -2.878   5.643 -31.348  1.00  0.00     0.006 A 
HETATM   31  C   UNL     1      -1.958   5.091 -32.274  1.00  0.00     0.077 A 
HETATM   32  C   UNL     1      -0.578   5.287 -32.107  1.00  0.00     0.037 A 
HETATM   33  C   UNL     1      -0.088   6.035 -31.040  1.00  0.00     0.003 A 
HETATM   34  C   UNL     1      -0.973   6.599 -30.136  1.00  0.00     0.001 A 
HETATM   35  C   UNL     1      -2.348   6.409 -30.293  1.00  0.00     0.012 A 
BRANCH  31  36
HETATM   36  O   UNL     1      -2.495   4.371 -33.315  1.00  0.00    -0.351 OA
BRANCH  36  37
HETATM   37  C   UNL     1      -2.318   4.903 -34.633  1.00  0.00     0.171 C 
HETATM   38  C   UNL     1      -3.681   5.276 -35.188  1.00  0.00     0.034 C 
ENDBRANCH  36  37
ENDBRANCH  31  36
ENDBRANCH   1  30
BRANCH   6  39
HETATM   39  O   UNL     1      -4.475   6.088 -28.584  1.00  0.00    -0.389 OA
HETATM   40  H   UNL     1      -4.603   6.673 -27.813  1.00  0.00     0.210 HD
ENDBRANCH   6  39
TORSDOF 9
ENDMDL
MODEL 2
REMARK VINA RESULT:      -9.0      2.158      3.136
REMARK  9 active torsions:
REMARK  status: ('A' for Active; 'I' for Inactive)
REMARK    1  A    between atoms: C_2  and  O_3 
REMARK    2  A    between atoms: O_3  and  C_4 
REMARK    3  A    between atoms: C_5  and  C_6 
REMARK    4  A    between atoms: N_7  and  C_9 
REMARK    5  A    between atoms: C_9  and  C_10 
REMARK       I    between atoms: C_10  and  N_11 
REMARK    6  A    between atoms: N_11  and  C_12 
REMARK    7  A    between atoms: C_20  and  C_21 
REMARK    8  A    between atoms: C_21  and  O_22 
REMARK    9  A    between atoms: C_28  and  O_29 
ROOT
HETATM    1  C   UNL     1      -3.489   7.152 -31.013  1.00  0.00     0.231 C 
HETATM    2  N   UNL     1      -4.490   6.059 -30.599  1.00  0.00    -0.054 N 
HETATM    3  H   UNL     1      -4.007   5.170 -30.823  1.00  0.00     0.281 HD
HETATM    4  C   UNL     1      -4.829   5.986 -29.132  1.00  0.00     0.239 C 
HETATM    5  C   UNL     1      -5.243   7.337 -28.580  1.00  0.00     0.066 C 
HETATM    6  C   UNL     1      -4.184   8.408 -28.846  1.00  0.00     0.065 C 
HETATM    7  C   UNL     1      -3.903   8.500 -30.361  1.00  0.00     0.055 C 
HETATM    8  C   UNL     1      -4.660   9.766 -28.294  1.00  0.00     0.038 C 
HETATM    9  C   UNL     1      -3.693  10.901 -28.631  1.00  0.00     0.003 C 
HETATM   10  C   UNL     1      -3.436  10.984 -30.130  1.00  0.00     0.001 C 
HETATM   11  C   UNL     1      -2.937   9.654 -30.690  1.00  0.00     0.010 C 
ENDROOT
BRANCH   2  12
HETATM   12  C   UNL     1      -5.743   5.986 -31.490  1.00  0.00     0.338 C 
BRANCH  12  13
HETATM   13  C   UNL     1      -6.165   4.520 -31.648  1.00  0.00     0.248 C 
HETATM   14  N   UNL     1      -5.307   3.768 -32.425  1.00  0.00    -0.319 N 
HETATM   15  H   UNL     1      -4.472   4.202 -32.822  1.00  0.00     0.169 HD
HETATM   16  O   UNL     1      -7.272   4.208 -31.215  1.00  0.00    -0.271 OA
BRANCH  14  17
HETATM   17  C   UNL     1      -5.550   2.488 -32.918  1.00  0.00     0.094 A 
HETATM   18  S   UNL     1      -6.594   2.233 -34.228  1.00  0.00    -0.075 SA
HETATM   19  C   UNL     1      -6.340   0.561 -34.196  1.00  0.00    -0.008 A 
HETATM   20  C   UNL     1      -5.455   0.171 -33.206  1.00  0.00    -0.026 A 
HETATM   21  C   UNL     1      -6.997  -0.350 -35.190  1.00  0.00     0.047 C 
HETATM   22  C   UNL     1      -5.085  -1.279 -33.027  1.00  0.00     0.041 C 
HETATM   23  C   UNL     1      -5.007   1.305 -32.421  1.00  0.00     0.080 A 
HETATM   24  C   UNL     1      -5.484  -2.141 -34.236  1.00  0.00     0.005 C 
HETATM   25  C   UNL     1      -6.895  -1.809 -34.732  1.00  0.00     0.005 C 
BRANCH  23  26
HETATM   26  C   UNL     1      -4.083   1.312 -31.281  1.00  0.00     0.296 C 
HETATM   27  O   UNL     1      -3.037   1.960 -31.299  1.00  0.00    -0.259 OA
BRANCH  26  28
HETATM   28  O   UNL     1      -4.494   0.544 -30.237  1.00  0.00    -0.322 OA
HETATM   29  C   UNL     1      -5.752   0.914 -29.670  1.00  0.00     0.213 C 
ENDBRANCH  26  28
ENDBRANCH  23  26
ENDBRANCH  14  17
ENDBRANCH  12  13
ENDBRANCH   2  12
BRANCH   1  30
HETATM   30  C   UNL     1      -2.020   6.720 -30.954  1.00  0.00     0.006 A 
HETATM   31  C   UNL     1      -1.570   5.610 -31.712  1.00  0.00     0.077 A 
HETATM   32  C   UNL     1      -0.230   5.198 -31.641  1.00  0.00     0.037 A 
HETATM   33  C   UNL     1       0.683   5.876 -30.838  1.00  0.00     0.003 A 
HETATM   34  C   UNL     1       0.266   6.975 -30.105  1.00  0.00     0.001 A 
HETATM   35  C   UNL     1      -1.065   7.392 -30.169  1.00  0.00     0.012 A 
BRANCH  31  36
HETATM   36  O   UNL     1      -2.509   4.984 -32.497  1.00  0.00    -0.351 OA
BRANCH  36  37
HETATM   37  C   UNL     1      -2.159   4.746 -33.866  1.00  0.00     0.171 C 
HETATM   38  C   UNL     1      -3.121   5.520 -34.750  1.00  0.00     0.034 C 
ENDBRANCH  36  37
ENDBRANCH  31  36
ENDBRANCH   1  30
BRANCH   6  39
HETATM   39  O   UNL     1      -2.998   8.005 -28.166  1.00  0.00    -0.389 OA
HETATM   40  H   UNL     1      -3.059   8.236 -27.218  1.00  0.00     0.210 HD
ENDBRANCH   6  39
TORSDOF 9
ENDMDL
MODEL 3
REMARK VINA RESULT:      -9.0      2.416      8.000
REMARK  9 active torsions:
REMARK  status: ('A' for Active; 'I' for Inactive)
REMARK    1  A    between atoms: C_2  and  O_3 
REMARK    2  A    between atoms: O_3  and  C_4 
REMARK    3  A    between atoms: C_5  and  C_6 
REMARK    4  A    between atoms: N_7  and  C_9 
REMARK    5  A    between atoms: C_9  and  C_10 
REMARK       I    between atoms: C_10  and  N_11 
REMARK    6  A    between atoms: N_11  and  C_12 
REMARK    7  A    between atoms: C_20  and  C_21 
REMARK    8  A    between atoms: C_21  and  O_22 
REMARK    9  A    between atoms: C_28  and  O_29 
ROOT
HETATM    1  C   UNL     1      -7.969   1.459 -32.390  1.00  0.00     0.231 C 
HETATM    2  N   UNL     1      -7.261   2.821 -32.292  1.00  0.00    -0.054 N 
HETATM    3  H   UNL     1      -6.254   2.584 -32.238  1.00  0.00     0.281 HD
HETATM    4  C   UNL     1      -7.405   3.735 -33.483  1.00  0.00     0.239 C 
HETATM    5  C   UNL     1      -8.856   3.906 -33.890  1.00  0.00     0.066 C 
HETATM    6  C   UNL     1      -9.538   2.561 -34.144  1.00  0.00     0.065 C 
HETATM    7  C   UNL     1      -9.426   1.672 -32.887  1.00  0.00     0.055 C 
HETATM    8  C   UNL     1     -11.015   2.784 -34.527  1.00  0.00     0.038 C 
HETATM    9  C   UNL     1     -11.780   1.470 -34.682  1.00  0.00     0.003 C 
HETATM   10  C   UNL     1     -11.666   0.612 -33.430  1.00  0.00     0.001 C 
HETATM   11  C   UNL     1     -10.209   0.357 -33.051  1.00  0.00     0.010 C 
ENDROOT
BRANCH   2  12
HETATM   12  C   UNL     1      -7.497   3.558 -30.962  1.00  0.00     0.338 C 
BRANCH  12  13
HETATM   13  C   UNL     1      -6.150   4.023 -30.395  1.00  0.00     0.248 C 
HETATM   14  N   UNL     1      -5.493   4.942 -31.189  1.00  0.00    -0.319 N 
HETATM   15  H   UNL     1      -5.923   5.257 -32.060  1.00  0.00     0.169 HD
HETATM   16  O   UNL     1      -5.728   3.433 -29.404  1.00  0.00    -0.271 OA
BRANCH  14  17
HETATM   17  C   UNL     1      -4.174   5.363 -31.042  1.00  0.00     0.094 A 
HETATM   18  S   UNL     1      -3.750   6.548 -29.906  1.00  0.00    -0.075 SA
HETATM   19  C   UNL     1      -2.114   6.470 -30.331  1.00  0.00    -0.008 A 
HETATM   20  C   UNL     1      -1.861   5.542 -31.325  1.00  0.00    -0.026 A 
HETATM   21  C   UNL     1      -1.085   7.310 -29.636  1.00  0.00     0.047 C 
HETATM   22  C   UNL     1      -0.460   5.311 -31.829  1.00  0.00     0.041 C 
HETATM   23  C   UNL     1      -3.083   4.904 -31.777  1.00  0.00     0.080 A 
HETATM   24  C   UNL     1       0.606   5.911 -30.899  1.00  0.00     0.005 C 
HETATM   25  C   UNL     1       0.227   7.320 -30.431  1.00  0.00     0.005 C 
BRANCH  23  26
HETATM   26  C   UNL     1      -3.243   3.881 -32.817  1.00  0.00     0.296 C 
HETATM   27  O   UNL     1      -2.736   2.765 -32.711  1.00  0.00    -0.259 OA
BRANCH  26  28
HETATM   28  O   UNL     1      -3.984   4.291 -33.880  1.00  0.00    -0.322 OA
HETATM   29  C   UNL     1      -3.351   5.253 -34.725  1.00  0.00     0.213 C 
ENDBRANCH  26  28
ENDBRANCH  23  26
ENDBRANCH  14  17
ENDBRANCH  12  13
ENDBRANCH   2  12
BRANCH   1  30
HETATM   30  C   UNL     1      -7.124   0.350 -33.024  1.00  0.00     0.006 A 
HETATM   31  C   UNL     1      -5.766   0.184 -32.654  1.00  0.00     0.077 A 
HETATM   32  C   UNL     1      -4.983  -0.816 -33.252  1.00  0.00     0.037 A 
HETATM   33  C   UNL     1      -5.526  -1.670 -34.207  1.00  0.00     0.003 A 
HETATM   34  C   UNL     1      -6.857  -1.537 -34.567  1.00  0.00     0.001 A 
HETATM   35  C   UNL     1      -7.644  -0.545 -33.979  1.00  0.00     0.012 A 
BRANCH  31  36
HETATM   36  O   UNL     1      -5.283   1.047 -31.698  1.00  0.00    -0.351 OA
BRANCH  36  37
HETATM   37  C   UNL     1      -4.749   0.462 -30.504  1.00  0.00     0.171 C 
HETATM   38  C   UNL     1      -5.902   0.119 -29.579  1.00  0.00     0.034 C 
ENDBRANCH  36  37
ENDBRANCH  31  36
ENDBRANCH   1  30
BRANCH   6  39
HETATM   39  O   UNL     1      -8.853   1.941 -35.229  1.00  0.00    -0.389 OA
HETATM   40  H   UNL     1      -9.443   1.875 -36.005  1.00  0.00     0.210 HD
ENDBRANCH   6  39
TORSDOF 9
ENDMDL
MODEL 4
REMARK VINA RESULT:      -8.8      2.262      3.376
REMARK  9 active torsions:
REMARK  status: ('A' for Active; 'I' for Inactive)
REMARK    1  A    between atoms: C_2  and  O_3 
REMARK    2  A    between atoms: O_3  and  C_4 
REMARK    3  A    between atoms: C_5  and  C_6 
REMARK    4  A    between atoms: N_7  and  C_9 
REMARK    5  A    between atoms: C_9  and  C_10 
REMARK       I    between atoms: C_10  and  N_11 
REMARK    6  A    between atoms: N_11  and  C_12 
REMARK    7  A    between atoms: C_20  and  C_21 
REMARK    8  A    between atoms: C_21  and  O_22 
REMARK    9  A    between atoms: C_28  and  O_29 
ROOT
HETATM    1  C   UNL     1      -3.238   7.029 -30.137  1.00  0.00     0.231 C 
HETATM    2  N   UNL     1      -4.199   6.221 -29.249  1.00  0.00    -0.054 N 
HETATM    3  H   UNL     1      -3.868   5.243 -29.335  1.00  0.00     0.281 HD
HETATM    4  C   UNL     1      -4.171   6.537 -27.774  1.00  0.00     0.239 C 
HETATM    5  C   UNL     1      -4.313   8.024 -27.513  1.00  0.00     0.066 C 
HETATM    6  C   UNL     1      -3.261   8.837 -28.269  1.00  0.00     0.065 C 
HETATM    7  C   UNL     1      -3.355   8.537 -29.781  1.00  0.00     0.055 C 
HETATM    8  C   UNL     1      -3.462  10.341 -27.996  1.00  0.00     0.038 C 
HETATM    9  C   UNL     1      -2.511  11.213 -28.815  1.00  0.00     0.003 C 
HETATM   10  C   UNL     1      -2.625  10.911 -30.303  1.00  0.00     0.001 C 
HETATM   11  C   UNL     1      -2.401   9.429 -30.597  1.00  0.00     0.010 C 
ENDROOT
BRANCH   2  12
HETATM   12  C   UNL     1      -5.635   6.132 -29.796  1.00  0.00     0.338 C 
BRANCH  12  13
HETATM   13  C   UNL     1      -5.943   4.677 -30.173  1.00  0.00     0.248 C 
HETATM   14  N   UNL     1      -5.236   4.217 -31.266  1.00  0.00    -0.319 N 
HETATM   15  H   UNL     1      -4.569   4.834 -31.734  1.00  0.00     0.169 HD
HETATM   16  O   UNL     1      -6.874   4.133 -29.585  1.00  0.00    -0.271 OA
BRANCH  14  17
HETATM   17  C   UNL     1      -5.470   3.033 -31.960  1.00  0.00     0.094 A 
HETATM   18  S   UNL     1      -4.969   1.537 -31.341  1.00  0.00    -0.075 SA
HETATM   19  C   UNL     1      -5.595   0.698 -32.671  1.00  0.00    -0.008 A 
HETATM   20  C   UNL     1      -6.201   1.531 -33.594  1.00  0.00    -0.026 A 
HETATM   21  C   UNL     1      -5.511  -0.796 -32.763  1.00  0.00     0.047 C 
HETATM   22  C   UNL     1      -6.836   0.971 -34.841  1.00  0.00     0.041 C 
HETATM   23  C   UNL     1      -6.102   2.922 -33.197  1.00  0.00     0.080 A 
HETATM   24  C   UNL     1      -7.044  -0.550 -34.762  1.00  0.00     0.005 C 
HETATM   25  C   UNL     1      -5.815  -1.265 -34.191  1.00  0.00     0.005 C 
BRANCH  23  26
HETATM   26  C   UNL     1      -6.604   4.107 -33.903  1.00  0.00     0.296 C 
HETATM   27  O   UNL     1      -5.843   4.964 -34.352  1.00  0.00    -0.259 OA
BRANCH  26  28
HETATM   28  O   UNL     1      -7.959   4.156 -33.998  1.00  0.00    -0.322 OA
HETATM   29  C   UNL     1      -8.634   4.580 -32.812  1.00  0.00     0.213 C 
ENDBRANCH  26  28
ENDBRANCH  23  26
ENDBRANCH  14  17
ENDBRANCH  12  13
ENDBRANCH   2  12
BRANCH   1  30
HETATM   30  C   UNL     1      -1.844   6.410 -30.288  1.00  0.00     0.006 A 
HETATM   31  C   UNL     1      -1.522   5.649 -31.440  1.00  0.00     0.077 A 
HETATM   32  C   UNL     1      -0.254   5.060 -31.570  1.00  0.00     0.037 A 
HETATM   33  C   UNL     1       0.712   5.223 -30.581  1.00  0.00     0.003 A 
HETATM   34  C   UNL     1       0.422   5.980 -29.458  1.00  0.00     0.001 A 
HETATM   35  C   UNL     1      -0.837   6.569 -29.319  1.00  0.00     0.012 A 
BRANCH  31  36
HETATM   36  O   UNL     1      -2.508   5.530 -32.391  1.00  0.00    -0.351 OA
BRANCH  36  37
HETATM   37  C   UNL     1      -2.325   4.523 -33.394  1.00  0.00     0.171 C 
HETATM   38  C   UNL     1      -2.206   5.207 -34.744  1.00  0.00     0.034 C 
ENDBRANCH  36  37
ENDBRANCH  31  36
ENDBRANCH   1  30
BRANCH   6  39
HETATM   39  O   UNL     1      -1.985   8.430 -27.782  1.00  0.00    -0.389 OA
HETATM   40  H   UNL     1      -1.444   8.072 -28.512  1.00  0.00     0.210 HD
ENDBRANCH   6  39
TORSDOF 9
ENDMDL
MODEL 5
REMARK VINA RESULT:      -8.7      3.662      6.675
REMARK  9 active torsions:
REMARK  status: ('A' for Active; 'I' for Inactive)
REMARK    1  A    between atoms: C_2  and  O_3 
REMARK    2  A    between atoms: O_3  and  C_4 
REMARK    3  A    between atoms: C_5  and  C_6 
REMARK    4  A    between atoms: N_7  and  C_9 
REMARK    5  A    between atoms: C_9  and  C_10 
REMARK       I    between atoms: C_10  and  N_11 
REMARK    6  A    between atoms: N_11  and  C_12 
REMARK    7  A    between atoms: C_20  and  C_21 
REMARK    8  A    between atoms: C_21  and  O_22 
REMARK    9  A    between atoms: C_28  and  O_29 
ROOT
HETATM    1  C   UNL     1      -5.816   3.574 -32.583  1.00  0.00     0.231 C 
HETATM    2  N   UNL     1      -7.015   4.523 -32.421  1.00  0.00    -0.054 N 
HETATM    3  H   UNL     1      -7.811   3.898 -32.199  1.00  0.00     0.281 HD
HETATM    4  C   UNL     1      -6.936   5.510 -31.284  1.00  0.00     0.239 C 
HETATM    5  C   UNL     1      -5.631   6.283 -31.296  1.00  0.00     0.066 C 
HETATM    6  C   UNL     1      -4.419   5.350 -31.300  1.00  0.00     0.065 C 
HETATM    7  C   UNL     1      -4.498   4.394 -32.509  1.00  0.00     0.055 C 
HETATM    8  C   UNL     1      -3.119   6.178 -31.341  1.00  0.00     0.038 C 
HETATM    9  C   UNL     1      -1.874   5.299 -31.462  1.00  0.00     0.003 C 
HETATM   10  C   UNL     1      -1.965   4.371 -32.665  1.00  0.00     0.001 C 
HETATM   11  C   UNL     1      -3.234   3.522 -32.627  1.00  0.00     0.010 C 
ENDROOT
BRANCH   2  12
HETATM   12  C   UNL     1      -7.474   5.185 -33.733  1.00  0.00     0.338 C 
BRANCH  12  13
HETATM   13  C   UNL     1      -8.955   4.863 -33.970  1.00  0.00     0.248 C 
HETATM   14  N   UNL     1      -9.467   3.905 -33.118  1.00  0.00    -0.319 N 
HETATM   15  H   UNL     1      -8.866   3.493 -32.401  1.00  0.00     0.169 HD
HETATM   16  O   UNL     1      -9.481   5.355 -34.966  1.00  0.00    -0.271 OA
BRANCH  14  17
HETATM   17  C   UNL     1     -10.696   3.263 -33.242  1.00  0.00     0.094 A 
HETATM   18  S   UNL     1     -10.834   1.776 -34.043  1.00  0.00    -0.075 SA
HETATM   19  C   UNL     1     -12.500   1.697 -33.759  1.00  0.00    -0.008 A 
HETATM   20  C   UNL     1     -12.975   2.783 -33.046  1.00  0.00    -0.026 A 
HETATM   21  C   UNL     1     -13.317   0.526 -34.217  1.00  0.00     0.047 C 
HETATM   22  C   UNL     1     -14.432   2.889 -32.677  1.00  0.00     0.041 C 
HETATM   23  C   UNL     1     -11.917   3.735 -32.764  1.00  0.00     0.080 A 
HETATM   24  C   UNL     1     -15.179   1.556 -32.845  1.00  0.00     0.005 C 
HETATM   25  C   UNL     1     -14.813   0.859 -34.159  1.00  0.00     0.005 C 
BRANCH  23  26
HETATM   26  C   UNL     1     -12.010   5.012 -32.047  1.00  0.00     0.296 C 
HETATM   27  O   UNL     1     -12.625   5.971 -32.511  1.00  0.00    -0.259 OA
BRANCH  26  28
HETATM   28  O   UNL     1     -11.356   5.021 -30.856  1.00  0.00    -0.322 OA
HETATM   29  C   UNL     1     -10.621   6.214 -30.578  1.00  0.00     0.213 C 
ENDBRANCH  26  28
ENDBRANCH  23  26
ENDBRANCH  14  17
ENDBRANCH  12  13
ENDBRANCH   2  12
BRANCH   1  30
HETATM   30  C   UNL     1      -5.926   2.273 -31.781  1.00  0.00     0.006 A 
HETATM   31  C   UNL     1      -6.044   1.029 -32.450  1.00  0.00     0.077 A 
HETATM   32  C   UNL     1      -6.169  -0.162 -31.717  1.00  0.00     0.037 A 
HETATM   33  C   UNL     1      -6.166  -0.146 -30.325  1.00  0.00     0.003 A 
HETATM   34  C   UNL     1      -6.032   1.058 -29.654  1.00  0.00     0.001 A 
HETATM   35  C   UNL     1      -5.907   2.248 -30.374  1.00  0.00     0.012 A 
BRANCH  31  36
HETATM   36  O   UNL     1      -6.030   1.069 -33.824  1.00  0.00    -0.351 OA
BRANCH  36  37
HETATM   37  C   UNL     1      -6.329  -0.152 -34.513  1.00  0.00     0.171 C 
HETATM   38  C   UNL     1      -7.595   0.053 -35.326  1.00  0.00     0.034 C 
ENDBRANCH  36  37
ENDBRANCH  31  36
ENDBRANCH   1  30
BRANCH   6  39
HETATM   39  O   UNL     1      -4.465   4.596 -30.092  1.00  0.00    -0.389 OA
HETATM   40  H   UNL     1      -3.889   3.810 -30.163  1.00  0.00     0.210 HD
ENDBRANCH   6  39
TORSDOF 9
ENDMDL
MODEL 6
REMARK VINA RESULT:      -8.7      2.206      8.371
REMARK  9 active torsions:
REMARK  status: ('A' for Active; 'I' for Inactive)
REMARK    1  A    between atoms: C_2  and  O_3 
REMARK    2  A    between atoms: O_3  and  C_4 
REMARK    3  A    between atoms: C_5  and  C_6 
REMARK    4  A    between atoms: N_7  and  C_9 
REMARK    5  A    between atoms: C_9  and  C_10 
REMARK       I    between atoms: C_10  and  N_11 
REMARK    6  A    between atoms: N_11  and  C_12 
REMARK    7  A    between atoms: C_20  and  C_21 
REMARK    8  A    between atoms: C_21  and  O_22 
REMARK    9  A    between atoms: C_28  and  O_29 
ROOT
HETATM    1  C   UNL     1      -7.864   1.035 -32.343  1.00  0.00     0.231 C 
HETATM    2  N   UNL     1      -7.130   2.385 -32.281  1.00  0.00    -0.054 N 
HETATM    3  H   UNL     1      -6.125   2.132 -32.276  1.00  0.00     0.281 HD
HETATM    4  C   UNL     1      -7.317   3.301 -33.464  1.00  0.00     0.239 C 
HETATM    5  C   UNL     1      -8.784   3.496 -33.800  1.00  0.00     0.066 C 
HETATM    6  C   UNL     1      -9.498   2.162 -34.020  1.00  0.00     0.065 C 
HETATM    7  C   UNL     1      -9.340   1.272 -32.770  1.00  0.00     0.055 C 
HETATM    8  C   UNL     1     -10.988   2.410 -34.331  1.00  0.00     0.038 C 
HETATM    9  C   UNL     1     -11.781   1.108 -34.448  1.00  0.00     0.003 C 
HETATM   10  C   UNL     1     -11.621   0.248 -33.202  1.00  0.00     0.001 C 
HETATM   11  C   UNL     1     -10.151  -0.031 -32.894  1.00  0.00     0.010 C 
ENDROOT
BRANCH   2  12
HETATM   12  C   UNL     1      -7.289   3.125 -30.942  1.00  0.00     0.338 C 
BRANCH  12  13
HETATM   13  C   UNL     1      -5.909   3.567 -30.441  1.00  0.00     0.248 C 
HETATM   14  N   UNL     1      -5.383   4.649 -31.119  1.00  0.00    -0.319 N 
HETATM   15  H   UNL     1      -5.920   5.084 -31.871  1.00  0.00     0.169 HD
HETATM   16  O   UNL     1      -5.354   2.841 -29.619  1.00  0.00    -0.271 OA
BRANCH  14  17
HETATM   17  C   UNL     1      -4.075   5.118 -31.033  1.00  0.00     0.094 A 
HETATM   18  S   UNL     1      -2.833   4.436 -31.963  1.00  0.00    -0.075 SA
HETATM   19  C   UNL     1      -1.679   5.496 -31.325  1.00  0.00    -0.008 A 
HETATM   20  C   UNL     1      -2.214   6.387 -30.412  1.00  0.00    -0.026 A 
HETATM   21  C   UNL     1      -0.248   5.456 -31.774  1.00  0.00     0.047 C 
HETATM   22  C   UNL     1      -1.348   7.425 -29.746  1.00  0.00     0.041 C 
HETATM   23  C   UNL     1      -3.629   6.148 -30.208  1.00  0.00     0.080 A 
HETATM   24  C   UNL     1       0.009   7.598 -30.448  1.00  0.00     0.005 C 
HETATM   25  C   UNL     1       0.641   6.249 -30.808  1.00  0.00     0.005 C 
BRANCH  23  26
HETATM   26  C   UNL     1      -4.552   6.863 -29.318  1.00  0.00     0.296 C 
HETATM   27  O   UNL     1      -5.429   7.607 -29.756  1.00  0.00    -0.259 OA
BRANCH  26  28
HETATM   28  O   UNL     1      -4.335   6.626 -27.997  1.00  0.00    -0.322 OA
HETATM   29  C   UNL     1      -5.317   5.807 -27.359  1.00  0.00     0.213 C 
ENDBRANCH  26  28
ENDBRANCH  23  26
ENDBRANCH  14  17
ENDBRANCH  12  13
ENDBRANCH   2  12
BRANCH   1  30
HETATM   30  C   UNL     1      -7.069  -0.088 -33.018  1.00  0.00     0.006 A 
HETATM   31  C   UNL     1      -5.896  -0.599 -32.408  1.00  0.00     0.077 A 
HETATM   32  C   UNL     1      -5.152  -1.611 -33.036  1.00  0.00     0.037 A 
HETATM   33  C   UNL     1      -5.558  -2.140 -34.258  1.00  0.00     0.003 A 
HETATM   34  C   UNL     1      -6.713  -1.667 -34.859  1.00  0.00     0.001 A 
HETATM   35  C   UNL     1      -7.459  -0.660 -34.243  1.00  0.00     0.012 A 
BRANCH  31  36
HETATM   36  O   UNL     1      -5.546  -0.050 -31.197  1.00  0.00    -0.351 OA
BRANCH  36  37
HETATM   37  C   UNL     1      -4.152  -0.040 -30.865  1.00  0.00     0.171 C 
HETATM   38  C   UNL     1      -3.438   0.904 -31.815  1.00  0.00     0.034 C 
ENDBRANCH  36  37
ENDBRANCH  31  36
ENDBRANCH   1  30
BRANCH   6  39
HETATM   39  O   UNL     1      -8.877   1.532 -35.137  1.00  0.00    -0.389 OA
HETATM   40  H   UNL     1      -9.430   1.641 -35.935  1.00  0.00     0.210 HD
ENDBRANCH   6  39
TORSDOF 9
ENDMDL
MODEL 7
REMARK VINA RESULT:      -8.6      1.813      4.155
REMARK  9 active torsions:
REMARK  status: ('A' for Active; 'I' for Inactive)
REMARK    1  A    between atoms: C_2  and  O_3 
REMARK    2  A    between atoms: O_3  and  C_4 
REMARK    3  A    between atoms: C_5  and  C_6 
REMARK    4  A    between atoms: N_7  and  C_9 
REMARK    5  A    between atoms: C_9  and  C_10 
REMARK       I    between atoms: C_10  and  N_11 
REMARK    6  A    between atoms: N_11  and  C_12 
REMARK    7  A    between atoms: C_20  and  C_21 
REMARK    8  A    between atoms: C_21  and  O_22 
REMARK    9  A    between atoms: C_28  and  O_29 
ROOT
HETATM    1  C   UNL     1      -4.537   4.510 -31.376  1.00  0.00     0.231 C 
HETATM    2  N   UNL     1      -3.929   3.288 -32.085  1.00  0.00    -0.054 N 
HETATM    3  H   UNL     1      -4.746   2.706 -32.343  1.00  0.00     0.281 HD
HETATM    4  C   UNL     1      -3.195   3.561 -33.374  1.00  0.00     0.239 C 
HETATM    5  C   UNL     1      -2.165   4.664 -33.214  1.00  0.00     0.066 C 
HETATM    6  C   UNL     1      -2.787   5.944 -32.653  1.00  0.00     0.065 C 
HETATM    7  C   UNL     1      -3.477   5.644 -31.306  1.00  0.00     0.055 C 
HETATM    8  C   UNL     1      -1.700   7.024 -32.483  1.00  0.00     0.038 C 
HETATM    9  C   UNL     1      -2.239   8.291 -31.819  1.00  0.00     0.003 C 
HETATM   10  C   UNL     1      -2.908   7.977 -30.487  1.00  0.00     0.001 C 
HETATM   11  C   UNL     1      -4.007   6.928 -30.641  1.00  0.00     0.010 C 
ENDROOT
BRANCH   2  12
HETATM   12  C   UNL     1      -3.139   2.350 -31.154  1.00  0.00     0.338 C 
BRANCH  12  13
HETATM   13  C   UNL     1      -3.627   0.910 -31.354  1.00  0.00     0.248 C 
HETATM   14  N   UNL     1      -3.570   0.473 -32.661  1.00  0.00    -0.319 N 
HETATM   15  H   UNL     1      -3.211   1.094 -33.388  1.00  0.00     0.169 HD
HETATM   16  O   UNL     1      -4.154   0.360 -30.389  1.00  0.00    -0.271 OA
BRANCH  14  17
HETATM   17  C   UNL     1      -4.146  -0.690 -33.167  1.00  0.00     0.094 A 
HETATM   18  S   UNL     1      -3.395  -2.198 -32.980  1.00  0.00    -0.075 SA
HETATM   19  C   UNL     1      -4.643  -2.999 -33.795  1.00  0.00    -0.008 A 
HETATM   20  C   UNL     1      -5.650  -2.145 -34.208  1.00  0.00    -0.026 A 
HETATM   21  C   UNL     1      -4.627  -4.487 -33.980  1.00  0.00     0.047 C 
HETATM   22  C   UNL     1      -6.859  -2.671 -34.937  1.00  0.00     0.041 C 
HETATM   23  C   UNL     1      -5.347  -0.768 -33.870  1.00  0.00     0.080 A 
HETATM   24  C   UNL     1      -6.997  -4.197 -34.822  1.00  0.00     0.005 C 
HETATM   25  C   UNL     1      -5.656  -4.909 -35.035  1.00  0.00     0.005 C 
BRANCH  23  26
HETATM   26  C   UNL     1      -6.146   0.432 -34.143  1.00  0.00     0.296 C 
HETATM   27  O   UNL     1      -6.694   0.612 -35.231  1.00  0.00    -0.259 OA
BRANCH  26  28
HETATM   28  O   UNL     1      -6.209   1.300 -33.099  1.00  0.00    -0.322 OA
HETATM   29  C   UNL     1      -7.351   1.151 -32.255  1.00  0.00     0.213 C 
ENDBRANCH  26  28
ENDBRANCH  23  26
ENDBRANCH  14  17
ENDBRANCH  12  13
ENDBRANCH   2  12
BRANCH   1  30
HETATM   30  C   UNL     1      -5.963   4.854 -31.820  1.00  0.00     0.006 A 
HETATM   31  C   UNL     1      -7.013   4.913 -30.870  1.00  0.00     0.077 A 
HETATM   32  C   UNL     1      -8.325   5.204 -31.278  1.00  0.00     0.037 A 
HETATM   33  C   UNL     1      -8.616   5.453 -32.617  1.00  0.00     0.003 A 
HETATM   34  C   UNL     1      -7.599   5.419 -33.556  1.00  0.00     0.001 A 
HETATM   35  C   UNL     1      -6.291   5.130 -33.161  1.00  0.00     0.012 A 
BRANCH  31  36
HETATM   36  O   UNL     1      -6.669   4.670 -29.561  1.00  0.00    -0.351 OA
BRANCH  36  37
HETATM   37  C   UNL     1      -6.858   5.742 -28.629  1.00  0.00     0.171 C 
HETATM   38  C   UNL     1      -5.724   5.707 -27.621  1.00  0.00     0.034 C 
ENDBRANCH  36  37
ENDBRANCH  31  36
ENDBRANCH   1  30
BRANCH   6  39
HETATM   39  O   UNL     1      -3.757   6.389 -33.598  1.00  0.00    -0.389 OA
HETATM   40  H   UNL     1      -4.433   6.936 -33.153  1.00  0.00     0.210 HD
ENDBRANCH   6  39
TORSDOF 9
ENDMDL
MODEL 8
REMARK VINA RESULT:      -8.6      3.106      8.841
REMARK  9 active torsions:
REMARK  status: ('A' for Active; 'I' for Inactive)
REMARK    1  A    between atoms: C_2  and  O_3 
REMARK    2  A    between atoms: O_3  and  C_4 
REMARK    3  A    between atoms: C_5  and  C_6 
REMARK    4  A    between atoms: N_7  and  C_9 
REMARK    5  A    between atoms: C_9  and  C_10 
REMARK       I    between atoms: C_10  and  N_11 
REMARK    6  A    between atoms: N_11  and  C_12 
REMARK    7  A    between atoms: C_20  and  C_21 
REMARK    8  A    between atoms: C_21  and  O_22 
REMARK    9  A    between atoms: C_28  and  O_29 
ROOT
HETATM    1  C   UNL     1      -4.322   3.509 -31.531  1.00  0.00     0.231 C 
HETATM    2  N   UNL     1      -5.577   4.245 -31.032  1.00  0.00    -0.054 N 
HETATM    3  H   UNL     1      -5.430   5.230 -31.320  1.00  0.00     0.281 HD
HETATM    4  C   UNL     1      -6.887   3.827 -31.651  1.00  0.00     0.239 C 
HETATM    5  C   UNL     1      -7.082   2.323 -31.596  1.00  0.00     0.066 C 
HETATM    6  C   UNL     1      -5.910   1.574 -32.232  1.00  0.00     0.065 C 
HETATM    7  C   UNL     1      -4.592   1.979 -31.537  1.00  0.00     0.055 C 
HETATM    8  C   UNL     1      -6.139   0.053 -32.127  1.00  0.00     0.038 C 
HETATM    9  C   UNL     1      -4.947  -0.751 -32.644  1.00  0.00     0.003 C 
HETATM   10  C   UNL     1      -3.658  -0.346 -31.940  1.00  0.00     0.001 C 
HETATM   11  C   UNL     1      -3.400   1.155 -32.057  1.00  0.00     0.010 C 
ENDROOT
BRANCH   2  12
HETATM   12  C   UNL     1      -5.669   4.361 -29.500  1.00  0.00     0.338 C 
BRANCH  12  13
HETATM   13  C   UNL     1      -5.390   5.811 -29.085  1.00  0.00     0.248 C 
HETATM   14  N   UNL     1      -4.080   6.206 -29.266  1.00  0.00    -0.319 N 
HETATM   15  H   UNL     1      -3.403   5.550 -29.660  1.00  0.00     0.169 HD
HETATM   16  O   UNL     1      -6.292   6.409 -28.503  1.00  0.00    -0.271 OA
BRANCH  14  17
HETATM   17  C   UNL     1      -3.496   7.373 -28.778  1.00  0.00     0.094 A 
HETATM   18  S   UNL     1      -2.914   7.467 -27.189  1.00  0.00    -0.075 SA
HETATM   19  C   UNL     1      -2.403   9.066 -27.397  1.00  0.00    -0.008 A 
HETATM   20  C   UNL     1      -2.652   9.549 -28.669  1.00  0.00    -0.026 A 
HETATM   21  C   UNL     1      -1.717   9.818 -26.295  1.00  0.00     0.047 C 
HETATM   22  C   UNL     1      -2.254  10.950 -29.056  1.00  0.00     0.041 C 
HETATM   23  C   UNL     1      -3.331   8.562 -29.486  1.00  0.00     0.080 A 
HETATM   24  C   UNL     1      -1.270  11.579 -28.057  1.00  0.00     0.005 C 
HETATM   25  C   UNL     1      -1.686  11.319 -26.606  1.00  0.00     0.005 C 
BRANCH  23  26
HETATM   26  C   UNL     1      -3.779   8.686 -30.878  1.00  0.00     0.296 C 
HETATM   27  O   UNL     1      -4.619   9.519 -31.216  1.00  0.00    -0.259 OA
BRANCH  26  28
HETATM   28  O   UNL     1      -3.187   7.803 -31.725  1.00  0.00    -0.322 OA
HETATM   29  C   UNL     1      -1.891   8.184 -32.188  1.00  0.00     0.213 C 
ENDBRANCH  26  28
ENDBRANCH  23  26
ENDBRANCH  14  17
ENDBRANCH  12  13
ENDBRANCH   2  12
BRANCH   1  30
HETATM   30  C   UNL     1      -3.658   4.149 -32.755  1.00  0.00     0.006 A 
HETATM   31  C   UNL     1      -2.265   4.409 -32.759  1.00  0.00     0.077 A 
HETATM   32  C   UNL     1      -1.659   5.017 -33.870  1.00  0.00     0.037 A 
HETATM   33  C   UNL     1      -2.408   5.363 -34.990  1.00  0.00     0.003 A 
HETATM   34  C   UNL     1      -3.768   5.099 -35.013  1.00  0.00     0.001 A 
HETATM   35  C   UNL     1      -4.380   4.494 -33.913  1.00  0.00     0.012 A 
BRANCH  31  36
HETATM   36  O   UNL     1      -1.570   4.037 -31.632  1.00  0.00    -0.351 OA
BRANCH  36  37
HETATM   37  C   UNL     1      -1.041   5.091 -30.817  1.00  0.00     0.171 C 
HETATM   38  C   UNL     1       0.464   5.134 -31.005  1.00  0.00     0.034 C 
ENDBRANCH  36  37
ENDBRANCH  31  36
ENDBRANCH   1  30
BRANCH   6  39
HETATM   39  O   UNL     1      -5.862   1.956 -33.604  1.00  0.00    -0.389 OA
HETATM   40  H   UNL     1      -6.602   1.547 -34.093  1.00  0.00     0.210 HD
ENDBRANCH   6  39
TORSDOF 9
ENDMDL
MODEL 9
REMARK VINA RESULT:      -8.6      3.521      9.324
REMARK  9 active torsions:
REMARK  status: ('A' for Active; 'I' for Inactive)
REMARK    1  A    between atoms: C_2  and  O_3 
REMARK    2  A    between atoms: O_3  and  C_4 
REMARK    3  A    between atoms: C_5  and  C_6 
REMARK    4  A    between atoms: N_7  and  C_9 
REMARK    5  A    between atoms: C_9  and  C_10 
REMARK       I    between atoms: C_10  and  N_11 
REMARK    6  A    between atoms: N_11  and  C_12 
REMARK    7  A    between atoms: C_20  and  C_21 
REMARK    8  A    between atoms: C_21  and  O_22 
REMARK    9  A    between atoms: C_28  and  O_29 
ROOT
HETATM    1  C   UNL     1      -4.096   4.671 -31.115  1.00  0.00     0.231 C 
HETATM    2  N   UNL     1      -5.067   5.793 -30.711  1.00  0.00    -0.054 N 
HETATM    3  H   UNL     1      -4.709   6.633 -31.201  1.00  0.00     0.281 HD
HETATM    4  C   UNL     1      -6.498   5.632 -31.161  1.00  0.00     0.239 C 
HETATM    5  C   UNL     1      -7.057   4.271 -30.790  1.00  0.00     0.066 C 
HETATM    6  C   UNL     1      -6.182   3.134 -31.320  1.00  0.00     0.065 C 
HETATM    7  C   UNL     1      -4.740   3.294 -30.793  1.00  0.00     0.055 C 
HETATM    8  C   UNL     1      -6.774   1.775 -30.895  1.00  0.00     0.038 C 
HETATM    9  C   UNL     1      -5.881   0.602 -31.299  1.00  0.00     0.003 C 
HETATM   10  C   UNL     1      -4.466   0.771 -30.762  1.00  0.00     0.001 C 
HETATM   11  C   UNL     1      -3.854   2.101 -31.196  1.00  0.00     0.010 C 
ENDROOT
BRANCH   2  12
HETATM   12  C   UNL     1      -4.967   6.208 -29.232  1.00  0.00     0.338 C 
BRANCH  12  13
HETATM   13  C   UNL     1      -3.580   6.807 -28.968  1.00  0.00     0.248 C 
HETATM   14  N   UNL     1      -3.076   6.528 -27.714  1.00  0.00    -0.319 N 
HETATM   15  H   UNL     1      -3.620   5.956 -27.065  1.00  0.00     0.169 HD
HETATM   16  O   UNL     1      -3.137   7.583 -29.812  1.00  0.00    -0.271 OA
BRANCH  14  17
HETATM   17  C   UNL     1      -1.960   7.116 -27.125  1.00  0.00     0.094 A 
HETATM   18  S   UNL     1      -0.389   6.643 -27.550  1.00  0.00    -0.075 SA
HETATM   19  C   UNL     1       0.310   7.753 -26.482  1.00  0.00    -0.008 A 
HETATM   20  C   UNL     1      -0.628   8.505 -25.798  1.00  0.00    -0.026 A 
HETATM   21  C   UNL     1       1.799   7.894 -26.364  1.00  0.00     0.047 C 
HETATM   22  C   UNL     1      -0.203   9.562 -24.812  1.00  0.00     0.041 C 
HETATM   23  C   UNL     1      -1.979   8.110 -26.149  1.00  0.00     0.080 A 
HETATM   24  C   UNL     1       1.284   9.928 -24.948  1.00  0.00     0.005 C 
HETATM   25  C   UNL     1       2.166   8.685 -25.102  1.00  0.00     0.005 C 
BRANCH  23  26
HETATM   26  C   UNL     1      -3.245   8.651 -25.639  1.00  0.00     0.296 C 
HETATM   27  O   UNL     1      -3.603   8.473 -24.476  1.00  0.00    -0.259 OA
BRANCH  26  28
HETATM   28  O   UNL     1      -3.959   9.342 -26.566  1.00  0.00    -0.322 OA
HETATM   29  C   UNL     1      -5.366   9.093 -26.556  1.00  0.00     0.213 C 
ENDBRANCH  26  28
ENDBRANCH  23  26
ENDBRANCH  14  17
ENDBRANCH  12  13
ENDBRANCH   2  12
BRANCH   1  30
HETATM   30  C   UNL     1      -3.425   4.875 -32.477  1.00  0.00     0.006 A 
HETATM   31  C   UNL     1      -2.011   4.877 -32.584  1.00  0.00     0.077 A 
HETATM   32  C   UNL     1      -1.394   5.088 -33.827  1.00  0.00     0.037 A 
HETATM   33  C   UNL     1      -2.154   5.285 -34.977  1.00  0.00     0.003 A 
HETATM   34  C   UNL     1      -3.537   5.266 -34.895  1.00  0.00     0.001 A 
HETATM   35  C   UNL     1      -4.160   5.057 -33.663  1.00  0.00     0.012 A 
BRANCH  31  36
HETATM   36  O   UNL     1      -1.309   4.667 -31.421  1.00  0.00    -0.351 OA
BRANCH  36  37
HETATM   37  C   UNL     1      -0.219   5.557 -31.149  1.00  0.00     0.171 C 
HETATM   38  C   UNL     1       0.895   4.766 -30.490  1.00  0.00     0.034 C 
ENDBRANCH  36  37
ENDBRANCH  31  36
ENDBRANCH   1  30
BRANCH   6  39
HETATM   39  O   UNL     1      -6.184   3.231 -32.742  1.00  0.00    -0.389 OA
HETATM   40  H   UNL     1      -5.738   4.053 -33.024  1.00  0.00     0.210 HD
ENDBRANCH   6  39
TORSDOF 9
ENDMDL
MODEL 10
REMARK VINA RESULT:      -8.5      2.654      9.029
REMARK  9 active torsions:
REMARK  status: ('A' for Active; 'I' for Inactive)
REMARK    1  A    between atoms: C_2  and  O_3 
REMARK    2  A    between atoms: O_3  and  C_4 
REMARK    3  A    between atoms: C_5  and  C_6 
REMARK    4  A    between atoms: N_7  and  C_9 
REMARK    5  A    between atoms: C_9  and  C_10 
REMARK       I    between atoms: C_10  and  N_11 
REMARK    6  A    between atoms: N_11  and  C_12 
REMARK    7  A    between atoms: C_20  and  C_21 
REMARK    8  A    between atoms: C_21  and  O_22 
REMARK    9  A    between atoms: C_28  and  O_29 
ROOT
HETATM    1  C   UNL     1      -7.660   2.204 -34.259  1.00  0.00     0.231 C 
HETATM    2  N   UNL     1      -7.020   3.332 -33.431  1.00  0.00    -0.054 N 
HETATM    3  H   UNL     1      -7.786   4.015 -33.290  1.00  0.00     0.281 HD
HETATM    4  C   UNL     1      -6.544   2.957 -32.050  1.00  0.00     0.239 C 
HETATM    5  C   UNL     1      -5.653   1.729 -32.074  1.00  0.00     0.066 C 
HETATM    6  C   UNL     1      -6.337   0.545 -32.759  1.00  0.00     0.065 C 
HETATM    7  C   UNL     1      -6.758   0.941 -34.190  1.00  0.00     0.055 C 
HETATM    8  C   UNL     1      -5.385  -0.668 -32.785  1.00  0.00     0.038 C 
HETATM    9  C   UNL     1      -5.970  -1.849 -33.559  1.00  0.00     0.003 C 
HETATM   10  C   UNL     1      -6.370  -1.442 -34.971  1.00  0.00     0.001 C 
HETATM   11  C   UNL     1      -7.335  -0.259 -34.964  1.00  0.00     0.010 C 
ENDROOT
BRANCH   2  12
HETATM   12  C   UNL     1      -5.978   4.162 -34.200  1.00  0.00     0.338 C 
BRANCH  12  13
HETATM   13  C   UNL     1      -5.491   5.312 -33.310  1.00  0.00     0.248 C 
HETATM   14  N   UNL     1      -4.231   5.119 -32.779  1.00  0.00    -0.319 N 
HETATM   15  H   UNL     1      -3.711   4.269 -33.006  1.00  0.00     0.169 HD
HETATM   16  O   UNL     1      -6.306   6.191 -33.038  1.00  0.00    -0.271 OA
BRANCH  14  17
HETATM   17  C   UNL     1      -3.636   5.877 -31.774  1.00  0.00     0.094 A 
HETATM   18  S   UNL     1      -4.306   5.960 -30.220  1.00  0.00    -0.075 SA
HETATM   19  C   UNL     1      -3.075   6.981 -29.668  1.00  0.00    -0.008 A 
HETATM   20  C   UNL     1      -2.134   7.265 -30.642  1.00  0.00    -0.026 A 
HETATM   21  C   UNL     1      -3.035   7.461 -28.247  1.00  0.00     0.047 C 
HETATM   22  C   UNL     1      -0.949   8.144 -30.340  1.00  0.00     0.041 C 
HETATM   23  C   UNL     1      -2.477   6.640 -31.905  1.00  0.00     0.080 A 
HETATM   24  C   UNL     1      -0.736   8.346 -28.831  1.00  0.00     0.005 C 
HETATM   25  C   UNL     1      -2.054   8.630 -28.102  1.00  0.00     0.005 C 
BRANCH  23  26
HETATM   26  C   UNL     1      -1.750   6.706 -33.178  1.00  0.00     0.296 C 
HETATM   27  O   UNL     1      -1.616   7.763 -33.793  1.00  0.00    -0.259 OA
BRANCH  26  28
HETATM   28  O   UNL     1      -1.262   5.508 -33.594  1.00  0.00    -0.322 OA
HETATM   29  C   UNL     1      -1.491   5.205 -34.971  1.00  0.00     0.213 C 
ENDBRANCH  26  28
ENDBRANCH  23  26
ENDBRANCH  14  17
ENDBRANCH  12  13
ENDBRANCH   2  12
BRANCH   1  30
HETATM   30  C   UNL     1      -9.171   2.048 -34.055  1.00  0.00     0.006 A 
HETATM   31  C   UNL     1     -10.037   3.152 -34.255  1.00  0.00     0.077 A 
HETATM   32  C   UNL     1     -11.419   3.018 -34.045  1.00  0.00     0.037 A 
HETATM   33  C   UNL     1     -11.965   1.800 -33.652  1.00  0.00     0.003 A 
HETATM   34  C   UNL     1     -11.136   0.704 -33.471  1.00  0.00     0.001 A 
HETATM   35  C   UNL     1      -9.761   0.828 -33.676  1.00  0.00     0.012 A 
BRANCH  31  36
HETATM   36  O   UNL     1      -9.448   4.329 -34.653  1.00  0.00    -0.351 OA
BRANCH  36  37
HETATM   37  C   UNL     1      -9.989   5.542 -34.117  1.00  0.00     0.171 C 
HETATM   38  C   UNL     1     -10.480   6.400 -35.268  1.00  0.00     0.034 C 
ENDBRANCH  36  37
ENDBRANCH  31  36
ENDBRANCH   1  30
BRANCH   6  39
HETATM   39  O   UNL     1      -7.495   0.227 -31.992  1.00  0.00    -0.389 OA
HETATM   40  H   UNL     1      -7.266  -0.405 -31.283  1.00  0.00     0.210 HD
ENDBRANCH   6  39
TORSDOF 9
ENDMDL
