MODEL 1
REMARK VINA RESULT:     -10.3      0.000      0.000
REMARK  9 active torsions:
REMARK  status: ('A' for Active; 'I' for Inactive)
REMARK    1  A    between atoms: C_3  and  C_4 
REMARK    2  A    between atoms: C_4  and  C_5 
REMARK    3  A    between atoms: C_5  and  N_6 
REMARK       I    between atoms: N_6  and  C_7 
REMARK    4  A    between atoms: C_7  and  C_8 
REMARK    5  A    between atoms: C_8  and  C_9 
REMARK    6  A    between atoms: C_9  and  C_10 
REMARK    7  A    between atoms: C_9  and  C_26 
REMARK    8  A    between atoms: C_14  and  C_15 
REMARK    9  A    between atoms: C_28  and  N_29 
ROOT
HETATM    1  C   UNL     1      -4.607  -0.065 -32.406  1.00  0.00     0.062 C 
ENDROOT
BRANCH   1   2
HETATM    2  C   UNL     1      -3.487   0.718 -31.685  1.00  0.00     0.116 C 
BRANCH   2   3
HETATM    3  C   UNL     1      -3.642   2.231 -31.697  1.00  0.00     0.218 C 
HETATM    4  N   UNL     1      -3.215   2.848 -32.849  1.00  0.00    -0.361 N 
HETATM    5  H   UNL     1      -2.862   2.281 -33.612  1.00  0.00     0.162 HD
HETATM    6  O   UNL     1      -4.089   2.848 -30.733  1.00  0.00    -0.274 OA
BRANCH   4   7
HETATM    7  C   UNL     1      -3.215   4.286 -33.033  1.00  0.00     0.128 C 
BRANCH   7   8
HETATM    8  C   UNL     1      -1.839   4.856 -33.392  1.00  0.00     0.079 C 
BRANCH   8   9
HETATM    9  C   UNL     1      -0.968   5.385 -32.277  1.00  0.00     0.035 A 
HETATM   10  C   UNL     1      -0.441   6.674 -32.280  1.00  0.00     0.027 A 
HETATM   11  C   UNL     1       0.277   7.119 -31.172  1.00  0.00     0.003 A 
HETATM   12  C   UNL     1       0.436   6.281 -30.077  1.00  0.00     0.019 A 
HETATM   13  C   UNL     1      -0.130   5.022 -30.139  1.00  0.00     0.117 A 
HETATM   14  N   UNL     1      -0.813   4.554 -31.209  1.00  0.00    -0.266 NA
ENDBRANCH   8   9
ENDBRANCH   7   8
ENDBRANCH   4   7
ENDBRANCH   2   3
ENDBRANCH   1   2
BRANCH   1  15
HETATM   15  C   UNL     1      -5.991   0.198 -31.842  1.00  0.00    -0.021 C 
HETATM   16  C   UNL     1      -7.160   0.381 -32.673  1.00  0.00    -0.001 A 
HETATM   17  C   UNL     1      -8.139   0.989 -31.896  1.00  0.00     0.043 A 
HETATM   18  C   UNL     1      -7.411   0.223 -34.047  1.00  0.00     0.015 A 
HETATM   19  C   UNL     1      -9.301   1.564 -32.442  1.00  0.00     0.044 A 
HETATM   20  N   UNL     1      -7.691   0.956 -30.598  1.00  0.00    -0.365 N 
HETATM   21  C   UNL     1      -9.495   1.517 -33.838  1.00  0.00    -0.005 A 
HETATM   22  C   UNL     1      -8.564   0.791 -34.604  1.00  0.00     0.015 A 
HETATM   23  H   UNL     1      -8.172   1.375 -29.814  1.00  0.00     0.165 HD
HETATM   24  C   UNL     1      -6.425   0.427 -30.548  1.00  0.00     0.097 C 
BRANCH  21  25
HETATM   25  C   UNL     1     -10.588   2.260 -34.518  1.00  0.00     0.066 A 
HETATM   26  N   UNL     1     -10.298   3.552 -34.832  1.00  0.00    -0.260 NA
HETATM   27  C   UNL     1     -11.264   4.314 -35.386  1.00  0.00     0.117 A 
HETATM   28  C   UNL     1     -12.540   3.860 -35.651  1.00  0.00     0.019 A 
HETATM   29  C   UNL     1     -12.836   2.540 -35.342  1.00  0.00     0.004 A 
HETATM   30  C   UNL     1     -11.853   1.729 -34.772  1.00  0.00     0.032 A 
ENDBRANCH  21  25
ENDBRANCH   1  15
BRANCH   1  31
HETATM   31  C   UNL     1      -4.248  -1.547 -32.489  1.00  0.00    -0.047 A 
HETATM   32  C   UNL     1      -4.906  -2.336 -33.456  1.00  0.00     0.043 A 
HETATM   33  C   UNL     1      -4.480  -3.649 -33.719  1.00  0.00     0.103 A 
HETATM   34  C   UNL     1      -3.423  -4.215 -33.002  1.00  0.00     0.036 A 
HETATM   35  C   UNL     1      -2.769  -3.449 -32.042  1.00  0.00     0.003 A 
HETATM   36  C   UNL     1      -3.162  -2.126 -31.812  1.00  0.00     0.008 A 
BRANCH  33  37
HETATM   37  N   UNL     1      -5.112  -4.413 -34.802  1.00  0.00    -0.116 N 
HETATM   38  O   UNL     1      -5.004  -5.648 -34.778  1.00  0.00    -0.532 OA
HETATM   39  O   UNL     1      -5.728  -3.782 -35.674  1.00  0.00    -0.532 OA
ENDBRANCH  33  37
ENDBRANCH   1  31
TORSDOF 9
ENDMDL
MODEL 2
REMARK VINA RESULT:     -10.3      2.617      6.683
REMARK  9 active torsions:
REMARK  status: ('A' for Active; 'I' for Inactive)
REMARK    1  A    between atoms: C_3  and  C_4 
REMARK    2  A    between atoms: C_4  and  C_5 
REMARK    3  A    between atoms: C_5  and  N_6 
REMARK       I    between atoms: N_6  and  C_7 
REMARK    4  A    between atoms: C_7  and  C_8 
REMARK    5  A    between atoms: C_8  and  C_9 
REMARK    6  A    between atoms: C_9  and  C_10 
REMARK    7  A    between atoms: C_9  and  C_26 
REMARK    8  A    between atoms: C_14  and  C_15 
REMARK    9  A    between atoms: C_28  and  N_29 
ROOT
HETATM    1  C   UNL     1      -7.581  -0.137 -33.246  1.00  0.00     0.062 C 
ENDROOT
BRANCH   1   2
HETATM    2  C   UNL     1      -8.354   0.392 -34.475  1.00  0.00     0.116 C 
BRANCH   2   3
HETATM    3  C   UNL     1      -9.685   1.061 -34.166  1.00  0.00     0.218 C 
HETATM    4  N   UNL     1      -9.891   2.262 -34.801  1.00  0.00    -0.361 N 
HETATM    5  H   UNL     1      -9.185   2.612 -35.441  1.00  0.00     0.162 HD
HETATM    6  O   UNL     1     -10.495   0.570 -33.383  1.00  0.00    -0.274 OA
BRANCH   4   7
HETATM    7  C   UNL     1     -11.063   3.088 -34.588  1.00  0.00     0.128 C 
BRANCH   7   8
HETATM    8  C   UNL     1     -10.746   4.447 -33.956  1.00  0.00     0.079 C 
BRANCH   8   9
HETATM    9  C   UNL     1      -9.964   4.473 -32.664  1.00  0.00     0.035 A 
HETATM   10  C   UNL     1      -8.948   5.392 -32.417  1.00  0.00     0.027 A 
HETATM   11  C   UNL     1      -8.336   5.410 -31.165  1.00  0.00     0.003 A 
HETATM   12  C   UNL     1      -8.762   4.530 -30.182  1.00  0.00     0.019 A 
HETATM   13  C   UNL     1      -9.786   3.657 -30.494  1.00  0.00     0.117 A 
HETATM   14  N   UNL     1     -10.385   3.601 -31.706  1.00  0.00    -0.266 NA
ENDBRANCH   8   9
ENDBRANCH   7   8
ENDBRANCH   4   7
ENDBRANCH   2   3
ENDBRANCH   1   2
BRANCH   1  15
HETATM   15  C   UNL     1      -7.151   0.957 -32.284  1.00  0.00    -0.021 C 
HETATM   16  C   UNL     1      -6.516   2.182 -32.717  1.00  0.00    -0.001 A 
HETATM   17  C   UNL     1      -5.903   2.754 -31.609  1.00  0.00     0.043 A 
HETATM   18  C   UNL     1      -6.286   2.767 -33.975  1.00  0.00     0.015 A 
HETATM   19  C   UNL     1      -4.968   3.800 -31.708  1.00  0.00     0.044 A 
HETATM   20  N   UNL     1      -6.342   2.056 -30.510  1.00  0.00    -0.365 N 
HETATM   21  C   UNL     1      -4.638   4.305 -32.983  1.00  0.00    -0.005 A 
HETATM   22  C   UNL     1      -5.355   3.808 -34.087  1.00  0.00     0.015 A 
HETATM   23  H   UNL     1      -6.022   2.214 -29.564  1.00  0.00     0.165 HD
HETATM   24  C   UNL     1      -7.141   1.010 -30.902  1.00  0.00     0.097 C 
BRANCH  21  25
HETATM   25  C   UNL     1      -3.528   5.269 -33.197  1.00  0.00     0.066 A 
HETATM   26  N   UNL     1      -3.595   6.401 -32.446  1.00  0.00    -0.260 NA
HETATM   27  C   UNL     1      -2.662   7.358 -32.636  1.00  0.00     0.117 A 
HETATM   28  C   UNL     1      -1.639   7.257 -33.556  1.00  0.00     0.019 A 
HETATM   29  C   UNL     1      -1.562   6.099 -34.317  1.00  0.00     0.004 A 
HETATM   30  C   UNL     1      -2.512   5.092 -34.136  1.00  0.00     0.032 A 
ENDBRANCH  21  25
ENDBRANCH   1  15
BRANCH   1  31
HETATM   31  C   UNL     1      -6.439  -1.048 -33.689  1.00  0.00    -0.047 A 
HETATM   32  C   UNL     1      -5.301  -1.138 -32.862  1.00  0.00     0.043 A 
HETATM   33  C   UNL     1      -4.310  -2.104 -33.107  1.00  0.00     0.103 A 
HETATM   34  C   UNL     1      -4.412  -2.971 -34.198  1.00  0.00     0.036 A 
HETATM   35  C   UNL     1      -5.528  -2.890 -35.026  1.00  0.00     0.003 A 
HETATM   36  C   UNL     1      -6.537  -1.958 -34.755  1.00  0.00     0.008 A 
BRANCH  33  37
HETATM   37  N   UNL     1      -3.188  -2.247 -32.171  1.00  0.00    -0.116 N 
HETATM   38  O   UNL     1      -2.565  -1.223 -31.855  1.00  0.00    -0.532 OA
HETATM   39  O   UNL     1      -2.935  -3.382 -31.740  1.00  0.00    -0.532 OA
ENDBRANCH  33  37
ENDBRANCH   1  31
TORSDOF 9
ENDMDL
MODEL 3
REMARK VINA RESULT:     -10.3      2.491      8.255
REMARK  9 active torsions:
REMARK  status: ('A' for Active; 'I' for Inactive)
REMARK    1  A    between atoms: C_3  and  C_4 
REMARK    2  A    between atoms: C_4  and  C_5 
REMARK    3  A    between atoms: C_5  and  N_6 
REMARK       I    between atoms: N_6  and  C_7 
REMARK    4  A    between atoms: C_7  and  C_8 
REMARK    5  A    between atoms: C_8  and  C_9 
REMARK    6  A    between atoms: C_9  and  C_10 
REMARK    7  A    between atoms: C_9  and  C_26 
REMARK    8  A    between atoms: C_14  and  C_15 
REMARK    9  A    between atoms: C_28  and  N_29 
ROOT
HETATM    1  C   UNL     1      -7.658  -0.169 -33.205  1.00  0.00     0.062 C 
ENDROOT
BRANCH   1   2
HETATM    2  C   UNL     1      -8.435   0.367 -34.428  1.00  0.00     0.116 C 
BRANCH   2   3
HETATM    3  C   UNL     1      -9.646   1.227 -34.101  1.00  0.00     0.218 C 
HETATM    4  N   UNL     1      -9.741   2.394 -34.822  1.00  0.00    -0.361 N 
HETATM    5  H   UNL     1      -9.041   2.597 -35.528  1.00  0.00     0.162 HD
HETATM    6  O   UNL     1     -10.458   0.908 -33.235  1.00  0.00    -0.274 OA
BRANCH   4   7
HETATM    7  C   UNL     1     -10.782   3.381 -34.613  1.00  0.00     0.128 C 
BRANCH   7   8
HETATM    8  C   UNL     1     -12.115   3.010 -35.270  1.00  0.00     0.079 C 
BRANCH   8   9
HETATM    9  C   UNL     1     -13.214   2.450 -34.398  1.00  0.00     0.035 A 
HETATM   10  C   UNL     1     -13.607   3.049 -33.204  1.00  0.00     0.027 A 
HETATM   11  C   UNL     1     -14.690   2.523 -32.503  1.00  0.00     0.003 A 
HETATM   12  C   UNL     1     -15.371   1.428 -33.014  1.00  0.00     0.019 A 
HETATM   13  C   UNL     1     -14.934   0.897 -34.213  1.00  0.00     0.117 A 
HETATM   14  N   UNL     1     -13.874   1.371 -34.905  1.00  0.00    -0.266 NA
ENDBRANCH   8   9
ENDBRANCH   7   8
ENDBRANCH   4   7
ENDBRANCH   2   3
ENDBRANCH   1   2
BRANCH   1  15
HETATM   15  C   UNL     1      -7.226   0.918 -32.237  1.00  0.00    -0.021 C 
HETATM   16  C   UNL     1      -6.493   2.094 -32.649  1.00  0.00    -0.001 A 
HETATM   17  C   UNL     1      -5.919   2.652 -31.514  1.00  0.00     0.043 A 
HETATM   18  C   UNL     1      -6.147   2.637 -33.899  1.00  0.00     0.015 A 
HETATM   19  C   UNL     1      -4.919   3.640 -31.569  1.00  0.00     0.044 A 
HETATM   20  N   UNL     1      -6.469   2.006 -30.433  1.00  0.00    -0.365 N 
HETATM   21  C   UNL     1      -4.479   4.097 -32.828  1.00  0.00    -0.005 A 
HETATM   22  C   UNL     1      -5.151   3.619 -33.968  1.00  0.00     0.015 A 
HETATM   23  H   UNL     1      -6.202   2.165 -29.471  1.00  0.00     0.165 HD
HETATM   24  C   UNL     1      -7.303   1.000 -30.858  1.00  0.00     0.097 C 
BRANCH  21  25
HETATM   25  C   UNL     1      -3.301   4.989 -32.987  1.00  0.00     0.066 A 
HETATM   26  N   UNL     1      -3.431   5.949 -33.942  1.00  0.00    -0.260 NA
HETATM   27  C   UNL     1      -2.377   6.753 -34.197  1.00  0.00     0.117 A 
HETATM   28  C   UNL     1      -1.166   6.658 -33.542  1.00  0.00     0.019 A 
HETATM   29  C   UNL     1      -1.034   5.687 -32.559  1.00  0.00     0.004 A 
HETATM   30  C   UNL     1      -2.111   4.845 -32.274  1.00  0.00     0.032 A 
ENDBRANCH  21  25
ENDBRANCH   1  15
BRANCH   1  31
HETATM   31  C   UNL     1      -6.517  -1.077 -33.658  1.00  0.00    -0.047 A 
HETATM   32  C   UNL     1      -5.359  -1.138 -32.857  1.00  0.00     0.043 A 
HETATM   33  C   UNL     1      -4.363  -2.098 -33.107  1.00  0.00     0.103 A 
HETATM   34  C   UNL     1      -4.481  -2.987 -34.179  1.00  0.00     0.036 A 
HETATM   35  C   UNL     1      -5.617  -2.933 -34.981  1.00  0.00     0.003 A 
HETATM   36  C   UNL     1      -6.630  -2.008 -34.704  1.00  0.00     0.008 A 
BRANCH  33  37
HETATM   37  N   UNL     1      -3.218  -2.211 -32.195  1.00  0.00    -0.116 N 
HETATM   38  O   UNL     1      -2.599  -1.175 -31.914  1.00  0.00    -0.532 OA
HETATM   39  O   UNL     1      -2.943  -3.335 -31.748  1.00  0.00    -0.532 OA
ENDBRANCH  33  37
ENDBRANCH   1  31
TORSDOF 9
ENDMDL
MODEL 4
REMARK VINA RESULT:     -10.2      3.247      6.875
REMARK  9 active torsions:
REMARK  status: ('A' for Active; 'I' for Inactive)
REMARK    1  A    between atoms: C_3  and  C_4 
REMARK    2  A    between atoms: C_4  and  C_5 
REMARK    3  A    between atoms: C_5  and  N_6 
REMARK       I    between atoms: N_6  and  C_7 
REMARK    4  A    between atoms: C_7  and  C_8 
REMARK    5  A    between atoms: C_8  and  C_9 
REMARK    6  A    between atoms: C_9  and  C_10 
REMARK    7  A    between atoms: C_9  and  C_26 
REMARK    8  A    between atoms: C_14  and  C_15 
REMARK    9  A    between atoms: C_28  and  N_29 
ROOT
HETATM    1  C   UNL     1      -9.601   3.691 -33.198  1.00  0.00     0.062 C 
ENDROOT
BRANCH   1   2
HETATM    2  C   UNL     1      -8.765   4.666 -34.056  1.00  0.00     0.116 C 
BRANCH   2   3
HETATM    3  C   UNL     1      -8.019   5.740 -33.279  1.00  0.00     0.218 C 
HETATM    4  N   UNL     1      -6.650   5.690 -33.389  1.00  0.00    -0.361 N 
HETATM    5  H   UNL     1      -6.226   4.987 -33.984  1.00  0.00     0.162 HD
HETATM    6  O   UNL     1      -8.605   6.567 -32.583  1.00  0.00    -0.274 OA
BRANCH   4   7
HETATM    7  C   UNL     1      -5.757   6.581 -32.673  1.00  0.00     0.128 C 
BRANCH   7   8
HETATM    8  C   UNL     1      -4.406   5.946 -32.330  1.00  0.00     0.079 C 
BRANCH   8   9
HETATM    9  C   UNL     1      -4.370   4.473 -31.998  1.00  0.00     0.035 A 
HETATM   10  C   UNL     1      -3.628   3.552 -32.734  1.00  0.00     0.027 A 
HETATM   11  C   UNL     1      -3.573   2.227 -32.308  1.00  0.00     0.003 A 
HETATM   12  C   UNL     1      -4.238   1.850 -31.150  1.00  0.00     0.019 A 
HETATM   13  C   UNL     1      -4.940   2.822 -30.463  1.00  0.00     0.117 A 
HETATM   14  N   UNL     1      -5.030   4.111 -30.862  1.00  0.00    -0.266 NA
ENDBRANCH   8   9
ENDBRANCH   7   8
ENDBRANCH   4   7
ENDBRANCH   2   3
ENDBRANCH   1   2
BRANCH   1  15
HETATM   15  C   UNL     1      -8.758   2.738 -32.369  1.00  0.00    -0.021 C 
HETATM   16  C   UNL     1      -7.866   1.762 -32.954  1.00  0.00    -0.001 A 
HETATM   17  C   UNL     1      -7.577   0.817 -31.978  1.00  0.00     0.043 A 
HETATM   18  C   UNL     1      -7.409   1.523 -34.261  1.00  0.00     0.015 A 
HETATM   19  C   UNL     1      -6.966  -0.417 -32.265  1.00  0.00     0.044 A 
HETATM   20  N   UNL     1      -8.058   1.313 -30.791  1.00  0.00    -0.365 N 
HETATM   21  C   UNL     1      -6.620  -0.714 -33.600  1.00  0.00    -0.005 A 
HETATM   22  C   UNL     1      -6.801   0.297 -34.562  1.00  0.00     0.015 A 
HETATM   23  H   UNL     1      -8.039   0.817 -29.910  1.00  0.00     0.165 HD
HETATM   24  C   UNL     1      -8.718   2.498 -31.007  1.00  0.00     0.097 C 
BRANCH  21  25
HETATM   25  C   UNL     1      -6.152  -2.059 -34.023  1.00  0.00     0.066 A 
HETATM   26  N   UNL     1      -4.821  -2.284 -33.856  1.00  0.00    -0.260 NA
HETATM   27  C   UNL     1      -4.306  -3.457 -34.284  1.00  0.00     0.117 A 
HETATM   28  C   UNL     1      -5.054  -4.447 -34.888  1.00  0.00     0.019 A 
HETATM   29  C   UNL     1      -6.414  -4.224 -35.051  1.00  0.00     0.004 A 
HETATM   30  C   UNL     1      -6.972  -3.022 -34.613  1.00  0.00     0.032 A 
ENDBRANCH  21  25
ENDBRANCH   1  15
BRANCH   1  31
HETATM   31  C   UNL     1     -10.650   2.993 -34.059  1.00  0.00    -0.047 A 
HETATM   32  C   UNL     1     -11.257   1.826 -33.551  1.00  0.00     0.043 A 
HETATM   33  C   UNL     1     -12.366   1.253 -34.198  1.00  0.00     0.103 A 
HETATM   34  C   UNL     1     -12.866   1.805 -35.380  1.00  0.00     0.036 A 
HETATM   35  C   UNL     1     -12.272   2.954 -35.896  1.00  0.00     0.003 A 
HETATM   36  C   UNL     1     -11.198   3.550 -35.227  1.00  0.00     0.008 A 
BRANCH  33  37
HETATM   37  N   UNL     1     -13.045   0.102 -33.593  1.00  0.00    -0.116 N 
HETATM   38  O   UNL     1     -14.285   0.104 -33.577  1.00  0.00    -0.532 OA
HETATM   39  O   UNL     1     -12.341  -0.815 -33.142  1.00  0.00    -0.532 OA
ENDBRANCH  33  37
ENDBRANCH   1  31
TORSDOF 9
ENDMDL
MODEL 5
REMARK VINA RESULT:     -10.1      2.922      6.366
REMARK  9 active torsions:
REMARK  status: ('A' for Active; 'I' for Inactive)
REMARK    1  A    between atoms: C_3  and  C_4 
REMARK    2  A    between atoms: C_4  and  C_5 
REMARK    3  A    between atoms: C_5  and  N_6 
REMARK       I    between atoms: N_6  and  C_7 
REMARK    4  A    between atoms: C_7  and  C_8 
REMARK    5  A    between atoms: C_8  and  C_9 
REMARK    6  A    between atoms: C_9  and  C_10 
REMARK    7  A    between atoms: C_9  and  C_26 
REMARK    8  A    between atoms: C_14  and  C_15 
REMARK    9  A    between atoms: C_28  and  N_29 
ROOT
HETATM    1  C   UNL     1      -7.899   3.496 -32.651  1.00  0.00     0.062 C 
ENDROOT
BRANCH   1   2
HETATM    2  C   UNL     1      -7.565   4.460 -33.812  1.00  0.00     0.116 C 
BRANCH   2   3
HETATM    3  C   UNL     1      -6.258   5.224 -33.667  1.00  0.00     0.218 C 
HETATM    4  N   UNL     1      -5.202   4.710 -34.382  1.00  0.00    -0.361 N 
HETATM    5  H   UNL     1      -5.352   3.898 -34.971  1.00  0.00     0.162 HD
HETATM    6  O   UNL     1      -6.156   6.209 -32.938  1.00  0.00    -0.274 OA
BRANCH   4   7
HETATM    7  C   UNL     1      -3.859   5.252 -34.326  1.00  0.00     0.128 C 
BRANCH   7   8
HETATM    8  C   UNL     1      -2.912   4.443 -33.433  1.00  0.00     0.079 C 
BRANCH   8   9
HETATM    9  C   UNL     1      -1.811   5.177 -32.705  1.00  0.00     0.035 A 
HETATM   10  C   UNL     1      -1.414   6.468 -33.043  1.00  0.00     0.027 A 
HETATM   11  C   UNL     1      -0.455   7.112 -32.263  1.00  0.00     0.003 A 
HETATM   12  C   UNL     1       0.072   6.467 -31.154  1.00  0.00     0.019 A 
HETATM   13  C   UNL     1      -0.381   5.193 -30.871  1.00  0.00     0.117 A 
HETATM   14  N   UNL     1      -1.295   4.534 -31.620  1.00  0.00    -0.266 NA
ENDBRANCH   8   9
ENDBRANCH   7   8
ENDBRANCH   4   7
ENDBRANCH   2   3
ENDBRANCH   1   2
BRANCH   1  15
HETATM   15  C   UNL     1      -6.737   2.605 -32.250  1.00  0.00    -0.021 C 
HETATM   16  C   UNL     1      -6.312   1.466 -33.033  1.00  0.00    -0.001 A 
HETATM   17  C   UNL     1      -5.532   0.659 -32.214  1.00  0.00     0.043 A 
HETATM   18  C   UNL     1      -6.648   0.982 -34.309  1.00  0.00     0.015 A 
HETATM   19  C   UNL     1      -5.178  -0.660 -32.552  1.00  0.00     0.044 A 
HETATM   20  N   UNL     1      -5.283   1.378 -31.071  1.00  0.00    -0.365 N 
HETATM   21  C   UNL     1      -5.621  -1.193 -33.780  1.00  0.00    -0.005 A 
HETATM   22  C   UNL     1      -6.303  -0.330 -34.659  1.00  0.00     0.015 A 
HETATM   23  H   UNL     1      -4.782   1.025 -30.267  1.00  0.00     0.165 HD
HETATM   24  C   UNL     1      -5.955   2.576 -31.110  1.00  0.00     0.097 C 
BRANCH  21  25
HETATM   25  C   UNL     1      -5.460  -2.627 -34.133  1.00  0.00     0.066 A 
HETATM   26  N   UNL     1      -4.281  -3.185 -33.750  1.00  0.00    -0.260 NA
HETATM   27  C   UNL     1      -4.029  -4.465 -34.098  1.00  0.00     0.117 A 
HETATM   28  C   UNL     1      -4.902  -5.247 -34.827  1.00  0.00     0.019 A 
HETATM   29  C   UNL     1      -6.112  -4.683 -35.211  1.00  0.00     0.004 A 
HETATM   30  C   UNL     1      -6.398  -3.362 -34.860  1.00  0.00     0.032 A 
ENDBRANCH  21  25
ENDBRANCH   1  15
BRANCH   1  31
HETATM   31  C   UNL     1      -9.186   2.732 -32.950  1.00  0.00    -0.047 A 
HETATM   32  C   UNL     1     -10.050   3.248 -33.938  1.00  0.00     0.043 A 
HETATM   33  C   UNL     1     -11.141   2.493 -34.401  1.00  0.00     0.103 A 
HETATM   34  C   UNL     1     -11.417   1.232 -33.866  1.00  0.00     0.036 A 
HETATM   35  C   UNL     1     -10.575   0.714 -32.886  1.00  0.00     0.003 A 
HETATM   36  C   UNL     1      -9.461   1.446 -32.457  1.00  0.00     0.008 A 
BRANCH  33  37
HETATM   37  N   UNL     1     -11.963   3.007 -35.504  1.00  0.00    -0.116 N 
HETATM   38  O   UNL     1     -11.810   4.191 -35.836  1.00  0.00    -0.532 OA
HETATM   39  O   UNL     1     -12.755   2.223 -36.049  1.00  0.00    -0.532 OA
ENDBRANCH  33  37
ENDBRANCH   1  31
TORSDOF 9
ENDMDL
MODEL 6
REMARK VINA RESULT:     -10.0      3.256      8.489
REMARK  9 active torsions:
REMARK  status: ('A' for Active; 'I' for Inactive)
REMARK    1  A    between atoms: C_3  and  C_4 
REMARK    2  A    between atoms: C_4  and  C_5 
REMARK    3  A    between atoms: C_5  and  N_6 
REMARK       I    between atoms: N_6  and  C_7 
REMARK    4  A    between atoms: C_7  and  C_8 
REMARK    5  A    between atoms: C_8  and  C_9 
REMARK    6  A    between atoms: C_9  and  C_10 
REMARK    7  A    between atoms: C_9  and  C_26 
REMARK    8  A    between atoms: C_14  and  C_15 
REMARK    9  A    between atoms: C_28  and  N_29 
ROOT
HETATM    1  C   UNL     1      -5.787   4.352 -32.144  1.00  0.00     0.062 C 
ENDROOT
BRANCH   1   2
HETATM    2  C   UNL     1      -7.038   5.254 -32.048  1.00  0.00     0.116 C 
BRANCH   2   3
HETATM    3  C   UNL     1      -8.167   4.901 -33.004  1.00  0.00     0.218 C 
HETATM    4  N   UNL     1      -9.144   4.091 -32.475  1.00  0.00    -0.361 N 
HETATM    5  H   UNL     1      -9.078   3.807 -31.504  1.00  0.00     0.162 HD
HETATM    6  O   UNL     1      -8.181   5.293 -34.169  1.00  0.00    -0.274 OA
BRANCH   4   7
HETATM    7  C   UNL     1     -10.267   3.589 -33.242  1.00  0.00     0.128 C 
BRANCH   7   8
HETATM    8  C   UNL     1     -10.376   2.061 -33.235  1.00  0.00     0.079 C 
BRANCH   8   9
HETATM    9  C   UNL     1      -9.157   1.253 -33.613  1.00  0.00     0.035 A 
HETATM   10  C   UNL     1      -8.954  -0.054 -33.178  1.00  0.00     0.027 A 
HETATM   11  C   UNL     1      -7.850  -0.764 -33.644  1.00  0.00     0.003 A 
HETATM   12  C   UNL     1      -6.984  -0.167 -34.549  1.00  0.00     0.019 A 
HETATM   13  C   UNL     1      -7.258   1.127 -34.949  1.00  0.00     0.117 A 
HETATM   14  N   UNL     1      -8.309   1.849 -34.497  1.00  0.00    -0.266 NA
ENDBRANCH   8   9
ENDBRANCH   7   8
ENDBRANCH   4   7
ENDBRANCH   2   3
ENDBRANCH   1   2
BRANCH   1  15
HETATM   15  C   UNL     1      -5.902   3.068 -31.342  1.00  0.00    -0.021 C 
HETATM   16  C   UNL     1      -5.079   1.906 -31.591  1.00  0.00    -0.001 A 
HETATM   17  C   UNL     1      -5.695   0.815 -30.989  1.00  0.00     0.043 A 
HETATM   18  C   UNL     1      -3.955   1.666 -32.400  1.00  0.00     0.015 A 
HETATM   19  C   UNL     1      -5.326  -0.515 -31.256  1.00  0.00     0.044 A 
HETATM   20  N   UNL     1      -6.705   1.315 -30.204  1.00  0.00    -0.365 N 
HETATM   21  C   UNL     1      -4.278  -0.764 -32.166  1.00  0.00    -0.005 A 
HETATM   22  C   UNL     1      -3.577   0.345 -32.675  1.00  0.00     0.015 A 
HETATM   23  H   UNL     1      -7.362   0.750 -29.684  1.00  0.00     0.165 HD
HETATM   24  C   UNL     1      -6.798   2.676 -30.363  1.00  0.00     0.097 C 
BRANCH  21  25
HETATM   25  C   UNL     1      -3.950  -2.130 -32.652  1.00  0.00     0.066 A 
HETATM   26  N   UNL     1      -4.527  -2.474 -33.834  1.00  0.00    -0.260 NA
HETATM   27  C   UNL     1      -4.336  -3.725 -34.306  1.00  0.00     0.117 A 
HETATM   28  C   UNL     1      -3.586  -4.682 -33.655  1.00  0.00     0.019 A 
HETATM   29  C   UNL     1      -2.986  -4.330 -32.453  1.00  0.00     0.004 A 
HETATM   30  C   UNL     1      -3.165  -3.042 -31.946  1.00  0.00     0.032 A 
ENDBRANCH  21  25
ENDBRANCH   1  15
BRANCH   1  31
HETATM   31  C   UNL     1      -4.528   5.158 -31.836  1.00  0.00    -0.047 A 
HETATM   32  C   UNL     1      -3.674   5.491 -32.908  1.00  0.00     0.043 A 
HETATM   33  C   UNL     1      -2.614   6.396 -32.726  1.00  0.00     0.103 A 
HETATM   34  C   UNL     1      -2.359   6.955 -31.471  1.00  0.00     0.036 A 
HETATM   35  C   UNL     1      -3.191   6.630 -30.404  1.00  0.00     0.003 A 
HETATM   36  C   UNL     1      -4.274   5.765 -30.595  1.00  0.00     0.008 A 
BRANCH  33  37
HETATM   37  N   UNL     1      -1.806   6.808 -33.880  1.00  0.00    -0.116 N 
HETATM   38  O   UNL     1      -1.696   8.023 -34.105  1.00  0.00    -0.532 OA
HETATM   39  O   UNL     1      -1.268   5.920 -34.557  1.00  0.00    -0.532 OA
ENDBRANCH  33  37
ENDBRANCH   1  31
TORSDOF 9
ENDMDL
MODEL 7
REMARK VINA RESULT:     -10.0      1.549      2.853
REMARK  9 active torsions:
REMARK  status: ('A' for Active; 'I' for Inactive)
REMARK    1  A    between atoms: C_3  and  C_4 
REMARK    2  A    between atoms: C_4  and  C_5 
REMARK    3  A    between atoms: C_5  and  N_6 
REMARK       I    between atoms: N_6  and  C_7 
REMARK    4  A    between atoms: C_7  and  C_8 
REMARK    5  A    between atoms: C_8  and  C_9 
REMARK    6  A    between atoms: C_9  and  C_10 
REMARK    7  A    between atoms: C_9  and  C_26 
REMARK    8  A    between atoms: C_14  and  C_15 
REMARK    9  A    between atoms: C_28  and  N_29 
ROOT
HETATM    1  C   UNL     1      -4.546   0.099 -32.323  1.00  0.00     0.062 C 
ENDROOT
BRANCH   1   2
HETATM    2  C   UNL     1      -3.398   0.849 -31.612  1.00  0.00     0.116 C 
BRANCH   2   3
HETATM    3  C   UNL     1      -3.432   2.364 -31.744  1.00  0.00     0.218 C 
HETATM    4  N   UNL     1      -2.667   2.874 -32.767  1.00  0.00    -0.361 N 
HETATM    5  H   UNL     1      -2.164   2.236 -33.374  1.00  0.00     0.162 HD
HETATM    6  O   UNL     1      -4.075   3.072 -30.972  1.00  0.00    -0.274 OA
BRANCH   4   7
HETATM    7  C   UNL     1      -2.512   4.294 -33.018  1.00  0.00     0.128 C 
BRANCH   7   8
HETATM    8  C   UNL     1      -3.413   4.817 -34.142  1.00  0.00     0.079 C 
BRANCH   8   9
HETATM    9  C   UNL     1      -4.876   5.043 -33.843  1.00  0.00     0.035 A 
HETATM   10  C   UNL     1      -5.862   4.113 -34.160  1.00  0.00     0.027 A 
HETATM   11  C   UNL     1      -7.177   4.354 -33.769  1.00  0.00     0.003 A 
HETATM   12  C   UNL     1      -7.479   5.503 -33.053  1.00  0.00     0.019 A 
HETATM   13  C   UNL     1      -6.446   6.372 -32.760  1.00  0.00     0.117 A 
HETATM   14  N   UNL     1      -5.164   6.176 -33.144  1.00  0.00    -0.266 NA
ENDBRANCH   8   9
ENDBRANCH   7   8
ENDBRANCH   4   7
ENDBRANCH   2   3
ENDBRANCH   1   2
BRANCH   1  15
HETATM   15  C   UNL     1      -5.916   0.391 -31.736  1.00  0.00    -0.021 C 
HETATM   16  C   UNL     1      -7.106   0.534 -32.545  1.00  0.00    -0.001 A 
HETATM   17  C   UNL     1      -8.064   1.180 -31.775  1.00  0.00     0.043 A 
HETATM   18  C   UNL     1      -7.392   0.307 -33.903  1.00  0.00     0.015 A 
HETATM   19  C   UNL     1      -9.241   1.728 -32.318  1.00  0.00     0.044 A 
HETATM   20  N   UNL     1      -7.584   1.211 -30.489  1.00  0.00    -0.365 N 
HETATM   21  C   UNL     1      -9.471   1.612 -33.705  1.00  0.00    -0.005 A 
HETATM   22  C   UNL     1      -8.560   0.848 -34.457  1.00  0.00     0.015 A 
HETATM   23  H   UNL     1      -8.044   1.668 -29.714  1.00  0.00     0.165 HD
HETATM   24  C   UNL     1      -6.316   0.684 -30.445  1.00  0.00     0.097 C 
BRANCH  21  25
HETATM   25  C   UNL     1     -10.581   2.321 -34.392  1.00  0.00     0.066 A 
HETATM   26  N   UNL     1     -11.690   1.567 -34.624  1.00  0.00    -0.260 NA
HETATM   27  C   UNL     1     -12.714   2.120 -35.308  1.00  0.00     0.117 A 
HETATM   28  C   UNL     1     -12.704   3.412 -35.792  1.00  0.00     0.019 A 
HETATM   29  C   UNL     1     -11.579   4.187 -35.547  1.00  0.00     0.004 A 
HETATM   30  C   UNL     1     -10.507   3.641 -34.838  1.00  0.00     0.032 A 
ENDBRANCH  21  25
ENDBRANCH   1  15
BRANCH   1  31
HETATM   31  C   UNL     1      -4.225  -1.390 -32.423  1.00  0.00    -0.047 A 
HETATM   32  C   UNL     1      -4.874  -2.144 -33.422  1.00  0.00     0.043 A 
HETATM   33  C   UNL     1      -4.476  -3.464 -33.697  1.00  0.00     0.103 A 
HETATM   34  C   UNL     1      -3.455  -4.070 -32.960  1.00  0.00     0.036 A 
HETATM   35  C   UNL     1      -2.810  -3.339 -31.967  1.00  0.00     0.003 A 
HETATM   36  C   UNL     1      -3.175  -2.010 -31.724  1.00  0.00     0.008 A 
BRANCH  33  37
HETATM   37  N   UNL     1      -5.095  -4.191 -34.812  1.00  0.00    -0.116 N 
HETATM   38  O   UNL     1      -5.090  -5.430 -34.767  1.00  0.00    -0.532 OA
HETATM   39  O   UNL     1      -5.597  -3.526 -35.729  1.00  0.00    -0.532 OA
ENDBRANCH  33  37
ENDBRANCH   1  31
TORSDOF 9
ENDMDL
MODEL 8
REMARK VINA RESULT:      -9.7      3.026      8.494
REMARK  9 active torsions:
REMARK  status: ('A' for Active; 'I' for Inactive)
REMARK    1  A    between atoms: C_3  and  C_4 
REMARK    2  A    between atoms: C_4  and  C_5 
REMARK    3  A    between atoms: C_5  and  N_6 
REMARK       I    between atoms: N_6  and  C_7 
REMARK    4  A    between atoms: C_7  and  C_8 
REMARK    5  A    between atoms: C_8  and  C_9 
REMARK    6  A    between atoms: C_9  and  C_10 
REMARK    7  A    between atoms: C_9  and  C_26 
REMARK    8  A    between atoms: C_14  and  C_15 
REMARK    9  A    between atoms: C_28  and  N_29 
ROOT
HETATM    1  C   UNL     1      -8.858   1.936 -33.408  1.00  0.00     0.062 C 
ENDROOT
BRANCH   1   2
HETATM    2  C   UNL     1      -8.767   0.696 -32.490  1.00  0.00     0.116 C 
BRANCH   2   3
HETATM    3  C   UNL     1      -7.389   0.419 -31.909  1.00  0.00     0.218 C 
HETATM    4  N   UNL     1      -6.461  -0.042 -32.813  1.00  0.00    -0.361 N 
HETATM    5  H   UNL     1      -6.725  -0.140 -33.787  1.00  0.00     0.162 HD
HETATM    6  O   UNL     1      -7.142   0.571 -30.715  1.00  0.00    -0.274 OA
BRANCH   4   7
HETATM    7  C   UNL     1      -5.112  -0.428 -32.447  1.00  0.00     0.128 C 
BRANCH   7   8
HETATM    8  C   UNL     1      -4.350  -1.130 -33.575  1.00  0.00     0.079 C 
BRANCH   8   9
HETATM    9  C   UNL     1      -4.883  -2.445 -34.091  1.00  0.00     0.035 A 
HETATM   10  C   UNL     1      -4.173  -3.638 -33.989  1.00  0.00     0.027 A 
HETATM   11  C   UNL     1      -4.771  -4.825 -34.406  1.00  0.00     0.003 A 
HETATM   12  C   UNL     1      -6.069  -4.803 -34.895  1.00  0.00     0.019 A 
HETATM   13  C   UNL     1      -6.718  -3.585 -34.951  1.00  0.00     0.117 A 
HETATM   14  N   UNL     1      -6.157  -2.413 -34.575  1.00  0.00    -0.266 NA
ENDBRANCH   8   9
ENDBRANCH   7   8
ENDBRANCH   4   7
ENDBRANCH   2   3
ENDBRANCH   1   2
BRANCH   1  15
HETATM   15  C   UNL     1      -8.454   3.229 -32.723  1.00  0.00    -0.021 C 
HETATM   16  C   UNL     1      -7.278   3.984 -33.095  1.00  0.00    -0.001 A 
HETATM   17  C   UNL     1      -6.981   4.846 -32.047  1.00  0.00     0.043 A 
HETATM   18  C   UNL     1      -6.363   3.898 -34.159  1.00  0.00     0.015 A 
HETATM   19  C   UNL     1      -5.757   5.531 -31.943  1.00  0.00     0.044 A 
HETATM   20  N   UNL     1      -8.051   4.806 -31.186  1.00  0.00    -0.365 N 
HETATM   21  C   UNL     1      -4.784   5.347 -32.947  1.00  0.00    -0.005 A 
HETATM   22  C   UNL     1      -5.139   4.573 -34.067  1.00  0.00     0.015 A 
HETATM   23  H   UNL     1      -8.096   5.294 -30.302  1.00  0.00     0.165 HD
HETATM   24  C   UNL     1      -8.969   3.879 -31.616  1.00  0.00     0.097 C 
BRANCH  21  25
HETATM   25  C   UNL     1      -3.400   5.873 -32.824  1.00  0.00     0.066 A 
HETATM   26  N   UNL     1      -2.880   5.835 -31.568  1.00  0.00    -0.260 NA
HETATM   27  C   UNL     1      -1.654   6.362 -31.360  1.00  0.00     0.117 A 
HETATM   28  C   UNL     1      -0.892   6.944 -32.353  1.00  0.00     0.019 A 
HETATM   29  C   UNL     1      -1.416   6.975 -33.639  1.00  0.00     0.004 A 
HETATM   30  C   UNL     1      -2.680   6.433 -33.880  1.00  0.00     0.032 A 
ENDBRANCH  21  25
ENDBRANCH   1  15
BRANCH   1  31
HETATM   31  C   UNL     1     -10.228   1.999 -34.079  1.00  0.00    -0.047 A 
HETATM   32  C   UNL     1     -11.164   0.989 -33.773  1.00  0.00     0.043 A 
HETATM   33  C   UNL     1     -12.500   1.098 -34.195  1.00  0.00     0.103 A 
HETATM   34  C   UNL     1     -12.922   2.189 -34.959  1.00  0.00     0.036 A 
HETATM   35  C   UNL     1     -12.006   3.190 -35.272  1.00  0.00     0.003 A 
HETATM   36  C   UNL     1     -10.687   3.105 -34.814  1.00  0.00     0.008 A 
BRANCH  33  37
HETATM   37  N   UNL     1     -13.479   0.088 -33.775  1.00  0.00    -0.116 N 
HETATM   38  O   UNL     1     -14.681   0.353 -33.919  1.00  0.00    -0.532 OA
HETATM   39  O   UNL     1     -13.047  -0.978 -33.311  1.00  0.00    -0.532 OA
ENDBRANCH  33  37
ENDBRANCH   1  31
TORSDOF 9
ENDMDL
MODEL 9
REMARK VINA RESULT:      -9.6      4.132      6.932
REMARK  9 active torsions:
REMARK  status: ('A' for Active; 'I' for Inactive)
REMARK    1  A    between atoms: C_3  and  C_4 
REMARK    2  A    between atoms: C_4  and  C_5 
REMARK    3  A    between atoms: C_5  and  N_6 
REMARK       I    between atoms: N_6  and  C_7 
REMARK    4  A    between atoms: C_7  and  C_8 
REMARK    5  A    between atoms: C_8  and  C_9 
REMARK    6  A    between atoms: C_9  and  C_10 
REMARK    7  A    between atoms: C_9  and  C_26 
REMARK    8  A    between atoms: C_14  and  C_15 
REMARK    9  A    between atoms: C_28  and  N_29 
ROOT
HETATM    1  C   UNL     1      -5.578   4.872 -31.117  1.00  0.00     0.062 C 
ENDROOT
BRANCH   1   2
HETATM    2  C   UNL     1      -5.644   4.348 -29.665  1.00  0.00     0.116 C 
BRANCH   2   3
HETATM    3  C   UNL     1      -5.702   5.422 -28.589  1.00  0.00     0.218 C 
HETATM    4  N   UNL     1      -4.551   6.158 -28.443  1.00  0.00    -0.361 N 
HETATM    5  H   UNL     1      -3.764   5.975 -29.056  1.00  0.00     0.162 HD
HETATM    6  O   UNL     1      -6.699   5.591 -27.889  1.00  0.00    -0.274 OA
BRANCH   4   7
HETATM    7  C   UNL     1      -4.380   7.182 -27.430  1.00  0.00     0.128 C 
BRANCH   7   8
HETATM    8  C   UNL     1      -3.220   8.139 -27.719  1.00  0.00     0.079 C 
BRANCH   8   9
HETATM    9  C   UNL     1      -1.861   7.551 -28.017  1.00  0.00     0.035 A 
HETATM   10  C   UNL     1      -1.112   7.914 -29.133  1.00  0.00     0.027 A 
HETATM   11  C   UNL     1       0.172   7.394 -29.289  1.00  0.00     0.003 A 
HETATM   12  C   UNL     1       0.689   6.544 -28.324  1.00  0.00     0.019 A 
HETATM   13  C   UNL     1      -0.106   6.241 -27.235  1.00  0.00     0.117 A 
HETATM   14  N   UNL     1      -1.363   6.712 -27.066  1.00  0.00    -0.266 NA
ENDBRANCH   8   9
ENDBRANCH   7   8
ENDBRANCH   4   7
ENDBRANCH   2   3
ENDBRANCH   1   2
BRANCH   1  15
HETATM   15  C   UNL     1      -6.463   4.102 -32.080  1.00  0.00    -0.021 C 
HETATM   16  C   UNL     1      -6.485   2.658 -32.148  1.00  0.00    -0.001 A 
HETATM   17  C   UNL     1      -7.063   2.301 -33.360  1.00  0.00     0.043 A 
HETATM   18  C   UNL     1      -5.929   1.638 -31.356  1.00  0.00     0.015 A 
HETATM   19  C   UNL     1      -6.999   0.997 -33.883  1.00  0.00     0.044 A 
HETATM   20  N   UNL     1      -7.593   3.448 -33.899  1.00  0.00    -0.365 N 
HETATM   21  C   UNL     1      -6.330  -0.003 -33.147  1.00  0.00    -0.005 A 
HETATM   22  C   UNL     1      -5.858   0.335 -31.865  1.00  0.00     0.015 A 
HETATM   23  H   UNL     1      -8.032   3.506 -34.807  1.00  0.00     0.165 HD
HETATM   24  C   UNL     1      -7.289   4.527 -33.105  1.00  0.00     0.097 C 
BRANCH  21  25
HETATM   25  C   UNL     1      -6.047  -1.351 -33.705  1.00  0.00     0.066 A 
HETATM   26  N   UNL     1      -4.735  -1.709 -33.710  1.00  0.00    -0.260 NA
HETATM   27  C   UNL     1      -4.389  -2.889 -34.267  1.00  0.00     0.117 A 
HETATM   28  C   UNL     1      -5.294  -3.760 -34.838  1.00  0.00     0.019 A 
HETATM   29  C   UNL     1      -6.636  -3.403 -34.825  1.00  0.00     0.004 A 
HETATM   30  C   UNL     1      -7.019  -2.189 -34.252  1.00  0.00     0.032 A 
ENDBRANCH  21  25
ENDBRANCH   1  15
BRANCH   1  31
HETATM   31  C   UNL     1      -4.126   4.984 -31.573  1.00  0.00    -0.047 A 
HETATM   32  C   UNL     1      -3.724   6.168 -32.226  1.00  0.00     0.043 A 
HETATM   33  C   UNL     1      -2.367   6.417 -32.489  1.00  0.00     0.103 A 
HETATM   34  C   UNL     1      -1.388   5.481 -32.144  1.00  0.00     0.036 A 
HETATM   35  C   UNL     1      -1.771   4.306 -31.504  1.00  0.00     0.003 A 
HETATM   36  C   UNL     1      -3.118   4.078 -31.201  1.00  0.00     0.008 A 
BRANCH  33  37
HETATM   37  N   UNL     1      -1.964   7.702 -33.074  1.00  0.00    -0.116 N 
HETATM   38  O   UNL     1      -1.924   8.690 -32.326  1.00  0.00    -0.532 OA
HETATM   39  O   UNL     1      -1.676   7.725 -34.280  1.00  0.00    -0.532 OA
ENDBRANCH  33  37
ENDBRANCH   1  31
TORSDOF 9
ENDMDL
MODEL 10
REMARK VINA RESULT:      -9.6      1.522      2.042
REMARK  9 active torsions:
REMARK  status: ('A' for Active; 'I' for Inactive)
REMARK    1  A    between atoms: C_3  and  C_4 
REMARK    2  A    between atoms: C_4  and  C_5 
REMARK    3  A    between atoms: C_5  and  N_6 
REMARK       I    between atoms: N_6  and  C_7 
REMARK    4  A    between atoms: C_7  and  C_8 
REMARK    5  A    between atoms: C_8  and  C_9 
REMARK    6  A    between atoms: C_9  and  C_10 
REMARK    7  A    between atoms: C_9  and  C_26 
REMARK    8  A    between atoms: C_14  and  C_15 
REMARK    9  A    between atoms: C_28  and  N_29 
ROOT
HETATM    1  C   UNL     1      -5.592   0.478 -33.233  1.00  0.00     0.062 C 
ENDROOT
BRANCH   1   2
HETATM    2  C   UNL     1      -4.283   0.804 -32.478  1.00  0.00     0.116 C 
BRANCH   2   3
HETATM    3  C   UNL     1      -4.128   2.254 -32.044  1.00  0.00     0.218 C 
HETATM    4  N   UNL     1      -4.071   3.164 -33.072  1.00  0.00    -0.361 N 
HETATM    5  H   UNL     1      -4.161   2.838 -34.028  1.00  0.00     0.162 HD
HETATM    6  O   UNL     1      -4.034   2.573 -30.861  1.00  0.00    -0.274 OA
BRANCH   4   7
HETATM    7  C   UNL     1      -3.858   4.585 -32.871  1.00  0.00     0.128 C 
BRANCH   7   8
HETATM    8  C   UNL     1      -2.521   5.086 -33.425  1.00  0.00     0.079 C 
BRANCH   8   9
HETATM    9  C   UNL     1      -1.431   5.451 -32.445  1.00  0.00     0.035 A 
HETATM   10  C   UNL     1      -0.732   6.654 -32.509  1.00  0.00     0.027 A 
HETATM   11  C   UNL     1       0.196   6.956 -31.514  1.00  0.00     0.003 A 
HETATM   12  C   UNL     1       0.392   6.067 -30.468  1.00  0.00     0.019 A 
HETATM   13  C   UNL     1      -0.349   4.901 -30.462  1.00  0.00     0.117 A 
HETATM   14  N   UNL     1      -1.240   4.569 -31.424  1.00  0.00    -0.266 NA
ENDBRANCH   8   9
ENDBRANCH   7   8
ENDBRANCH   4   7
ENDBRANCH   2   3
ENDBRANCH   1   2
BRANCH   1  15
HETATM   15  C   UNL     1      -6.843   0.719 -32.408  1.00  0.00    -0.021 C 
HETATM   16  C   UNL     1      -8.064   1.256 -32.965  1.00  0.00    -0.001 A 
HETATM   17  C   UNL     1      -8.840   1.722 -31.911  1.00  0.00     0.043 A 
HETATM   18  C   UNL     1      -8.500   1.522 -34.275  1.00  0.00     0.015 A 
HETATM   19  C   UNL     1      -9.962   2.550 -32.095  1.00  0.00     0.044 A 
HETATM   20  N   UNL     1      -8.248   1.273 -30.756  1.00  0.00    -0.365 N 
HETATM   21  C   UNL     1     -10.329   2.923 -33.405  1.00  0.00    -0.005 A 
HETATM   22  C   UNL     1      -9.615   2.347 -34.472  1.00  0.00     0.015 A 
HETATM   23  H   UNL     1      -8.563   1.502 -29.823  1.00  0.00     0.165 HD
HETATM   24  C   UNL     1      -7.077   0.617 -31.048  1.00  0.00     0.097 C 
BRANCH  21  25
HETATM   25  C   UNL     1     -11.374   3.942 -33.682  1.00  0.00     0.066 A 
HETATM   26  N   UNL     1     -12.100   4.331 -32.599  1.00  0.00    -0.260 NA
HETATM   27  C   UNL     1     -13.117   5.200 -32.782  1.00  0.00     0.117 A 
HETATM   28  C   UNL     1     -13.468   5.720 -34.011  1.00  0.00     0.019 A 
HETATM   29  C   UNL     1     -12.722   5.334 -35.116  1.00  0.00     0.004 A 
HETATM   30  C   UNL     1     -11.663   4.439 -34.953  1.00  0.00     0.032 A 
ENDBRANCH  21  25
ENDBRANCH   1  15
BRANCH   1  31
HETATM   31  C   UNL     1      -5.517  -0.919 -33.843  1.00  0.00    -0.047 A 
HETATM   32  C   UNL     1      -4.484  -1.777 -33.413  1.00  0.00     0.043 A 
HETATM   33  C   UNL     1      -4.478  -3.134 -33.780  1.00  0.00     0.103 A 
HETATM   34  C   UNL     1      -5.475  -3.653 -34.611  1.00  0.00     0.036 A 
HETATM   35  C   UNL     1      -6.498  -2.816 -35.047  1.00  0.00     0.003 A 
HETATM   36  C   UNL     1      -6.529  -1.476 -34.644  1.00  0.00     0.008 A 
BRANCH  33  37
HETATM   37  N   UNL     1      -3.451  -4.029 -33.235  1.00  0.00    -0.116 N 
HETATM   38  O   UNL     1      -3.060  -4.964 -33.950  1.00  0.00    -0.532 OA
HETATM   39  O   UNL     1      -3.024  -3.794 -32.095  1.00  0.00    -0.532 OA
ENDBRANCH  33  37
ENDBRANCH   1  31
TORSDOF 9
ENDMDL
