MODEL 1
REMARK VINA RESULT:      -8.7      0.000      0.000
REMARK  7 active torsions:
REMARK  status: ('A' for Active; 'I' for Inactive)
REMARK    1  A    between atoms: C_2  and  C_3 
REMARK    2  A    between atoms: C_6  and  O_7 
REMARK    3  A    between atoms: O_7  and  C_8 
REMARK    4  A    between atoms: C_8  and  C_9 
REMARK    5  A    between atoms: C_9  and  C_10 
REMARK       I    between atoms: C_10  and  N_11 
REMARK    6  A    between atoms: N_11  and  C_12 
REMARK    7  A    between atoms: C_19  and  C_20 
REMARK       I    between atoms: C_20  and  N_21 
ROOT
HETATM    1  C   UNL     1      -6.080   2.917 -30.970  1.00  0.00     0.224 C 
HETATM    2  N   UNL     1      -4.967   2.744 -31.771  1.00  0.00    -0.327 N 
HETATM    3  O   UNL     1      -6.635   3.981 -30.719  1.00  0.00    -0.273 OA
HETATM    4  H   UNL     1      -4.578   1.804 -31.799  1.00  0.00     0.169 HD
ENDROOT
BRANCH   2   5
HETATM    5  C   UNL     1      -4.253   3.730 -32.483  1.00  0.00     0.035 A 
HETATM    6  C   UNL     1      -2.991   4.204 -32.098  1.00  0.00     0.046 A 
HETATM    7  C   UNL     1      -2.364   5.211 -32.864  1.00  0.00     0.030 A 
HETATM    8  C   UNL     1      -3.008   5.690 -33.998  1.00  0.00     0.063 A 
HETATM    9  C   UNL     1      -1.148   5.956 -32.789  1.00  0.00     0.156 A 
HETATM   10  N   UNL     1      -2.164   6.625 -34.527  1.00  0.00    -0.277 N 
HETATM   11  C   UNL     1      -4.262   5.237 -34.411  1.00  0.00     0.034 A 
HETATM   12  H   UNL     1      -2.306   7.175 -35.367  1.00  0.00     0.189 HD
HETATM   13  N   UNL     1      -1.037   6.820 -33.824  1.00  0.00    -0.168 NA
HETATM   14  C   UNL     1      -4.875   4.257 -33.622  1.00  0.00     0.032 A 
BRANCH   9  15
HETATM   15  C   UNL     1      -0.107   5.875 -31.754  1.00  0.00     0.270 C 
HETATM   16  N   UNL     1       0.314   7.091 -31.289  1.00  0.00    -0.365 N 
HETATM   17  H   UNL     1      -0.119   7.928 -31.663  1.00  0.00     0.159 HD
HETATM   18  H   UNL     1       1.002   7.132 -30.555  1.00  0.00     0.159 HD
HETATM   19  O   UNL     1       0.358   4.832 -31.309  1.00  0.00    -0.266 OA
ENDBRANCH   9  15
ENDBRANCH   2   5
BRANCH   1  20
HETATM   20  C   UNL     1      -6.636   1.619 -30.411  1.00  0.00     0.130 C 
BRANCH  20  21
HETATM   21  C   UNL     1      -7.596   0.930 -31.372  1.00  0.00     0.185 C 
BRANCH  21  22
HETATM   22  O   UNL     1      -7.049   1.061 -32.694  1.00  0.00    -0.351 OA
BRANCH  22  23
HETATM   23  C   UNL     1      -6.552  -0.102 -33.214  1.00  0.00     0.068 A 
HETATM   24  C   UNL     1      -7.476  -0.938 -33.837  1.00  0.00     0.037 A 
HETATM   25  C   UNL     1      -7.057  -2.137 -34.419  1.00  0.00     0.010 A 
HETATM   26  C   UNL     1      -5.704  -2.501 -34.412  1.00  0.00    -0.055 A 
HETATM   27  C   UNL     1      -4.783  -1.638 -33.798  1.00  0.00     0.010 A 
HETATM   28  C   UNL     1      -5.203  -0.442 -33.205  1.00  0.00     0.037 A 
BRANCH  26  29
HETATM   29  C   UNL     1      -5.221  -3.798 -35.037  1.00  0.00     0.010 C 
HETATM   30  C   UNL     1      -6.380  -4.704 -35.463  1.00  0.00     0.015 C 
HETATM   31  C   UNL     1      -4.272  -4.539 -34.092  1.00  0.00     0.015 C 
ENDBRANCH  26  29
ENDBRANCH  22  23
ENDBRANCH  21  22
ENDBRANCH  20  21
ENDBRANCH   1  20
TORSDOF 7
ENDMDL
MODEL 2
REMARK VINA RESULT:      -8.6      4.382      7.544
REMARK  7 active torsions:
REMARK  status: ('A' for Active; 'I' for Inactive)
REMARK    1  A    between atoms: C_2  and  C_3 
REMARK    2  A    between atoms: C_6  and  O_7 
REMARK    3  A    between atoms: O_7  and  C_8 
REMARK    4  A    between atoms: C_8  and  C_9 
REMARK    5  A    between atoms: C_9  and  C_10 
REMARK       I    between atoms: C_10  and  N_11 
REMARK    6  A    between atoms: N_11  and  C_12 
REMARK    7  A    between atoms: C_19  and  C_20 
REMARK       I    between atoms: C_20  and  N_21 
ROOT
HETATM    1  C   UNL     1      -7.705   3.329 -31.868  1.00  0.00     0.224 C 
HETATM    2  N   UNL     1      -8.071   3.096 -33.180  1.00  0.00    -0.327 N 
HETATM    3  O   UNL     1      -8.465   3.535 -30.927  1.00  0.00    -0.273 OA
HETATM    4  H   UNL     1      -7.309   3.037 -33.852  1.00  0.00     0.169 HD
ENDROOT
BRANCH   2   5
HETATM    5  C   UNL     1      -9.374   3.018 -33.713  1.00  0.00     0.035 A 
HETATM    6  C   UNL     1     -10.243   1.943 -33.483  1.00  0.00     0.046 A 
HETATM    7  C   UNL     1     -11.523   1.945 -34.080  1.00  0.00     0.030 A 
HETATM    8  C   UNL     1     -11.896   3.029 -34.864  1.00  0.00     0.063 A 
HETATM    9  C   UNL     1     -12.642   1.059 -34.121  1.00  0.00     0.156 A 
HETATM   10  N   UNL     1     -13.168   2.756 -35.281  1.00  0.00    -0.277 N 
HETATM   11  C   UNL     1     -11.056   4.117 -35.111  1.00  0.00     0.034 A 
HETATM   12  H   UNL     1     -13.761   3.335 -35.865  1.00  0.00     0.189 HD
HETATM   13  N   UNL     1     -13.651   1.575 -34.861  1.00  0.00    -0.168 NA
HETATM   14  C   UNL     1      -9.784   4.080 -34.529  1.00  0.00     0.032 A 
BRANCH   9  15
HETATM   15  C   UNL     1     -12.765  -0.263 -33.490  1.00  0.00     0.270 C 
HETATM   16  N   UNL     1     -14.043  -0.751 -33.460  1.00  0.00    -0.365 N 
HETATM   17  H   UNL     1     -14.783  -0.197 -33.878  1.00  0.00     0.159 HD
HETATM   18  H   UNL     1     -14.218  -1.666 -33.076  1.00  0.00     0.159 HD
HETATM   19  O   UNL     1     -11.830  -0.910 -33.031  1.00  0.00    -0.266 OA
ENDBRANCH   9  15
ENDBRANCH   2   5
BRANCH   1  20
HETATM   20  C   UNL     1      -6.205   3.276 -31.634  1.00  0.00     0.130 C 
BRANCH  20  21
HETATM   21  C   UNL     1      -5.657   1.856 -31.662  1.00  0.00     0.185 C 
BRANCH  21  22
HETATM   22  O   UNL     1      -6.768   0.970 -31.876  1.00  0.00    -0.351 OA
BRANCH  22  23
HETATM   23  C   UNL     1      -6.481  -0.108 -32.666  1.00  0.00     0.068 A 
HETATM   24  C   UNL     1      -5.200  -0.640 -32.535  1.00  0.00     0.037 A 
HETATM   25  C   UNL     1      -4.824  -1.758 -33.283  1.00  0.00     0.010 A 
HETATM   26  C   UNL     1      -5.735  -2.378 -34.150  1.00  0.00    -0.055 A 
HETATM   27  C   UNL     1      -7.028  -1.842 -34.255  1.00  0.00     0.010 A 
HETATM   28  C   UNL     1      -7.402  -0.715 -33.514  1.00  0.00     0.037 A 
BRANCH  26  29
HETATM   29  C   UNL     1      -5.353  -3.594 -34.975  1.00  0.00     0.010 C 
HETATM   30  C   UNL     1      -6.563  -4.470 -35.312  1.00  0.00     0.015 C 
HETATM   31  C   UNL     1      -4.268  -4.412 -34.272  1.00  0.00     0.015 C 
ENDBRANCH  26  29
ENDBRANCH  22  23
ENDBRANCH  21  22
ENDBRANCH  20  21
ENDBRANCH   1  20
TORSDOF 7
ENDMDL
MODEL 3
REMARK VINA RESULT:      -8.5      1.843      2.196
REMARK  7 active torsions:
REMARK  status: ('A' for Active; 'I' for Inactive)
REMARK    1  A    between atoms: C_2  and  C_3 
REMARK    2  A    between atoms: C_6  and  O_7 
REMARK    3  A    between atoms: O_7  and  C_8 
REMARK    4  A    between atoms: C_8  and  C_9 
REMARK    5  A    between atoms: C_9  and  C_10 
REMARK       I    between atoms: C_10  and  N_11 
REMARK    6  A    between atoms: N_11  and  C_12 
REMARK    7  A    between atoms: C_19  and  C_20 
REMARK       I    between atoms: C_20  and  N_21 
ROOT
HETATM    1  C   UNL     1      -5.487   3.154 -30.616  1.00  0.00     0.224 C 
HETATM    2  N   UNL     1      -4.145   3.171 -30.945  1.00  0.00    -0.327 N 
HETATM    3  O   UNL     1      -6.307   4.030 -30.867  1.00  0.00    -0.273 OA
HETATM    4  H   UNL     1      -3.586   2.404 -30.578  1.00  0.00     0.169 HD
ENDROOT
BRANCH   2   5
HETATM    5  C   UNL     1      -3.440   4.167 -31.651  1.00  0.00     0.035 A 
HETATM    6  C   UNL     1      -3.388   5.510 -31.253  1.00  0.00     0.046 A 
HETATM    7  C   UNL     1      -2.673   6.440 -32.040  1.00  0.00     0.030 A 
HETATM    8  C   UNL     1      -2.020   5.992 -33.181  1.00  0.00     0.063 A 
HETATM    9  C   UNL     1      -2.421   7.845 -31.999  1.00  0.00     0.156 A 
HETATM   10  N   UNL     1      -1.416   7.097 -33.711  1.00  0.00    -0.277 N 
HETATM   11  C   UNL     1      -2.049   4.662 -33.604  1.00  0.00     0.034 A 
HETATM   12  H   UNL     1      -0.842   7.141 -34.545  1.00  0.00     0.189 HD
HETATM   13  N   UNL     1      -1.639   8.234 -33.033  1.00  0.00    -0.168 NA
HETATM   14  C   UNL     1      -2.784   3.764 -32.821  1.00  0.00     0.032 A 
BRANCH   9  15
HETATM   15  C   UNL     1      -2.915   8.819 -31.015  1.00  0.00     0.270 C 
HETATM   16  N   UNL     1      -2.385   8.665 -29.762  1.00  0.00    -0.365 N 
HETATM   17  H   UNL     1      -1.702   7.932 -29.612  1.00  0.00     0.159 HD
HETATM   18  H   UNL     1      -2.642   9.308 -29.031  1.00  0.00     0.159 HD
HETATM   19  O   UNL     1      -3.718   9.713 -31.256  1.00  0.00    -0.266 OA
ENDBRANCH   9  15
ENDBRANCH   2   5
BRANCH   1  20
HETATM   20  C   UNL     1      -5.925   1.884 -29.909  1.00  0.00     0.130 C 
BRANCH  20  21
HETATM   21  C   UNL     1      -6.569   0.878 -30.854  1.00  0.00     0.185 C 
BRANCH  21  22
HETATM   22  O   UNL     1      -5.941   1.031 -32.137  1.00  0.00    -0.351 OA
BRANCH  22  23
HETATM   23  C   UNL     1      -5.858  -0.124 -32.862  1.00  0.00     0.068 A 
HETATM   24  C   UNL     1      -4.628  -0.778 -32.835  1.00  0.00     0.037 A 
HETATM   25  C   UNL     1      -4.455  -1.979 -33.525  1.00  0.00     0.010 A 
HETATM   26  C   UNL     1      -5.520  -2.559 -34.229  1.00  0.00    -0.055 A 
HETATM   27  C   UNL     1      -6.759  -1.899 -34.230  1.00  0.00     0.010 A 
HETATM   28  C   UNL     1      -6.930  -0.689 -33.547  1.00  0.00     0.037 A 
BRANCH  26  29
HETATM   29  C   UNL     1      -5.361  -3.864 -34.989  1.00  0.00     0.010 C 
HETATM   30  C   UNL     1      -6.709  -4.492 -35.353  1.00  0.00     0.015 C 
HETATM   31  C   UNL     1      -4.496  -4.852 -34.203  1.00  0.00     0.015 C 
ENDBRANCH  26  29
ENDBRANCH  22  23
ENDBRANCH  21  22
ENDBRANCH  20  21
ENDBRANCH   1  20
TORSDOF 7
ENDMDL
MODEL 4
REMARK VINA RESULT:      -8.3      2.115      2.786
REMARK  7 active torsions:
REMARK  status: ('A' for Active; 'I' for Inactive)
REMARK    1  A    between atoms: C_2  and  C_3 
REMARK    2  A    between atoms: C_6  and  O_7 
REMARK    3  A    between atoms: O_7  and  C_8 
REMARK    4  A    between atoms: C_8  and  C_9 
REMARK    5  A    between atoms: C_9  and  C_10 
REMARK       I    between atoms: C_10  and  N_11 
REMARK    6  A    between atoms: N_11  and  C_12 
REMARK    7  A    between atoms: C_19  and  C_20 
REMARK       I    between atoms: C_20  and  N_21 
ROOT
HETATM    1  C   UNL     1      -7.978   4.193 -33.023  1.00  0.00     0.224 C 
HETATM    2  N   UNL     1      -6.775   3.731 -33.523  1.00  0.00    -0.327 N 
HETATM    3  O   UNL     1      -8.149   4.754 -31.946  1.00  0.00    -0.273 OA
HETATM    4  H   UNL     1      -6.825   3.205 -34.393  1.00  0.00     0.169 HD
ENDROOT
BRANCH   2   5
HETATM    5  C   UNL     1      -5.500   3.823 -32.929  1.00  0.00     0.035 A 
HETATM    6  C   UNL     1      -4.451   4.588 -33.456  1.00  0.00     0.046 A 
HETATM    7  C   UNL     1      -3.200   4.599 -32.799  1.00  0.00     0.030 A 
HETATM    8  C   UNL     1      -3.050   3.865 -31.629  1.00  0.00     0.063 A 
HETATM    9  C   UNL     1      -1.923   5.195 -33.026  1.00  0.00     0.156 A 
HETATM   10  N   UNL     1      -1.763   4.082 -31.227  1.00  0.00    -0.277 N 
HETATM   11  C   UNL     1      -4.075   3.095 -31.076  1.00  0.00     0.034 A 
HETATM   12  H   UNL     1      -1.307   3.710 -30.402  1.00  0.00     0.189 HD
HETATM   13  N   UNL     1      -1.049   4.872 -32.045  1.00  0.00    -0.168 NA
HETATM   14  C   UNL     1      -5.297   3.080 -31.758  1.00  0.00     0.032 A 
BRANCH   9  15
HETATM   15  C   UNL     1      -1.516   6.046 -34.154  1.00  0.00     0.270 C 
HETATM   16  N   UNL     1      -0.906   5.367 -35.174  1.00  0.00    -0.365 N 
HETATM   17  H   UNL     1      -0.800   4.363 -35.091  1.00  0.00     0.159 HD
HETATM   18  H   UNL     1      -0.622   5.864 -36.003  1.00  0.00     0.159 HD
HETATM   19  O   UNL     1      -1.700   7.256 -34.221  1.00  0.00    -0.266 OA
ENDBRANCH   9  15
ENDBRANCH   2   5
BRANCH   1  20
HETATM   20  C   UNL     1      -9.150   3.986 -33.966  1.00  0.00     0.130 C 
BRANCH  20  21
HETATM   21  C   UNL     1      -9.546   2.521 -34.097  1.00  0.00     0.185 C 
BRANCH  21  22
HETATM   22  O   UNL     1      -8.820   1.788 -33.097  1.00  0.00    -0.351 OA
BRANCH  22  23
HETATM   23  C   UNL     1      -8.074   0.754 -33.590  1.00  0.00     0.068 A 
HETATM   24  C   UNL     1      -7.291   0.068 -32.665  1.00  0.00     0.037 A 
HETATM   25  C   UNL     1      -6.513  -1.018 -33.071  1.00  0.00     0.010 A 
HETATM   26  C   UNL     1      -6.533  -1.453 -34.404  1.00  0.00    -0.055 A 
HETATM   27  C   UNL     1      -7.343  -0.764 -35.320  1.00  0.00     0.010 A 
HETATM   28  C   UNL     1      -8.114   0.332 -34.915  1.00  0.00     0.037 A 
BRANCH  26  29
HETATM   29  C   UNL     1      -5.698  -2.631 -34.873  1.00  0.00     0.010 C 
HETATM   30  C   UNL     1      -6.503  -3.933 -34.914  1.00  0.00     0.015 C 
HETATM   31  C   UNL     1      -4.446  -2.793 -34.008  1.00  0.00     0.015 C 
ENDBRANCH  26  29
ENDBRANCH  22  23
ENDBRANCH  21  22
ENDBRANCH  20  21
ENDBRANCH   1  20
TORSDOF 7
ENDMDL
MODEL 5
REMARK VINA RESULT:      -8.2      3.431      7.329
REMARK  7 active torsions:
REMARK  status: ('A' for Active; 'I' for Inactive)
REMARK    1  A    between atoms: C_2  and  C_3 
REMARK    2  A    between atoms: C_6  and  O_7 
REMARK    3  A    between atoms: O_7  and  C_8 
REMARK    4  A    between atoms: C_8  and  C_9 
REMARK    5  A    between atoms: C_9  and  C_10 
REMARK       I    between atoms: C_10  and  N_11 
REMARK    6  A    between atoms: N_11  and  C_12 
REMARK    7  A    between atoms: C_19  and  C_20 
REMARK       I    between atoms: C_20  and  N_21 
ROOT
HETATM    1  C   UNL     1      -8.395   1.423 -31.586  1.00  0.00     0.224 C 
HETATM    2  N   UNL     1      -7.234   1.365 -32.334  1.00  0.00    -0.327 N 
HETATM    3  O   UNL     1      -9.180   0.501 -31.392  1.00  0.00    -0.273 OA
HETATM    4  H   UNL     1      -6.746   2.247 -32.469  1.00  0.00     0.169 HD
ENDROOT
BRANCH   2   5
HETATM    5  C   UNL     1      -6.692   0.248 -33.003  1.00  0.00     0.035 A 
HETATM    6  C   UNL     1      -5.633  -0.520 -32.501  1.00  0.00     0.046 A 
HETATM    7  C   UNL     1      -5.144  -1.607 -33.258  1.00  0.00     0.030 A 
HETATM    8  C   UNL     1      -5.745  -1.902 -34.475  1.00  0.00     0.063 A 
HETATM    9  C   UNL     1      -4.100  -2.572 -33.119  1.00  0.00     0.156 A 
HETATM   10  N   UNL     1      -5.077  -2.994 -34.954  1.00  0.00    -0.277 N 
HETATM   11  C   UNL     1      -6.803  -1.160 -35.003  1.00  0.00     0.034 A 
HETATM   12  H   UNL     1      -5.255  -3.490 -35.820  1.00  0.00     0.189 HD
HETATM   13  N   UNL     1      -4.075  -3.424 -34.170  1.00  0.00    -0.168 NA
HETATM   14  C   UNL     1      -7.253  -0.072 -34.247  1.00  0.00     0.032 A 
BRANCH   9  15
HETATM   15  C   UNL     1      -3.125  -2.690 -32.025  1.00  0.00     0.270 C 
HETATM   16  N   UNL     1      -2.506  -1.514 -31.699  1.00  0.00    -0.365 N 
HETATM   17  H   UNL     1      -2.768  -0.673 -32.201  1.00  0.00     0.159 HD
HETATM   18  H   UNL     1      -1.846  -1.493 -30.938  1.00  0.00     0.159 HD
HETATM   19  O   UNL     1      -2.870  -3.727 -31.423  1.00  0.00    -0.266 OA
ENDBRANCH   9  15
ENDBRANCH   2   5
BRANCH   1  20
HETATM   20  C   UNL     1      -8.640   2.777 -30.945  1.00  0.00     0.130 C 
BRANCH  20  21
HETATM   21  C   UNL     1      -7.651   3.836 -31.413  1.00  0.00     0.185 C 
BRANCH  21  22
HETATM   22  O   UNL     1      -6.488   3.741 -30.574  1.00  0.00    -0.351 OA
BRANCH  22  23
HETATM   23  C   UNL     1      -5.308   3.974 -31.223  1.00  0.00     0.068 A 
HETATM   24  C   UNL     1      -5.168   5.229 -31.810  1.00  0.00     0.037 A 
HETATM   25  C   UNL     1      -3.987   5.567 -32.474  1.00  0.00     0.010 A 
HETATM   26  C   UNL     1      -2.916   4.664 -32.532  1.00  0.00    -0.055 A 
HETATM   27  C   UNL     1      -3.064   3.411 -31.917  1.00  0.00     0.010 A 
HETATM   28  C   UNL     1      -4.252   3.067 -31.261  1.00  0.00     0.037 A 
BRANCH  26  29
HETATM   29  C   UNL     1      -1.621   5.005 -33.246  1.00  0.00     0.010 C 
HETATM   30  C   UNL     1      -0.979   6.287 -32.706  1.00  0.00     0.015 C 
HETATM   31  C   UNL     1      -1.839   5.103 -34.758  1.00  0.00     0.015 C 
ENDBRANCH  26  29
ENDBRANCH  22  23
ENDBRANCH  21  22
ENDBRANCH  20  21
ENDBRANCH   1  20
TORSDOF 7
ENDMDL
MODEL 6
REMARK VINA RESULT:      -8.1      4.258      7.337
REMARK  7 active torsions:
REMARK  status: ('A' for Active; 'I' for Inactive)
REMARK    1  A    between atoms: C_2  and  C_3 
REMARK    2  A    between atoms: C_6  and  O_7 
REMARK    3  A    between atoms: O_7  and  C_8 
REMARK    4  A    between atoms: C_8  and  C_9 
REMARK    5  A    between atoms: C_9  and  C_10 
REMARK       I    between atoms: C_10  and  N_11 
REMARK    6  A    between atoms: N_11  and  C_12 
REMARK    7  A    between atoms: C_19  and  C_20 
REMARK       I    between atoms: C_20  and  N_21 
ROOT
HETATM    1  C   UNL     1      -7.575   2.584 -31.133  1.00  0.00     0.224 C 
HETATM    2  N   UNL     1      -7.986   2.052 -32.340  1.00  0.00    -0.327 N 
HETATM    3  O   UNL     1      -8.301   2.941 -30.211  1.00  0.00    -0.273 OA
HETATM    4  H   UNL     1      -7.256   1.896 -33.032  1.00  0.00     0.169 HD
ENDROOT
BRANCH   2   5
HETATM    5  C   UNL     1      -9.304   1.782 -32.762  1.00  0.00     0.035 A 
HETATM    6  C   UNL     1     -10.220   2.777 -33.132  1.00  0.00     0.046 A 
HETATM    7  C   UNL     1     -11.527   2.409 -33.519  1.00  0.00     0.030 A 
HETATM    8  C   UNL     1     -11.865   1.062 -33.544  1.00  0.00     0.063 A 
HETATM    9  C   UNL     1     -12.715   3.094 -33.916  1.00  0.00     0.156 A 
HETATM   10  N   UNL     1     -13.164   1.021 -33.966  1.00  0.00    -0.277 N 
HETATM   11  C   UNL     1     -10.977   0.046 -33.185  1.00  0.00     0.034 A 
HETATM   12  H   UNL     1     -13.736   0.197 -34.111  1.00  0.00     0.189 HD
HETATM   13  N   UNL     1     -13.714   2.225 -34.194  1.00  0.00    -0.168 NA
HETATM   14  C   UNL     1      -9.696   0.437 -32.781  1.00  0.00     0.032 A 
BRANCH   9  15
HETATM   15  C   UNL     1     -12.923   4.546 -34.020  1.00  0.00     0.270 C 
HETATM   16  N   UNL     1     -13.255   4.974 -35.277  1.00  0.00    -0.365 N 
HETATM   17  H   UNL     1     -13.349   4.284 -36.014  1.00  0.00     0.159 HD
HETATM   18  H   UNL     1     -13.448   5.949 -35.436  1.00  0.00     0.159 HD
HETATM   19  O   UNL     1     -12.832   5.335 -33.087  1.00  0.00    -0.266 OA
ENDBRANCH   9  15
ENDBRANCH   2   5
BRANCH   1  20
HETATM   20  C   UNL     1      -6.066   2.674 -30.989  1.00  0.00     0.130 C 
BRANCH  20  21
HETATM   21  C   UNL     1      -5.365   1.365 -31.328  1.00  0.00     0.185 C 
BRANCH  21  22
HETATM   22  O   UNL     1      -5.296   1.273 -32.760  1.00  0.00    -0.351 OA
BRANCH  22  23
HETATM   23  C   UNL     1      -5.248  -0.007 -33.239  1.00  0.00     0.068 A 
HETATM   24  C   UNL     1      -6.276  -0.377 -34.102  1.00  0.00     0.037 A 
HETATM   25  C   UNL     1      -6.298  -1.657 -34.661  1.00  0.00     0.010 A 
HETATM   26  C   UNL     1      -5.274  -2.574 -34.387  1.00  0.00    -0.055 A 
HETATM   27  C   UNL     1      -4.234  -2.179 -33.530  1.00  0.00     0.010 A 
HETATM   28  C   UNL     1      -4.218  -0.900 -32.962  1.00  0.00     0.037 A 
BRANCH  26  29
HETATM   29  C   UNL     1      -5.273  -3.972 -34.980  1.00  0.00     0.010 C 
HETATM   30  C   UNL     1      -6.688  -4.486 -35.258  1.00  0.00     0.015 C 
HETATM   31  C   UNL     1      -4.509  -4.946 -34.080  1.00  0.00     0.015 C 
ENDBRANCH  26  29
ENDBRANCH  22  23
ENDBRANCH  21  22
ENDBRANCH  20  21
ENDBRANCH   1  20
TORSDOF 7
ENDMDL
MODEL 7
REMARK VINA RESULT:      -8.0      4.606      6.692
REMARK  7 active torsions:
REMARK  status: ('A' for Active; 'I' for Inactive)
REMARK    1  A    between atoms: C_2  and  C_3 
REMARK    2  A    between atoms: C_6  and  O_7 
REMARK    3  A    between atoms: O_7  and  C_8 
REMARK    4  A    between atoms: C_8  and  C_9 
REMARK    5  A    between atoms: C_9  and  C_10 
REMARK       I    between atoms: C_10  and  N_11 
REMARK    6  A    between atoms: N_11  and  C_12 
REMARK    7  A    between atoms: C_19  and  C_20 
REMARK       I    between atoms: C_20  and  N_21 
ROOT
HETATM    1  C   UNL     1      -7.765   1.770 -31.384  1.00  0.00     0.224 C 
HETATM    2  N   UNL     1      -8.440   1.085 -32.376  1.00  0.00    -0.327 N 
HETATM    3  O   UNL     1      -8.018   2.899 -30.979  1.00  0.00    -0.273 OA
HETATM    4  H   UNL     1      -8.040   0.192 -32.654  1.00  0.00     0.169 HD
ENDROOT
BRANCH   2   5
HETATM    5  C   UNL     1      -9.565   1.514 -33.110  1.00  0.00     0.035 A 
HETATM    6  C   UNL     1      -9.655   2.769 -33.729  1.00  0.00     0.046 A 
HETATM    7  C   UNL     1     -10.834   3.117 -34.425  1.00  0.00     0.030 A 
HETATM    8  C   UNL     1     -11.869   2.193 -34.495  1.00  0.00     0.063 A 
HETATM    9  C   UNL     1     -11.314   4.262 -35.129  1.00  0.00     0.156 A 
HETATM   10  N   UNL     1     -12.847   2.799 -35.232  1.00  0.00    -0.277 N 
HETATM   11  C   UNL     1     -11.811   0.935 -33.893  1.00  0.00     0.034 A 
HETATM   12  H   UNL     1     -13.747   2.413 -35.493  1.00  0.00     0.189 HD
HETATM   13  N   UNL     1     -12.555   4.049 -35.626  1.00  0.00    -0.168 NA
HETATM   14  C   UNL     1     -10.643   0.622 -33.189  1.00  0.00     0.032 A 
BRANCH   9  15
HETATM   15  C   UNL     1     -10.630   5.548 -35.326  1.00  0.00     0.270 C 
HETATM   16  N   UNL     1     -11.474   6.602 -35.545  1.00  0.00    -0.365 N 
HETATM   17  H   UNL     1     -12.474   6.432 -35.538  1.00  0.00     0.159 HD
HETATM   18  H   UNL     1     -11.096   7.529 -35.658  1.00  0.00     0.159 HD
HETATM   19  O   UNL     1      -9.415   5.708 -35.289  1.00  0.00    -0.266 OA
ENDBRANCH   9  15
ENDBRANCH   2   5
BRANCH   1  20
HETATM   20  C   UNL     1      -6.635   0.974 -30.755  1.00  0.00     0.130 C 
BRANCH  20  21
HETATM   21  C   UNL     1      -5.301   1.193 -31.456  1.00  0.00     0.185 C 
BRANCH  21  22
HETATM   22  O   UNL     1      -5.552   1.183 -32.871  1.00  0.00    -0.351 OA
BRANCH  22  23
HETATM   23  C   UNL     1      -5.507  -0.058 -33.441  1.00  0.00     0.068 A 
HETATM   24  C   UNL     1      -4.468  -0.886 -33.023  1.00  0.00     0.037 A 
HETATM   25  C   UNL     1      -4.354  -2.182 -33.531  1.00  0.00     0.010 A 
HETATM   26  C   UNL     1      -5.298  -2.678 -34.442  1.00  0.00    -0.055 A 
HETATM   27  C   UNL     1      -6.351  -1.838 -34.837  1.00  0.00     0.010 A 
HETATM   28  C   UNL     1      -6.459  -0.536 -34.336  1.00  0.00     0.037 A 
BRANCH  26  29
HETATM   29  C   UNL     1      -5.199  -4.082 -35.011  1.00  0.00     0.010 C 
HETATM   30  C   UNL     1      -6.573  -4.674 -35.337  1.00  0.00     0.015 C 
HETATM   31  C   UNL     1      -4.422  -5.002 -34.066  1.00  0.00     0.015 C 
ENDBRANCH  26  29
ENDBRANCH  22  23
ENDBRANCH  21  22
ENDBRANCH  20  21
ENDBRANCH   1  20
TORSDOF 7
ENDMDL
MODEL 8
REMARK VINA RESULT:      -8.0      2.823      9.120
REMARK  7 active torsions:
REMARK  status: ('A' for Active; 'I' for Inactive)
REMARK    1  A    between atoms: C_2  and  C_3 
REMARK    2  A    between atoms: C_6  and  O_7 
REMARK    3  A    between atoms: O_7  and  C_8 
REMARK    4  A    between atoms: C_8  and  C_9 
REMARK    5  A    between atoms: C_9  and  C_10 
REMARK       I    between atoms: C_10  and  N_11 
REMARK    6  A    between atoms: N_11  and  C_12 
REMARK    7  A    between atoms: C_19  and  C_20 
REMARK       I    between atoms: C_20  and  N_21 
ROOT
HETATM    1  C   UNL     1      -3.013   5.217 -33.979  1.00  0.00     0.224 C 
HETATM    2  N   UNL     1      -2.728   4.366 -32.928  1.00  0.00    -0.327 N 
HETATM    3  O   UNL     1      -4.129   5.524 -34.384  1.00  0.00    -0.273 OA
HETATM    4  H   UNL     1      -1.745   4.148 -32.784  1.00  0.00     0.169 HD
ENDROOT
BRANCH   2   5
HETATM    5  C   UNL     1      -3.641   3.694 -32.088  1.00  0.00     0.035 A 
HETATM    6  C   UNL     1      -3.992   2.347 -32.245  1.00  0.00     0.046 A 
HETATM    7  C   UNL     1      -4.934   1.768 -31.366  1.00  0.00     0.030 A 
HETATM    8  C   UNL     1      -5.472   2.548 -30.350  1.00  0.00     0.063 A 
HETATM    9  C   UNL     1      -5.559   0.492 -31.221  1.00  0.00     0.156 A 
HETATM   10  N   UNL     1      -6.322   1.723 -29.670  1.00  0.00    -0.277 N 
HETATM   11  C   UNL     1      -5.141   3.892 -30.165  1.00  0.00     0.034 A 
HETATM   12  H   UNL     1      -6.882   1.954 -28.857  1.00  0.00     0.189 HD
HETATM   13  N   UNL     1      -6.408   0.478 -30.167  1.00  0.00    -0.168 NA
HETATM   14  C   UNL     1      -4.225   4.450 -31.063  1.00  0.00     0.032 A 
BRANCH   9  15
HETATM   15  C   UNL     1      -5.379  -0.698 -32.065  1.00  0.00     0.270 C 
HETATM   16  N   UNL     1      -4.157  -1.299 -31.930  1.00  0.00    -0.365 N 
HETATM   17  H   UNL     1      -3.496  -0.908 -31.269  1.00  0.00     0.159 HD
HETATM   18  H   UNL     1      -3.957  -2.141 -32.445  1.00  0.00     0.159 HD
HETATM   19  O   UNL     1      -6.228  -1.153 -32.824  1.00  0.00    -0.266 OA
ENDBRANCH   9  15
ENDBRANCH   2   5
BRANCH   1  20
HETATM   20  C   UNL     1      -1.778   5.823 -34.624  1.00  0.00     0.130 C 
BRANCH  20  21
HETATM   21  C   UNL     1      -1.168   6.940 -33.789  1.00  0.00     0.185 C 
BRANCH  21  22
HETATM   22  O   UNL     1      -2.017   7.138 -32.647  1.00  0.00    -0.351 OA
BRANCH  22  23
HETATM   23  C   UNL     1      -1.349   7.213 -31.457  1.00  0.00     0.068 A 
HETATM   24  C   UNL     1      -0.091   6.617 -31.422  1.00  0.00     0.037 A 
HETATM   25  C   UNL     1       0.677   6.664 -30.257  1.00  0.00     0.010 A 
HETATM   26  C   UNL     1       0.208   7.337 -29.119  1.00  0.00    -0.055 A 
HETATM   27  C   UNL     1      -1.053   7.950 -29.177  1.00  0.00     0.010 A 
HETATM   28  C   UNL     1      -1.827   7.894 -30.341  1.00  0.00     0.037 A 
BRANCH  26  29
HETATM   29  C   UNL     1       1.022   7.404 -27.838  1.00  0.00     0.010 C 
HETATM   30  C   UNL     1       0.197   7.021 -26.606  1.00  0.00     0.015 C 
HETATM   31  C   UNL     1       1.650   8.788 -27.662  1.00  0.00     0.015 C 
ENDBRANCH  26  29
ENDBRANCH  22  23
ENDBRANCH  21  22
ENDBRANCH  20  21
ENDBRANCH   1  20
TORSDOF 7
ENDMDL
MODEL 9
REMARK VINA RESULT:      -7.9      4.497      7.062
REMARK  7 active torsions:
REMARK  status: ('A' for Active; 'I' for Inactive)
REMARK    1  A    between atoms: C_2  and  C_3 
REMARK    2  A    between atoms: C_6  and  O_7 
REMARK    3  A    between atoms: O_7  and  C_8 
REMARK    4  A    between atoms: C_8  and  C_9 
REMARK    5  A    between atoms: C_9  and  C_10 
REMARK       I    between atoms: C_10  and  N_11 
REMARK    6  A    between atoms: N_11  and  C_12 
REMARK    7  A    between atoms: C_19  and  C_20 
REMARK       I    between atoms: C_20  and  N_21 
ROOT
HETATM    1  C   UNL     1      -7.162   2.708 -30.538  1.00  0.00     0.224 C 
HETATM    2  N   UNL     1      -8.382   2.119 -30.815  1.00  0.00    -0.327 N 
HETATM    3  O   UNL     1      -6.893   3.900 -30.635  1.00  0.00    -0.273 OA
HETATM    4  H   UNL     1      -8.408   1.103 -30.770  1.00  0.00     0.169 HD
ENDROOT
BRANCH   2   5
HETATM    5  C   UNL     1      -9.570   2.750 -31.237  1.00  0.00     0.035 A 
HETATM    6  C   UNL     1     -10.202   2.478 -32.458  1.00  0.00     0.046 A 
HETATM    7  C   UNL     1     -11.378   3.179 -32.803  1.00  0.00     0.030 A 
HETATM    8  C   UNL     1     -11.893   4.109 -31.908  1.00  0.00     0.063 A 
HETATM    9  C   UNL     1     -12.264   3.217 -33.922  1.00  0.00     0.156 A 
HETATM   10  N   UNL     1     -13.020   4.600 -32.502  1.00  0.00    -0.277 N 
HETATM   11  C   UNL     1     -11.290   4.402 -30.683  1.00  0.00     0.034 A 
HETATM   12  H   UNL     1     -13.658   5.294 -32.129  1.00  0.00     0.189 HD
HETATM   13  N   UNL     1     -13.275   4.094 -33.719  1.00  0.00    -0.168 NA
HETATM   14  C   UNL     1     -10.112   3.712 -30.374  1.00  0.00     0.032 A 
BRANCH   9  15
HETATM   15  C   UNL     1     -12.162   2.455 -35.175  1.00  0.00     0.270 C 
HETATM   16  N   UNL     1     -11.873   3.220 -36.272  1.00  0.00    -0.365 N 
HETATM   17  H   UNL     1     -11.735   4.216 -36.145  1.00  0.00     0.159 HD
HETATM   18  H   UNL     1     -11.751   2.778 -37.169  1.00  0.00     0.159 HD
HETATM   19  O   UNL     1     -12.302   1.240 -35.270  1.00  0.00    -0.266 OA
ENDBRANCH   9  15
ENDBRANCH   2   5
BRANCH   1  20
HETATM   20  C   UNL     1      -6.114   1.731 -30.036  1.00  0.00     0.130 C 
BRANCH  20  21
HETATM   21  C   UNL     1      -5.151   1.290 -31.130  1.00  0.00     0.185 C 
BRANCH  21  22
HETATM   22  O   UNL     1      -5.916   1.120 -32.334  1.00  0.00    -0.351 OA
BRANCH  22  23
HETATM   23  C   UNL     1      -5.748  -0.095 -32.938  1.00  0.00     0.068 A 
HETATM   24  C   UNL     1      -6.809  -0.541 -33.722  1.00  0.00     0.037 A 
HETATM   25  C   UNL     1      -6.720  -1.759 -34.399  1.00  0.00     0.010 A 
HETATM   26  C   UNL     1      -5.554  -2.534 -34.324  1.00  0.00    -0.055 A 
HETATM   27  C   UNL     1      -4.485  -2.061 -33.547  1.00  0.00     0.010 A 
HETATM   28  C   UNL     1      -4.579  -0.845 -32.860  1.00  0.00     0.037 A 
BRANCH  26  29
HETATM   29  C   UNL     1      -5.429  -3.863 -35.049  1.00  0.00     0.010 C 
HETATM   30  C   UNL     1      -6.791  -4.514 -35.306  1.00  0.00     0.015 C 
HETATM   31  C   UNL     1      -4.506  -4.816 -34.287  1.00  0.00     0.015 C 
ENDBRANCH  26  29
ENDBRANCH  22  23
ENDBRANCH  21  22
ENDBRANCH  20  21
ENDBRANCH   1  20
TORSDOF 7
ENDMDL
MODEL 10
REMARK VINA RESULT:      -7.9      1.910      2.602
REMARK  7 active torsions:
REMARK  status: ('A' for Active; 'I' for Inactive)
REMARK    1  A    between atoms: C_2  and  C_3 
REMARK    2  A    between atoms: C_6  and  O_7 
REMARK    3  A    between atoms: O_7  and  C_8 
REMARK    4  A    between atoms: C_8  and  C_9 
REMARK    5  A    between atoms: C_9  and  C_10 
REMARK       I    between atoms: C_10  and  N_11 
REMARK    6  A    between atoms: N_11  and  C_12 
REMARK    7  A    between atoms: C_19  and  C_20 
REMARK       I    between atoms: C_20  and  N_21 
ROOT
HETATM    1  C   UNL     1      -5.238   4.614 -33.634  1.00  0.00     0.224 C 
HETATM    2  N   UNL     1      -4.886   4.705 -32.300  1.00  0.00    -0.327 N 
HETATM    3  O   UNL     1      -4.821   5.320 -34.545  1.00  0.00    -0.273 OA
HETATM    4  H   UNL     1      -5.398   4.101 -31.661  1.00  0.00     0.169 HD
ENDROOT
BRANCH   2   5
HETATM    5  C   UNL     1      -3.968   5.596 -31.708  1.00  0.00     0.035 A 
HETATM    6  C   UNL     1      -2.650   5.247 -31.379  1.00  0.00     0.046 A 
HETATM    7  C   UNL     1      -1.811   6.204 -30.767  1.00  0.00     0.030 A 
HETATM    8  C   UNL     1      -2.309   7.479 -30.527  1.00  0.00     0.063 A 
HETATM    9  C   UNL     1      -0.475   6.230 -30.265  1.00  0.00     0.156 A 
HETATM   10  N   UNL     1      -1.279   8.169 -29.954  1.00  0.00    -0.277 N 
HETATM   11  C   UNL     1      -3.614   7.859 -30.846  1.00  0.00     0.034 A 
HETATM   12  H   UNL     1      -1.281   9.137 -29.654  1.00  0.00     0.189 HD
HETATM   13  N   UNL     1      -0.159   7.451 -29.772  1.00  0.00    -0.168 NA
HETATM   14  C   UNL     1      -4.435   6.887 -31.428  1.00  0.00     0.032 A 
BRANCH   9  15
HETATM   15  C   UNL     1       0.495   5.126 -30.231  1.00  0.00     0.270 C 
HETATM   16  N   UNL     1       0.875   4.755 -28.970  1.00  0.00    -0.365 N 
HETATM   17  H   UNL     1       0.462   5.236 -28.178  1.00  0.00     0.159 HD
HETATM   18  H   UNL     1       1.512   3.984 -28.848  1.00  0.00     0.159 HD
HETATM   19  O   UNL     1       0.937   4.551 -31.219  1.00  0.00    -0.266 OA
ENDBRANCH   9  15
ENDBRANCH   2   5
BRANCH   1  20
HETATM   20  C   UNL     1      -6.211   3.487 -33.932  1.00  0.00     0.130 C 
BRANCH  20  21
HETATM   21  C   UNL     1      -6.333   2.497 -32.781  1.00  0.00     0.185 C 
BRANCH  21  22
HETATM   22  O   UNL     1      -7.314   1.517 -33.158  1.00  0.00    -0.351 OA
BRANCH  22  23
HETATM   23  C   UNL     1      -6.790   0.308 -33.521  1.00  0.00     0.068 A 
HETATM   24  C   UNL     1      -7.464  -0.373 -34.532  1.00  0.00     0.037 A 
HETATM   25  C   UNL     1      -6.988  -1.604 -34.987  1.00  0.00     0.010 A 
HETATM   26  C   UNL     1      -5.814  -2.157 -34.459  1.00  0.00    -0.055 A 
HETATM   27  C   UNL     1      -5.134  -1.448 -33.455  1.00  0.00     0.010 A 
HETATM   28  C   UNL     1      -5.616  -0.219 -32.991  1.00  0.00     0.037 A 
BRANCH  26  29
HETATM   29  C   UNL     1      -5.274  -3.494 -34.934  1.00  0.00     0.010 C 
HETATM   30  C   UNL     1      -6.368  -4.562 -35.028  1.00  0.00     0.015 C 
HETATM   31  C   UNL     1      -4.126  -3.969 -34.041  1.00  0.00     0.015 C 
ENDBRANCH  26  29
ENDBRANCH  22  23
ENDBRANCH  21  22
ENDBRANCH  20  21
ENDBRANCH   1  20
TORSDOF 7
ENDMDL
