MODEL 1
REMARK VINA RESULT:      -9.1      0.000      0.000
REMARK  4 active torsions:
REMARK  status: ('A' for Active; 'I' for Inactive)
REMARK    1  A    between atoms: N_2  and  C_4 
REMARK    2  A    between atoms: N_2  and  C_16 
REMARK    3  A    between atoms: C_4  and  C_5 
REMARK    4  A    between atoms: C_16  and  C_17 
ROOT
HETATM    1  C   UNL     1      -9.166   1.616 -32.692  1.00  0.00     0.270 C 
HETATM    2  N   UNL     1      -7.870   1.753 -33.443  1.00  0.00    -0.064 N 
HETATM    3  H   UNL     1      -7.141   1.366 -32.820  1.00  0.00     0.280 HD
ENDROOT
BRANCH   2   4
HETATM    4  C   UNL     1      -7.824   0.863 -34.680  1.00  0.00     0.312 C 
BRANCH   4   5
HETATM    5  C   UNL     1      -6.862  -0.304 -34.498  1.00  0.00     0.133 A 
HETATM    6  N   UNL     1      -7.245  -1.492 -34.842  1.00  0.00    -0.233 NA
HETATM    7  C   UNL     1      -6.330  -2.550 -34.649  1.00  0.00     0.074 A 
HETATM    8  C   UNL     1      -5.054  -2.352 -34.110  1.00  0.00     0.061 A 
HETATM    9  C   UNL     1      -6.705  -3.846 -35.009  1.00  0.00     0.032 A 
HETATM   10  C   UNL     1      -4.681  -0.978 -33.739  1.00  0.00     0.259 A 
HETATM   11  C   UNL     1      -4.161  -3.412 -33.926  1.00  0.00     0.019 A 
HETATM   12  O   UNL     1      -3.593  -0.686 -33.263  1.00  0.00    -0.267 OA
HETATM   13  N   UNL     1      -5.637  -0.020 -33.965  1.00  0.00    -0.309 N 
HETATM   14  H   UNL     1      -5.351   0.910 -33.685  1.00  0.00     0.170 HD
HETATM   15  C   UNL     1      -4.551  -4.699 -34.289  1.00  0.00     0.001 A 
HETATM   16  C   UNL     1      -5.820  -4.916 -34.830  1.00  0.00     0.002 A 
ENDBRANCH   4   5
ENDBRANCH   2   4
BRANCH   2  17
HETATM   17  C   UNL     1      -7.506   3.174 -33.777  1.00  0.00     0.273 C 
BRANCH  17  18
HETATM   18  C   UNL     1      -6.070   3.539 -33.518  1.00  0.00    -0.028 A 
HETATM   19  C   UNL     1      -5.306   2.840 -32.573  1.00  0.00     0.035 A 
HETATM   20  C   UNL     1      -3.961   3.172 -32.357  1.00  0.00     0.070 A 
HETATM   21 CL   UNL     1      -3.078   2.258 -31.190  1.00  0.00    -0.081 Cl
HETATM   22  C   UNL     1      -3.361   4.206 -33.083  1.00  0.00     0.123 A 
HETATM   23  C   UNL     1      -4.131   4.926 -34.000  1.00  0.00     0.104 A 
HETATM   24  O   UNL     1      -2.035   4.483 -32.865  1.00  0.00    -0.344 OA
HETATM   25  O   UNL     1      -3.647   5.976 -34.739  1.00  0.00    -0.346 OA
HETATM   26  C   UNL     1      -5.468   4.588 -34.227  1.00  0.00     0.048 A 
HETATM   27  C   UNL     1      -2.378   6.436 -34.253  1.00  0.00     0.202 C 
HETATM   28  C   UNL     1      -1.471   5.263 -33.925  1.00  0.00     0.202 C 
ENDBRANCH  17  18
ENDBRANCH   2  17
TORSDOF 4
ENDMDL
MODEL 2
REMARK VINA RESULT:      -8.6      4.004      7.446
REMARK  4 active torsions:
REMARK  status: ('A' for Active; 'I' for Inactive)
REMARK    1  A    between atoms: N_2  and  C_4 
REMARK    2  A    between atoms: N_2  and  C_16 
REMARK    3  A    between atoms: C_4  and  C_5 
REMARK    4  A    between atoms: C_16  and  C_17 
ROOT
HETATM    1  C   UNL     1      -7.320   1.157 -31.880  1.00  0.00     0.270 C 
HETATM    2  N   UNL     1      -7.597   1.121 -33.359  1.00  0.00    -0.064 N 
HETATM    3  H   UNL     1      -8.304   0.378 -33.494  1.00  0.00     0.280 HD
ENDROOT
BRANCH   2   4
HETATM    4  C   UNL     1      -8.283   2.391 -33.848  1.00  0.00     0.312 C 
BRANCH   4   5
HETATM    5  C   UNL     1      -9.781   2.186 -34.033  1.00  0.00     0.133 A 
HETATM    6  N   UNL     1     -10.315   1.076 -33.633  1.00  0.00    -0.233 NA
HETATM    7  C   UNL     1     -11.704   0.918 -33.829  1.00  0.00     0.074 A 
HETATM    8  C   UNL     1     -12.497   1.902 -34.430  1.00  0.00     0.061 A 
HETATM    9  C   UNL     1     -12.319  -0.264 -33.410  1.00  0.00     0.032 A 
HETATM   10  C   UNL     1     -11.828   3.139 -34.863  1.00  0.00     0.259 A 
HETATM   11  C   UNL     1     -13.871   1.727 -34.616  1.00  0.00     0.019 A 
HETATM   12  O   UNL     1     -12.418   4.067 -35.396  1.00  0.00    -0.267 OA
HETATM   13  N   UNL     1     -10.477   3.199 -34.628  1.00  0.00    -0.309 N 
HETATM   14  H   UNL     1     -10.048   4.058 -34.951  1.00  0.00     0.170 HD
HETATM   15  C   UNL     1     -14.469   0.542 -34.193  1.00  0.00     0.001 A 
HETATM   16  C   UNL     1     -13.694  -0.451 -33.590  1.00  0.00     0.002 A 
ENDBRANCH   4   5
ENDBRANCH   2   4
BRANCH   2  17
HETATM   17  C   UNL     1      -6.391   0.791 -34.197  1.00  0.00     0.273 C 
BRANCH  17  18
HETATM   18  C   UNL     1      -5.921  -0.634 -34.098  1.00  0.00    -0.028 A 
HETATM   19  C   UNL     1      -6.588  -1.665 -34.773  1.00  0.00     0.035 A 
HETATM   20  C   UNL     1      -6.126  -2.986 -34.694  1.00  0.00     0.070 A 
HETATM   21 CL   UNL     1      -6.990  -4.200 -35.564  1.00  0.00    -0.081 Cl
HETATM   22  C   UNL     1      -4.989  -3.295 -33.941  1.00  0.00     0.123 A 
HETATM   23  C   UNL     1      -4.343  -2.274 -33.240  1.00  0.00     0.104 A 
HETATM   24  O   UNL     1      -4.550  -4.594 -33.910  1.00  0.00    -0.344 OA
HETATM   25  O   UNL     1      -3.240  -2.476 -32.448  1.00  0.00    -0.346 OA
HETATM   26  C   UNL     1      -4.794  -0.955 -33.327  1.00  0.00     0.048 A 
HETATM   27  C   UNL     1      -3.015  -3.869 -32.186  1.00  0.00     0.202 C 
HETATM   28  C   UNL     1      -3.198  -4.690 -33.449  1.00  0.00     0.202 C 
ENDBRANCH  17  18
ENDBRANCH   2  17
TORSDOF 4
ENDMDL
MODEL 3
REMARK VINA RESULT:      -8.3      1.923      6.953
REMARK  4 active torsions:
REMARK  status: ('A' for Active; 'I' for Inactive)
REMARK    1  A    between atoms: N_2  and  C_4 
REMARK    2  A    between atoms: N_2  and  C_16 
REMARK    3  A    between atoms: C_4  and  C_5 
REMARK    4  A    between atoms: C_16  and  C_17 
ROOT
HETATM    1  C   UNL     1      -9.146   2.632 -34.189  1.00  0.00     0.270 C 
HETATM    2  N   UNL     1      -7.832   2.481 -33.472  1.00  0.00    -0.064 N 
HETATM    3  H   UNL     1      -7.116   2.386 -34.212  1.00  0.00     0.280 HD
ENDROOT
BRANCH   2   4
HETATM    4  C   UNL     1      -7.436   3.748 -32.721  1.00  0.00     0.312 C 
BRANCH   4   5
HETATM    5  C   UNL     1      -5.985   4.128 -32.987  1.00  0.00     0.133 A 
HETATM    6  N   UNL     1      -5.135   4.074 -32.011  1.00  0.00    -0.233 NA
HETATM    7  C   UNL     1      -3.801   4.443 -32.293  1.00  0.00     0.074 A 
HETATM    8  C   UNL     1      -3.386   4.854 -33.564  1.00  0.00     0.061 A 
HETATM    9  C   UNL     1      -2.853   4.397 -31.268  1.00  0.00     0.032 A 
HETATM   10  C   UNL     1      -4.401   4.893 -34.628  1.00  0.00     0.259 A 
HETATM   11  C   UNL     1      -2.060   5.215 -33.824  1.00  0.00     0.019 A 
HETATM   12  O   UNL     1      -4.154   5.233 -35.776  1.00  0.00    -0.267 OA
HETATM   13  N   UNL     1      -5.667   4.517 -34.256  1.00  0.00    -0.309 N 
HETATM   14  H   UNL     1      -6.342   4.569 -35.010  1.00  0.00     0.170 HD
HETATM   15  C   UNL     1      -1.128   5.165 -32.790  1.00  0.00     0.001 A 
HETATM   16  C   UNL     1      -1.523   4.756 -31.515  1.00  0.00     0.002 A 
ENDBRANCH   4   5
ENDBRANCH   2   4
BRANCH   2  17
HETATM   17  C   UNL     1      -7.759   1.271 -32.580  1.00  0.00     0.273 C 
BRANCH  17  18
HETATM   18  C   UNL     1      -6.809   0.201 -33.040  1.00  0.00    -0.028 A 
HETATM   19  C   UNL     1      -5.423   0.347 -32.882  1.00  0.00     0.035 A 
HETATM   20  C   UNL     1      -4.547  -0.668 -33.293  1.00  0.00     0.070 A 
HETATM   21 CL   UNL     1      -2.856  -0.425 -33.052  1.00  0.00    -0.081 Cl
HETATM   22  C   UNL     1      -5.044  -1.844 -33.864  1.00  0.00     0.123 A 
HETATM   23  C   UNL     1      -6.422  -1.977 -34.053  1.00  0.00     0.104 A 
HETATM   24  O   UNL     1      -4.159  -2.828 -34.226  1.00  0.00    -0.344 OA
HETATM   25  O   UNL     1      -7.007  -3.075 -34.631  1.00  0.00    -0.346 OA
HETATM   26  C   UNL     1      -7.297  -0.972 -33.633  1.00  0.00     0.048 A 
HETATM   27  C   UNL     1      -6.045  -3.918 -35.281  1.00  0.00     0.202 C 
HETATM   28  C   UNL     1      -4.809  -4.089 -34.415  1.00  0.00     0.202 C 
ENDBRANCH  17  18
ENDBRANCH   2  17
TORSDOF 4
ENDMDL
MODEL 4
REMARK VINA RESULT:      -8.3      3.471      5.303
REMARK  4 active torsions:
REMARK  status: ('A' for Active; 'I' for Inactive)
REMARK    1  A    between atoms: N_2  and  C_4 
REMARK    2  A    between atoms: N_2  and  C_16 
REMARK    3  A    between atoms: C_4  and  C_5 
REMARK    4  A    between atoms: C_16  and  C_17 
ROOT
HETATM    1  C   UNL     1      -4.275   3.089 -32.258  1.00  0.00     0.270 C 
HETATM    2  N   UNL     1      -4.650   1.667 -31.938  1.00  0.00    -0.064 N 
HETATM    3  H   UNL     1      -5.069   1.285 -32.803  1.00  0.00     0.280 HD
ENDROOT
BRANCH   2   4
HETATM    4  C   UNL     1      -3.428   0.791 -31.689  1.00  0.00     0.312 C 
BRANCH   4   5
HETATM    5  C   UNL     1      -3.634  -0.624 -32.215  1.00  0.00     0.133 A 
HETATM    6  N   UNL     1      -4.462  -0.814 -33.193  1.00  0.00    -0.233 NA
HETATM    7  C   UNL     1      -4.634  -2.140 -33.648  1.00  0.00     0.074 A 
HETATM    8  C   UNL     1      -3.952  -3.224 -33.083  1.00  0.00     0.061 A 
HETATM    9  C   UNL     1      -5.516  -2.387 -34.702  1.00  0.00     0.032 A 
HETATM   10  C   UNL     1      -3.027  -2.939 -31.976  1.00  0.00     0.259 A 
HETATM   11  C   UNL     1      -4.136  -4.530 -33.547  1.00  0.00     0.019 A 
HETATM   12  O   UNL     1      -2.377  -3.805 -31.409  1.00  0.00    -0.267 OA
HETATM   13  N   UNL     1      -2.928  -1.621 -31.607  1.00  0.00    -0.309 N 
HETATM   14  H   UNL     1      -2.293  -1.465 -30.832  1.00  0.00     0.170 HD
HETATM   15  C   UNL     1      -5.020  -4.759 -34.599  1.00  0.00     0.001 A 
HETATM   16  C   UNL     1      -5.709  -3.689 -35.175  1.00  0.00     0.002 A 
ENDBRANCH   4   5
ENDBRANCH   2   4
BRANCH   2  17
HETATM   17  C   UNL     1      -5.654   1.537 -30.824  1.00  0.00     0.273 C 
BRANCH  17  18
HETATM   18  C   UNL     1      -7.068   1.882 -31.201  1.00  0.00    -0.028 A 
HETATM   19  C   UNL     1      -7.712   3.000 -30.651  1.00  0.00     0.035 A 
HETATM   20  C   UNL     1      -9.022   3.326 -31.029  1.00  0.00     0.070 A 
HETATM   21 CL   UNL     1      -9.744   4.724 -30.322  1.00  0.00    -0.081 Cl
HETATM   22  C   UNL     1      -9.706   2.542 -31.963  1.00  0.00     0.123 A 
HETATM   23  C   UNL     1      -9.079   1.408 -32.486  1.00  0.00     0.104 A 
HETATM   24  O   UNL     1     -10.976   2.908 -32.330  1.00  0.00    -0.344 OA
HETATM   25  O   UNL     1      -9.673   0.557 -33.383  1.00  0.00    -0.346 OA
HETATM   26  C   UNL     1      -7.769   1.088 -32.121  1.00  0.00     0.048 A 
HETATM   27  C   UNL     1     -11.085   0.786 -33.487  1.00  0.00     0.202 C 
HETATM   28  C   UNL     1     -11.386   2.273 -33.546  1.00  0.00     0.202 C 
ENDBRANCH  17  18
ENDBRANCH   2  17
TORSDOF 4
ENDMDL
MODEL 5
REMARK VINA RESULT:      -8.3      3.744      6.223
REMARK  4 active torsions:
REMARK  status: ('A' for Active; 'I' for Inactive)
REMARK    1  A    between atoms: N_2  and  C_4 
REMARK    2  A    between atoms: N_2  and  C_16 
REMARK    3  A    between atoms: C_4  and  C_5 
REMARK    4  A    between atoms: C_16  and  C_17 
ROOT
HETATM    1  C   UNL     1      -6.299   1.742 -31.080  1.00  0.00     0.270 C 
HETATM    2  N   UNL     1      -6.894   1.552 -32.449  1.00  0.00    -0.064 N 
HETATM    3  H   UNL     1      -7.325   2.459 -32.697  1.00  0.00     0.280 HD
ENDROOT
BRANCH   2   4
HETATM    4  C   UNL     1      -5.827   1.335 -33.516  1.00  0.00     0.312 C 
BRANCH   4   5
HETATM    5  C   UNL     1      -5.322  -0.102 -33.522  1.00  0.00     0.133 A 
HETATM    6  N   UNL     1      -5.939  -0.980 -34.247  1.00  0.00    -0.233 NA
HETATM    7  C   UNL     1      -5.448  -2.304 -34.220  1.00  0.00     0.074 A 
HETATM    8  C   UNL     1      -4.342  -2.681 -33.450  1.00  0.00     0.061 A 
HETATM    9  C   UNL     1      -6.085  -3.280 -34.989  1.00  0.00     0.032 A 
HETATM   10  C   UNL     1      -3.687  -1.635 -32.649  1.00  0.00     0.259 A 
HETATM   11  C   UNL     1      -3.870  -3.997 -33.435  1.00  0.00     0.019 A 
HETATM   12  O   UNL     1      -2.712  -1.847 -31.942  1.00  0.00    -0.267 OA
HETATM   13  N   UNL     1      -4.237  -0.381 -32.742  1.00  0.00    -0.309 N 
HETATM   14  H   UNL     1      -3.769   0.309 -32.167  1.00  0.00     0.170 HD
HETATM   15  C   UNL     1      -4.517  -4.958 -34.208  1.00  0.00     0.001 A 
HETATM   16  C   UNL     1      -5.622  -4.600 -34.983  1.00  0.00     0.002 A 
ENDBRANCH   4   5
ENDBRANCH   2   4
BRANCH   2  17
HETATM   17  C   UNL     1      -7.955   0.487 -32.511  1.00  0.00     0.273 C 
BRANCH  17  18
HETATM   18  C   UNL     1      -9.313   0.969 -32.942  1.00  0.00    -0.028 A 
HETATM   19  C   UNL     1      -9.525   2.307 -33.304  1.00  0.00     0.035 A 
HETATM   20  C   UNL     1     -10.789   2.740 -33.728  1.00  0.00     0.070 A 
HETATM   21 CL   UNL     1     -10.970   4.397 -34.173  1.00  0.00    -0.081 Cl
HETATM   22  C   UNL     1     -11.859   1.842 -33.798  1.00  0.00     0.123 A 
HETATM   23  C   UNL     1     -11.658   0.516 -33.405  1.00  0.00     0.104 A 
HETATM   24  O   UNL     1     -13.074   2.295 -34.245  1.00  0.00    -0.344 OA
HETATM   25  O   UNL     1     -12.647  -0.434 -33.406  1.00  0.00    -0.346 OA
HETATM   26  C   UNL     1     -10.396   0.079 -32.994  1.00  0.00     0.048 A 
HETATM   27  C   UNL     1     -13.950   0.145 -33.563  1.00  0.00     0.202 C 
HETATM   28  C   UNL     1     -13.935   1.220 -34.635  1.00  0.00     0.202 C 
ENDBRANCH  17  18
ENDBRANCH   2  17
TORSDOF 4
ENDMDL
MODEL 6
REMARK VINA RESULT:      -8.3      3.740      5.419
REMARK  4 active torsions:
REMARK  status: ('A' for Active; 'I' for Inactive)
REMARK    1  A    between atoms: N_2  and  C_4 
REMARK    2  A    between atoms: N_2  and  C_16 
REMARK    3  A    between atoms: C_4  and  C_5 
REMARK    4  A    between atoms: C_16  and  C_17 
ROOT
HETATM    1  C   UNL     1      -6.023   1.288 -30.357  1.00  0.00     0.270 C 
HETATM    2  N   UNL     1      -6.641   1.311 -31.728  1.00  0.00    -0.064 N 
HETATM    3  H   UNL     1      -7.030   2.262 -31.846  1.00  0.00     0.280 HD
ENDROOT
BRANCH   2   4
HETATM    4  C   UNL     1      -5.598   1.188 -32.834  1.00  0.00     0.312 C 
BRANCH   4   5
HETATM    5  C   UNL     1      -5.193  -0.262 -33.066  1.00  0.00     0.133 A 
HETATM    6  N   UNL     1      -5.888  -0.983 -33.887  1.00  0.00    -0.233 NA
HETATM    7  C   UNL     1      -5.488  -2.325 -34.070  1.00  0.00     0.074 A 
HETATM    8  C   UNL     1      -4.391  -2.881 -33.403  1.00  0.00     0.061 A 
HETATM    9  C   UNL     1      -6.211  -3.135 -34.948  1.00  0.00     0.032 A 
HETATM   10  C   UNL     1      -3.645  -2.009 -32.484  1.00  0.00     0.259 A 
HETATM   11  C   UNL     1      -4.011  -4.213 -33.597  1.00  0.00     0.019 A 
HETATM   12  O   UNL     1      -2.668  -2.384 -31.850  1.00  0.00    -0.267 OA
HETATM   13  N   UNL     1      -4.109  -0.722 -32.375  1.00  0.00    -0.309 N 
HETATM   14  H   UNL     1      -3.580  -0.155 -31.723  1.00  0.00     0.170 HD
HETATM   15  C   UNL     1      -4.743  -5.007 -34.476  1.00  0.00     0.001 A 
HETATM   16  C   UNL     1      -5.840  -4.469 -35.151  1.00  0.00     0.002 A 
ENDBRANCH   4   5
ENDBRANCH   2   4
BRANCH   2  17
HETATM   17  C   UNL     1      -7.754   0.314 -31.913  1.00  0.00     0.273 C 
BRANCH  17  18
HETATM   18  C   UNL     1      -8.948   0.830 -32.666  1.00  0.00    -0.028 A 
HETATM   19  C   UNL     1     -10.126   0.074 -32.762  1.00  0.00     0.035 A 
HETATM   20  C   UNL     1     -11.242   0.575 -33.446  1.00  0.00     0.070 A 
HETATM   21 CL   UNL     1     -12.660  -0.404 -33.509  1.00  0.00    -0.081 Cl
HETATM   22  C   UNL     1     -11.198   1.840 -34.043  1.00  0.00     0.123 A 
HETATM   23  C   UNL     1     -10.015   2.580 -33.977  1.00  0.00     0.104 A 
HETATM   24  O   UNL     1     -12.319   2.309 -34.679  1.00  0.00    -0.344 OA
HETATM   25  O   UNL     1      -9.858   3.814 -34.555  1.00  0.00    -0.346 OA
HETATM   26  C   UNL     1      -8.905   2.088 -33.285  1.00  0.00     0.048 A 
HETATM   27  C   UNL     1     -10.921   4.119 -35.469  1.00  0.00     0.202 C 
HETATM   28  C   UNL     1     -12.265   3.725 -34.883  1.00  0.00     0.202 C 
ENDBRANCH  17  18
ENDBRANCH   2  17
TORSDOF 4
ENDMDL
MODEL 7
REMARK VINA RESULT:      -8.2      2.399      2.971
REMARK  4 active torsions:
REMARK  status: ('A' for Active; 'I' for Inactive)
REMARK    1  A    between atoms: N_2  and  C_4 
REMARK    2  A    between atoms: N_2  and  C_16 
REMARK    3  A    between atoms: C_4  and  C_5 
REMARK    4  A    between atoms: C_16  and  C_17 
ROOT
HETATM    1  C   UNL     1      -5.939   2.404 -31.180  1.00  0.00     0.270 C 
HETATM    2  N   UNL     1      -5.253   2.279 -32.513  1.00  0.00    -0.064 N 
HETATM    3  H   UNL     1      -4.375   1.763 -32.331  1.00  0.00     0.280 HD
ENDROOT
BRANCH   2   4
HETATM    4  C   UNL     1      -6.025   1.386 -33.478  1.00  0.00     0.312 C 
BRANCH   4   5
HETATM    5  C   UNL     1      -5.461  -0.029 -33.506  1.00  0.00     0.133 A 
HETATM    6  N   UNL     1      -6.083  -0.938 -34.189  1.00  0.00    -0.233 NA
HETATM    7  C   UNL     1      -5.537  -2.240 -34.184  1.00  0.00     0.074 A 
HETATM    8  C   UNL     1      -4.373  -2.565 -33.479  1.00  0.00     0.061 A 
HETATM    9  C   UNL     1      -6.177  -3.247 -34.909  1.00  0.00     0.032 A 
HETATM   10  C   UNL     1      -3.715  -1.487 -32.724  1.00  0.00     0.259 A 
HETATM   11  C   UNL     1      -3.846  -3.860 -33.486  1.00  0.00     0.019 A 
HETATM   12  O   UNL     1      -2.693  -1.653 -32.075  1.00  0.00    -0.267 OA
HETATM   13  N   UNL     1      -4.321  -0.258 -32.791  1.00  0.00    -0.309 N 
HETATM   14  H   UNL     1      -3.849   0.456 -32.248  1.00  0.00     0.170 HD
HETATM   15  C   UNL     1      -4.498  -4.854 -34.214  1.00  0.00     0.001 A 
HETATM   16  C   UNL     1      -5.660  -4.547 -34.924  1.00  0.00     0.002 A 
ENDBRANCH   4   5
ENDBRANCH   2   4
BRANCH   2  17
HETATM   17  C   UNL     1      -4.906   3.599 -33.147  1.00  0.00     0.273 C 
BRANCH  17  18
HETATM   18  C   UNL     1      -3.990   4.472 -32.335  1.00  0.00    -0.028 A 
HETATM   19  C   UNL     1      -4.448   5.666 -31.760  1.00  0.00     0.035 A 
HETATM   20  C   UNL     1      -3.591   6.459 -30.984  1.00  0.00     0.070 A 
HETATM   21 CL   UNL     1      -4.229   7.907 -30.296  1.00  0.00    -0.081 Cl
HETATM   22  C   UNL     1      -2.265   6.069 -30.769  1.00  0.00     0.123 A 
HETATM   23  C   UNL     1      -1.798   4.897 -31.369  1.00  0.00     0.104 A 
HETATM   24  O   UNL     1      -1.465   6.856 -29.980  1.00  0.00    -0.344 OA
HETATM   25  O   UNL     1      -0.509   4.443 -31.247  1.00  0.00    -0.346 OA
HETATM   26  C   UNL     1      -2.653   4.098 -32.132  1.00  0.00     0.048 A 
HETATM   27  C   UNL     1       0.363   5.442 -30.699  1.00  0.00     0.202 C 
HETATM   28  C   UNL     1      -0.300   6.154 -29.533  1.00  0.00     0.202 C 
ENDBRANCH  17  18
ENDBRANCH   2  17
TORSDOF 4
ENDMDL
MODEL 8
REMARK VINA RESULT:      -8.2      3.425      5.260
REMARK  4 active torsions:
REMARK  status: ('A' for Active; 'I' for Inactive)
REMARK    1  A    between atoms: N_2  and  C_4 
REMARK    2  A    between atoms: N_2  and  C_16 
REMARK    3  A    between atoms: C_4  and  C_5 
REMARK    4  A    between atoms: C_16  and  C_17 
ROOT
HETATM    1  C   UNL     1      -3.411   2.672 -31.445  1.00  0.00     0.270 C 
HETATM    2  N   UNL     1      -4.254   1.426 -31.430  1.00  0.00    -0.064 N 
HETATM    3  H   UNL     1      -4.736   1.401 -32.344  1.00  0.00     0.280 HD
ENDROOT
BRANCH   2   4
HETATM    4  C   UNL     1      -3.408   0.158 -31.413  1.00  0.00     0.312 C 
BRANCH   4   5
HETATM    5  C   UNL     1      -3.966  -0.903 -32.353  1.00  0.00     0.133 A 
HETATM    6  N   UNL     1      -3.497  -2.108 -32.286  1.00  0.00    -0.233 NA
HETATM    7  C   UNL     1      -4.032  -3.062 -33.180  1.00  0.00     0.074 A 
HETATM    8  C   UNL     1      -5.028  -2.746 -34.111  1.00  0.00     0.061 A 
HETATM    9  C   UNL     1      -3.554  -4.374 -33.138  1.00  0.00     0.032 A 
HETATM   10  C   UNL     1      -5.516  -1.359 -34.135  1.00  0.00     0.259 A 
HETATM   11  C   UNL     1      -5.545  -3.704 -34.988  1.00  0.00     0.019 A 
HETATM   12  O   UNL     1      -6.385  -0.969 -34.902  1.00  0.00    -0.267 OA
HETATM   13  N   UNL     1      -4.936  -0.507 -33.228  1.00  0.00    -0.309 N 
HETATM   14  H   UNL     1      -5.287   0.441 -33.283  1.00  0.00     0.170 HD
HETATM   15  C   UNL     1      -5.057  -5.008 -34.934  1.00  0.00     0.001 A 
HETATM   16  C   UNL     1      -4.064  -5.342 -34.011  1.00  0.00     0.002 A 
ENDBRANCH   4   5
ENDBRANCH   2   4
BRANCH   2  17
HETATM   17  C   UNL     1      -5.293   1.406 -30.342  1.00  0.00     0.273 C 
BRANCH  17  18
HETATM   18  C   UNL     1      -6.691   1.728 -30.794  1.00  0.00    -0.028 A 
HETATM   19  C   UNL     1      -7.362   2.864 -30.320  1.00  0.00     0.035 A 
HETATM   20  C   UNL     1      -8.655   3.168 -30.767  1.00  0.00     0.070 A 
HETATM   21 CL   UNL     1      -9.411   4.592 -30.152  1.00  0.00    -0.081 Cl
HETATM   22  C   UNL     1      -9.296   2.342 -31.696  1.00  0.00     0.123 A 
HETATM   23  C   UNL     1      -8.642   1.191 -32.144  1.00  0.00     0.104 A 
HETATM   24  O   UNL     1     -10.550   2.687 -32.132  1.00  0.00    -0.344 OA
HETATM   25  O   UNL     1      -9.195   0.300 -33.028  1.00  0.00    -0.346 OA
HETATM   26  C   UNL     1      -7.349   0.893 -31.709  1.00  0.00     0.048 A 
HETATM   27  C   UNL     1     -10.602   0.517 -33.203  1.00  0.00     0.202 C 
HETATM   28  C   UNL     1     -10.904   1.999 -33.337  1.00  0.00     0.202 C 
ENDBRANCH  17  18
ENDBRANCH   2  17
TORSDOF 4
ENDMDL
MODEL 9
REMARK VINA RESULT:      -8.2      3.348      5.465
REMARK  4 active torsions:
REMARK  status: ('A' for Active; 'I' for Inactive)
REMARK    1  A    between atoms: N_2  and  C_4 
REMARK    2  A    between atoms: N_2  and  C_16 
REMARK    3  A    between atoms: C_4  and  C_5 
REMARK    4  A    between atoms: C_16  and  C_17 
ROOT
HETATM    1  C   UNL     1      -5.164   4.853 -34.091  1.00  0.00     0.270 C 
HETATM    2  N   UNL     1      -5.950   3.776 -33.393  1.00  0.00    -0.064 N 
HETATM    3  H   UNL     1      -6.149   3.062 -34.114  1.00  0.00     0.280 HD
ENDROOT
BRANCH   2   4
HETATM    4  C   UNL     1      -5.117   3.039 -32.350  1.00  0.00     0.312 C 
BRANCH   4   5
HETATM    5  C   UNL     1      -4.914   1.577 -32.723  1.00  0.00     0.133 A 
HETATM    6  N   UNL     1      -5.809   0.985 -33.449  1.00  0.00    -0.233 NA
HETATM    7  C   UNL     1      -5.591  -0.373 -33.767  1.00  0.00     0.074 A 
HETATM    8  C   UNL     1      -4.464  -1.078 -33.329  1.00  0.00     0.061 A 
HETATM    9  C   UNL     1      -6.532  -1.047 -34.549  1.00  0.00     0.032 A 
HETATM   10  C   UNL     1      -3.486  -0.348 -32.508  1.00  0.00     0.259 A 
HETATM   11  C   UNL     1      -4.265  -2.423 -33.654  1.00  0.00     0.019 A 
HETATM   12  O   UNL     1      -2.464  -0.859 -32.072  1.00  0.00    -0.267 OA
HETATM   13  N   UNL     1      -3.786   0.967 -32.254  1.00  0.00    -0.309 N 
HETATM   14  H   UNL     1      -3.098   1.434 -31.674  1.00  0.00     0.170 HD
HETATM   15  C   UNL     1      -5.214  -3.080 -34.435  1.00  0.00     0.001 A 
HETATM   16  C   UNL     1      -6.345  -2.393 -34.882  1.00  0.00     0.002 A 
ENDBRANCH   4   5
ENDBRANCH   2   4
BRANCH   2  17
HETATM   17  C   UNL     1      -7.256   4.250 -32.817  1.00  0.00     0.273 C 
BRANCH  17  18
HETATM   18  C   UNL     1      -8.469   3.500 -33.293  1.00  0.00    -0.028 A 
HETATM   19  C   UNL     1      -8.715   2.183 -32.879  1.00  0.00     0.035 A 
HETATM   20  C   UNL     1      -9.862   1.502 -33.310  1.00  0.00     0.070 A 
HETATM   21 CL   UNL     1     -10.105  -0.111 -32.747  1.00  0.00    -0.081 Cl
HETATM   22  C   UNL     1     -10.780   2.127 -34.159  1.00  0.00     0.123 A 
HETATM   23  C   UNL     1     -10.519   3.427 -34.600  1.00  0.00     0.104 A 
HETATM   24  O   UNL     1     -11.905   1.439 -34.537  1.00  0.00    -0.344 OA
HETATM   25  O   UNL     1     -11.339   4.116 -35.458  1.00  0.00    -0.346 OA
HETATM   26  C   UNL     1      -9.384   4.113 -34.162  1.00  0.00     0.048 A 
HETATM   27  C   UNL     1     -12.313   3.263 -36.075  1.00  0.00     0.202 C 
HETATM   28  C   UNL     1     -12.915   2.311 -35.057  1.00  0.00     0.202 C 
ENDBRANCH  17  18
ENDBRANCH   2  17
TORSDOF 4
ENDMDL
MODEL 10
REMARK VINA RESULT:      -8.0      3.710      6.990
REMARK  4 active torsions:
REMARK  status: ('A' for Active; 'I' for Inactive)
REMARK    1  A    between atoms: N_2  and  C_4 
REMARK    2  A    between atoms: N_2  and  C_16 
REMARK    3  A    between atoms: C_4  and  C_5 
REMARK    4  A    between atoms: C_16  and  C_17 
ROOT
HETATM    1  C   UNL     1      -5.921   1.537 -30.141  1.00  0.00     0.270 C 
HETATM    2  N   UNL     1      -6.182   1.488 -31.622  1.00  0.00    -0.064 N 
HETATM    3  H   UNL     1      -6.854   0.715 -31.764  1.00  0.00     0.280 HD
ENDROOT
BRANCH   2   4
HETATM    4  C   UNL     1      -6.920   2.727 -32.118  1.00  0.00     0.312 C 
BRANCH   4   5
HETATM    5  C   UNL     1      -8.245   2.365 -32.777  1.00  0.00     0.133 A 
HETATM    6  N   UNL     1      -8.802   3.219 -33.576  1.00  0.00    -0.233 NA
HETATM    7  C   UNL     1     -10.034   2.853 -34.160  1.00  0.00     0.074 A 
HETATM    8  C   UNL     1     -10.652   1.624 -33.905  1.00  0.00     0.061 A 
HETATM    9  C   UNL     1     -10.666   3.746 -35.028  1.00  0.00     0.032 A 
HETATM   10  C   UNL     1      -9.968   0.699 -32.988  1.00  0.00     0.259 A 
HETATM   11  C   UNL     1     -11.873   1.279 -34.493  1.00  0.00     0.019 A 
HETATM   12  O   UNL     1     -10.411  -0.402 -32.695  1.00  0.00    -0.267 OA
HETATM   13  N   UNL     1      -8.777   1.145 -32.473  1.00  0.00    -0.309 N 
HETATM   14  H   UNL     1      -8.341   0.488 -31.836  1.00  0.00     0.170 HD
HETATM   15  C   UNL     1     -12.490   2.182 -35.356  1.00  0.00     0.001 A 
HETATM   16  C   UNL     1     -11.887   3.413 -35.623  1.00  0.00     0.002 A 
ENDBRANCH   4   5
ENDBRANCH   2   4
BRANCH   2  17
HETATM   17  C   UNL     1      -4.955   1.213 -32.449  1.00  0.00     0.273 C 
BRANCH  17  18
HETATM   18  C   UNL     1      -4.746  -0.231 -32.811  1.00  0.00    -0.028 A 
HETATM   19  C   UNL     1      -3.786  -1.011 -32.150  1.00  0.00     0.035 A 
HETATM   20  C   UNL     1      -3.616  -2.363 -32.478  1.00  0.00     0.070 A 
HETATM   21 CL   UNL     1      -2.427  -3.264 -31.611  1.00  0.00    -0.081 Cl
HETATM   22  C   UNL     1      -4.404  -2.956 -33.470  1.00  0.00     0.123 A 
HETATM   23  C   UNL     1      -5.336  -2.172 -34.154  1.00  0.00     0.104 A 
HETATM   24  O   UNL     1      -4.229  -4.289 -33.744  1.00  0.00    -0.344 OA
HETATM   25  O   UNL     1      -6.134  -2.648 -35.163  1.00  0.00    -0.346 OA
HETATM   26  C   UNL     1      -5.517  -0.827 -33.820  1.00  0.00     0.048 A 
HETATM   27  C   UNL     1      -5.700  -3.932 -35.632  1.00  0.00     0.202 C 
HETATM   28  C   UNL     1      -5.337  -4.835 -34.468  1.00  0.00     0.202 C 
ENDBRANCH  17  18
ENDBRANCH   2  17
TORSDOF 4
ENDMDL
