MODEL 1
REMARK VINA RESULT:      -8.3      0.000      0.000
REMARK  2 active torsions:
REMARK  status: ('A' for Active; 'I' for Inactive)
REMARK    1  A    between atoms: C_2  and  C_3 
REMARK    2  A    between atoms: C_6  and  C_7 
ROOT
HETATM    1  C   UNL     1      -5.992 -14.182 -37.803  1.00  0.00     0.197 C 
HETATM    2  N   UNL     1      -5.877 -13.760 -36.390  1.00  0.00    -0.345 N 
HETATM    3  C   UNL     1      -4.671 -13.607 -35.844  1.00  0.00     0.113 C 
HETATM    4  N   UNL     1      -4.536 -13.224 -34.581  1.00  0.00    -0.376 N 
HETATM    5  H   UNL     1      -3.599 -13.060 -34.233  1.00  0.00     0.161 HD
HETATM    6  C   UNL     1      -3.466 -13.856 -36.654  1.00  0.00     0.029 A 
HETATM    7  C   UNL     1      -3.640 -13.803 -38.042  1.00  0.00     0.025 A 
HETATM    8  N   UNL     1      -4.921 -13.534 -38.538  1.00  0.00    -0.267 NA
HETATM    9  C   UNL     1      -2.191 -14.116 -36.129  1.00  0.00     0.019 A 
HETATM   10  C   UNL     1      -1.095 -14.257 -36.985  1.00  0.00     0.025 A 
HETATM   11  C   UNL     1      -1.268 -14.125 -38.360  1.00  0.00     0.035 A 
HETATM   12 CL   UNL     1       0.086 -14.266 -39.409  1.00  0.00    -0.084 Cl
HETATM   13  C   UNL     1      -2.533 -13.886 -38.892  1.00  0.00     0.048 A 
HETATM   14  C   UNL     1      -7.100 -13.579 -35.586  1.00  0.00     0.128 C 
HETATM   15  C   UNL     1      -6.821 -13.830 -34.120  1.00  0.00     0.039 C 
HETATM   16  C   UNL     1      -5.673 -12.945 -33.711  1.00  0.00     0.123 C 
HETATM   17  H   UNL     1      -4.997 -13.723 -39.537  1.00  0.00     0.130 HD
ENDROOT
BRANCH   1  18
HETATM   18  C   UNL     1      -7.313 -13.782 -38.433  1.00  0.00    -0.021 A 
HETATM   19  C   UNL     1      -8.372 -14.699 -38.557  1.00  0.00     0.011 A 
HETATM   20  C   UNL     1      -9.580 -14.320 -39.148  1.00  0.00     0.007 A 
HETATM   21  C   UNL     1      -9.757 -13.017 -39.626  1.00  0.00    -0.059 A 
HETATM   22  C   UNL     1      -8.711 -12.096 -39.495  1.00  0.00     0.007 A 
HETATM   23  C   UNL     1      -7.502 -12.473 -38.906  1.00  0.00     0.011 A 
BRANCH  21  24
HETATM   24  C   UNL     1     -11.072 -12.601 -40.239  1.00  0.00     0.034 C 
HETATM   25  C   UNL     1     -11.079 -11.127 -40.615  1.00  0.00     0.010 C 
ENDBRANCH  21  24
ENDBRANCH   1  18
TORSDOF 2
ENDMDL
MODEL 2
REMARK VINA RESULT:      -8.1     14.597     16.775
REMARK  2 active torsions:
REMARK  status: ('A' for Active; 'I' for Inactive)
REMARK    1  A    between atoms: C_2  and  C_3 
REMARK    2  A    between atoms: C_6  and  C_7 
ROOT
HETATM    1  C   UNL     1      -7.829   0.689 -33.890  1.00  0.00     0.197 C 
HETATM    2  N   UNL     1      -7.682   2.148 -33.699  1.00  0.00    -0.345 N 
HETATM    3  C   UNL     1      -8.769   2.918 -33.643  1.00  0.00     0.113 C 
HETATM    4  N   UNL     1      -8.670   4.229 -33.468  1.00  0.00    -0.376 N 
HETATM    5  H   UNL     1      -9.527   4.760 -33.367  1.00  0.00     0.161 HD
HETATM    6  C   UNL     1     -10.104   2.307 -33.766  1.00  0.00     0.029 A 
HETATM    7  C   UNL     1     -10.178   0.936 -33.491  1.00  0.00     0.025 A 
HETATM    8  N   UNL     1      -8.999   0.269 -33.139  1.00  0.00    -0.267 NA
HETATM    9  C   UNL     1     -11.272   3.002 -34.115  1.00  0.00     0.019 A 
HETATM   10  C   UNL     1     -12.505   2.345 -34.124  1.00  0.00     0.025 A 
HETATM   11  C   UNL     1     -12.574   0.999 -33.773  1.00  0.00     0.035 A 
HETATM   12 CL   UNL     1     -14.096   0.200 -33.752  1.00  0.00    -0.084 Cl
HETATM   13  C   UNL     1     -11.418   0.295 -33.444  1.00  0.00     0.048 A 
HETATM   14  C   UNL     1      -6.333   2.740 -33.643  1.00  0.00     0.128 C 
HETATM   15  C   UNL     1      -6.354   4.173 -34.126  1.00  0.00     0.039 C 
HETATM   16  C   UNL     1      -7.391   4.915 -33.325  1.00  0.00     0.123 C 
HETATM   17  H   UNL     1      -9.104  -0.745 -33.165  1.00  0.00     0.130 HD
ENDROOT
BRANCH   1  18
HETATM   18  C   UNL     1      -6.632  -0.095 -33.386  1.00  0.00    -0.021 A 
HETATM   19  C   UNL     1      -6.217  -0.015 -32.044  1.00  0.00     0.011 A 
HETATM   20  C   UNL     1      -5.106  -0.734 -31.596  1.00  0.00     0.007 A 
HETATM   21  C   UNL     1      -4.387  -1.550 -32.476  1.00  0.00    -0.059 A 
HETATM   22  C   UNL     1      -4.802  -1.643 -33.810  1.00  0.00     0.007 A 
HETATM   23  C   UNL     1      -5.911  -0.923 -34.262  1.00  0.00     0.011 A 
BRANCH  21  24
HETATM   24  C   UNL     1      -3.204  -2.347 -31.984  1.00  0.00     0.034 C 
HETATM   25  C   UNL     1      -3.275  -3.799 -32.434  1.00  0.00     0.010 C 
ENDBRANCH  21  24
ENDBRANCH   1  18
TORSDOF 2
ENDMDL
MODEL 3
REMARK VINA RESULT:      -8.1     13.726     14.964
REMARK  2 active torsions:
REMARK  status: ('A' for Active; 'I' for Inactive)
REMARK    1  A    between atoms: C_2  and  C_3 
REMARK    2  A    between atoms: C_6  and  C_7 
ROOT
HETATM    1  C   UNL     1      -7.949   0.012 -32.638  1.00  0.00     0.197 C 
HETATM    2  N   UNL     1      -7.118   0.978 -31.886  1.00  0.00    -0.345 N 
HETATM    3  C   UNL     1      -5.827   0.718 -31.683  1.00  0.00     0.113 C 
HETATM    4  N   UNL     1      -5.056   1.566 -31.016  1.00  0.00    -0.376 N 
HETATM    5  H   UNL     1      -4.068   1.354 -30.946  1.00  0.00     0.161 HD
HETATM    6  C   UNL     1      -5.240  -0.525 -32.214  1.00  0.00     0.029 A 
HETATM    7  C   UNL     1      -5.941  -1.135 -33.261  1.00  0.00     0.025 A 
HETATM    8  N   UNL     1      -7.124  -0.533 -33.703  1.00  0.00    -0.267 NA
HETATM    9  C   UNL     1      -4.046  -1.103 -31.756  1.00  0.00     0.019 A 
HETATM   10  C   UNL     1      -3.531  -2.240 -32.383  1.00  0.00     0.025 A 
HETATM   11  C   UNL     1      -4.198  -2.792 -33.474  1.00  0.00     0.035 A 
HETATM   12 CL   UNL     1      -3.546  -4.171 -34.265  1.00  0.00    -0.084 Cl
HETATM   13  C   UNL     1      -5.394  -2.236 -33.924  1.00  0.00     0.048 A 
HETATM   14  C   UNL     1      -7.747   2.182 -31.313  1.00  0.00     0.128 C 
HETATM   15  C   UNL     1      -6.996   2.646 -30.084  1.00  0.00     0.039 C 
HETATM   16  C   UNL     1      -5.550   2.824 -30.467  1.00  0.00     0.123 C 
HETATM   17  H   UNL     1      -7.669  -1.145 -34.308  1.00  0.00     0.130 HD
ENDROOT
BRANCH   1  18
HETATM   18  C   UNL     1      -9.174   0.650 -33.264  1.00  0.00    -0.021 A 
HETATM   19  C   UNL     1      -9.062   1.738 -34.150  1.00  0.00     0.011 A 
HETATM   20  C   UNL     1     -10.200   2.323 -34.710  1.00  0.00     0.007 A 
HETATM   21  C   UNL     1     -11.474   1.835 -34.401  1.00  0.00    -0.059 A 
HETATM   22  C   UNL     1     -11.592   0.746 -33.529  1.00  0.00     0.007 A 
HETATM   23  C   UNL     1     -10.456   0.160 -32.965  1.00  0.00     0.011 A 
BRANCH  21  24
HETATM   24  C   UNL     1     -12.701   2.450 -35.029  1.00  0.00     0.034 C 
HETATM   25  C   UNL     1     -12.356   3.678 -35.858  1.00  0.00     0.010 C 
ENDBRANCH  21  24
ENDBRANCH   1  18
TORSDOF 2
ENDMDL
MODEL 4
REMARK VINA RESULT:      -8.0      2.923      6.626
REMARK  2 active torsions:
REMARK  status: ('A' for Active; 'I' for Inactive)
REMARK    1  A    between atoms: C_2  and  C_3 
REMARK    2  A    between atoms: C_6  and  C_7 
ROOT
HETATM    1  C   UNL     1      -5.684 -14.068 -36.654  1.00  0.00     0.197 C 
HETATM    2  N   UNL     1      -4.492 -13.401 -37.223  1.00  0.00    -0.345 N 
HETATM    3  C   UNL     1      -4.611 -12.673 -38.333  1.00  0.00     0.113 C 
HETATM    4  N   UNL     1      -3.563 -12.059 -38.863  1.00  0.00    -0.376 N 
HETATM    5  H   UNL     1      -3.718 -11.466 -39.669  1.00  0.00     0.161 HD
HETATM    6  C   UNL     1      -5.929 -12.537 -38.978  1.00  0.00     0.029 A 
HETATM    7  C   UNL     1      -7.039 -12.798 -38.166  1.00  0.00     0.025 A 
HETATM    8  N   UNL     1      -6.811 -13.172 -36.837  1.00  0.00    -0.267 NA
HETATM    9  C   UNL     1      -6.128 -12.153 -40.313  1.00  0.00     0.019 A 
HETATM   10  C   UNL     1      -7.422 -11.973 -40.806  1.00  0.00     0.025 A 
HETATM   11  C   UNL     1      -8.517 -12.162 -39.966  1.00  0.00     0.035 A 
HETATM   12 CL   UNL     1     -10.107 -11.908 -40.565  1.00  0.00    -0.084 Cl
HETATM   13  C   UNL     1      -8.330 -12.561 -38.644  1.00  0.00     0.048 A 
HETATM   14  C   UNL     1      -3.176 -13.608 -36.591  1.00  0.00     0.128 C 
HETATM   15  C   UNL     1      -2.064 -13.466 -37.607  1.00  0.00     0.039 C 
HETATM   16  C   UNL     1      -2.225 -12.130 -38.284  1.00  0.00     0.123 C 
HETATM   17  H   UNL     1      -7.648 -13.543 -36.389  1.00  0.00     0.130 HD
ENDROOT
BRANCH   1  18
HETATM   18  C   UNL     1      -5.544 -14.363 -35.173  1.00  0.00    -0.021 A 
HETATM   19  C   UNL     1      -5.761 -13.366 -34.204  1.00  0.00     0.011 A 
HETATM   20  C   UNL     1      -5.618 -13.649 -32.844  1.00  0.00     0.007 A 
HETATM   21  C   UNL     1      -5.258 -14.933 -32.420  1.00  0.00    -0.059 A 
HETATM   22  C   UNL     1      -5.052 -15.933 -33.378  1.00  0.00     0.007 A 
HETATM   23  C   UNL     1      -5.191 -15.652 -34.739  1.00  0.00     0.011 A 
BRANCH  21  24
HETATM   24  C   UNL     1      -5.131 -15.244 -30.949  1.00  0.00     0.034 C 
HETATM   25  C   UNL     1      -5.740 -16.595 -30.601  1.00  0.00     0.010 C 
ENDBRANCH  21  24
ENDBRANCH   1  18
TORSDOF 2
ENDMDL
MODEL 5
REMARK VINA RESULT:      -8.0     13.924     15.829
REMARK  2 active torsions:
REMARK  status: ('A' for Active; 'I' for Inactive)
REMARK    1  A    between atoms: C_2  and  C_3 
REMARK    2  A    between atoms: C_6  and  C_7 
ROOT
HETATM    1  C   UNL     1      -7.411   0.267 -33.606  1.00  0.00     0.197 C 
HETATM    2  N   UNL     1      -7.082   0.848 -32.286  1.00  0.00    -0.345 N 
HETATM    3  C   UNL     1      -7.944   1.677 -31.698  1.00  0.00     0.113 C 
HETATM    4  N   UNL     1      -7.680   2.209 -30.512  1.00  0.00    -0.376 N 
HETATM    5  H   UNL     1      -8.396   2.780 -30.079  1.00  0.00     0.161 HD
HETATM    6  C   UNL     1      -9.216   2.001 -32.366  1.00  0.00     0.029 A 
HETATM    7  C   UNL     1      -9.642   1.096 -33.346  1.00  0.00     0.025 A 
HETATM    8  N   UNL     1      -8.835  -0.015 -33.613  1.00  0.00    -0.267 NA
HETATM    9  C   UNL     1     -10.010   3.121 -32.072  1.00  0.00     0.019 A 
HETATM   10  C   UNL     1     -11.242   3.294 -32.707  1.00  0.00     0.025 A 
HETATM   11  C   UNL     1     -11.689   2.346 -33.624  1.00  0.00     0.035 A 
HETATM   12 CL   UNL     1     -13.220   2.543 -34.379  1.00  0.00    -0.084 Cl
HETATM   13  C   UNL     1     -10.900   1.241 -33.936  1.00  0.00     0.048 A 
HETATM   14  C   UNL     1      -5.775   0.554 -31.670  1.00  0.00     0.128 C 
HETATM   15  C   UNL     1      -5.343   1.685 -30.763  1.00  0.00     0.039 C 
HETATM   16  C   UNL     1      -6.452   1.933 -29.774  1.00  0.00     0.123 C 
HETATM   17  H   UNL     1      -9.107  -0.495 -34.471  1.00  0.00     0.130 HD
ENDROOT
BRANCH   1  18
HETATM   18  C   UNL     1      -6.667  -1.026 -33.883  1.00  0.00    -0.021 A 
HETATM   19  C   UNL     1      -5.262  -1.088 -33.831  1.00  0.00     0.011 A 
HETATM   20  C   UNL     1      -4.589  -2.282 -34.098  1.00  0.00     0.007 A 
HETATM   21  C   UNL     1      -5.303  -3.442 -34.420  1.00  0.00    -0.059 A 
HETATM   22  C   UNL     1      -6.701  -3.390 -34.462  1.00  0.00     0.007 A 
HETATM   23  C   UNL     1      -7.377  -2.196 -34.198  1.00  0.00     0.011 A 
BRANCH  21  24
HETATM   24  C   UNL     1      -4.576  -4.738 -34.682  1.00  0.00     0.034 C 
HETATM   25  C   UNL     1      -3.370  -4.904 -33.770  1.00  0.00     0.010 C 
ENDBRANCH  21  24
ENDBRANCH   1  18
TORSDOF 2
ENDMDL
MODEL 6
REMARK VINA RESULT:      -7.8     14.444     15.674
REMARK  2 active torsions:
REMARK  status: ('A' for Active; 'I' for Inactive)
REMARK    1  A    between atoms: C_2  and  C_3 
REMARK    2  A    between atoms: C_6  and  C_7 
ROOT
HETATM    1  C   UNL     1      -7.438   0.645 -32.334  1.00  0.00     0.197 C 
HETATM    2  N   UNL     1      -6.060   1.173 -32.233  1.00  0.00    -0.345 N 
HETATM    3  C   UNL     1      -5.043   0.457 -32.713  1.00  0.00     0.113 C 
HETATM    4  N   UNL     1      -3.797   0.905 -32.642  1.00  0.00    -0.376 N 
HETATM    5  H   UNL     1      -3.069   0.353 -33.080  1.00  0.00     0.161 HD
HETATM    6  C   UNL     1      -5.304  -0.850 -33.343  1.00  0.00     0.029 A 
HETATM    7  C   UNL     1      -6.612  -1.061 -33.797  1.00  0.00     0.025 A 
HETATM    8  N   UNL     1      -7.549  -0.039 -33.610  1.00  0.00    -0.267 NA
HETATM    9  C   UNL     1      -4.342  -1.855 -33.524  1.00  0.00     0.019 A 
HETATM   10  C   UNL     1      -4.672  -3.028 -34.208  1.00  0.00     0.025 A 
HETATM   11  C   UNL     1      -5.956  -3.192 -34.722  1.00  0.00     0.035 A 
HETATM   12 CL   UNL     1      -6.350  -4.621 -35.592  1.00  0.00    -0.084 Cl
HETATM   13  C   UNL     1      -6.923  -2.208 -34.531  1.00  0.00     0.048 A 
HETATM   14  C   UNL     1      -5.823   2.454 -31.542  1.00  0.00     0.128 C 
HETATM   15  C   UNL     1      -4.433   2.493 -30.946  1.00  0.00     0.039 C 
HETATM   16  C   UNL     1      -3.450   2.191 -32.048  1.00  0.00     0.123 C 
HETATM   17  H   UNL     1      -8.504  -0.354 -33.773  1.00  0.00     0.130 HD
ENDROOT
BRANCH   1  18
HETATM   18  C   UNL     1      -8.492   1.735 -32.284  1.00  0.00    -0.021 A 
HETATM   19  C   UNL     1      -8.963   2.352 -33.457  1.00  0.00     0.011 A 
HETATM   20  C   UNL     1      -9.926   3.362 -33.396  1.00  0.00     0.007 A 
HETATM   21  C   UNL     1     -10.441   3.777 -32.163  1.00  0.00    -0.059 A 
HETATM   22  C   UNL     1      -9.985   3.160 -30.992  1.00  0.00     0.007 A 
HETATM   23  C   UNL     1      -9.020   2.151 -31.051  1.00  0.00     0.011 A 
BRANCH  21  24
HETATM   24  C   UNL     1     -11.502   4.849 -32.100  1.00  0.00     0.034 C 
HETATM   25  C   UNL     1     -12.472   4.619 -30.951  1.00  0.00     0.010 C 
ENDBRANCH  21  24
ENDBRANCH   1  18
TORSDOF 2
ENDMDL
MODEL 7
REMARK VINA RESULT:      -7.7     16.422     18.175
REMARK  2 active torsions:
REMARK  status: ('A' for Active; 'I' for Inactive)
REMARK    1  A    between atoms: C_2  and  C_3 
REMARK    2  A    between atoms: C_6  and  C_7 
ROOT
HETATM    1  C   UNL     1      -5.058   3.150 -32.899  1.00  0.00     0.197 C 
HETATM    2  N   UNL     1      -6.095   3.257 -31.848  1.00  0.00    -0.345 N 
HETATM    3  C   UNL     1      -6.945   2.249 -31.657  1.00  0.00     0.113 C 
HETATM    4  N   UNL     1      -7.882   2.313 -30.721  1.00  0.00    -0.376 N 
HETATM    5  H   UNL     1      -8.460   1.494 -30.572  1.00  0.00     0.161 HD
HETATM    6  C   UNL     1      -6.840   1.038 -32.490  1.00  0.00     0.029 A 
HETATM    7  C   UNL     1      -5.605   0.829 -33.115  1.00  0.00     0.025 A 
HETATM    8  N   UNL     1      -4.594   1.775 -32.912  1.00  0.00    -0.267 NA
HETATM    9  C   UNL     1      -7.870   0.102 -32.670  1.00  0.00     0.019 A 
HETATM   10  C   UNL     1      -7.642  -1.059 -33.415  1.00  0.00     0.025 A 
HETATM   11  C   UNL     1      -6.385  -1.291 -33.968  1.00  0.00     0.035 A 
HETATM   12 CL   UNL     1      -6.096  -2.733 -34.855  1.00  0.00    -0.084 Cl
HETATM   13  C   UNL     1      -5.362  -0.358 -33.809  1.00  0.00     0.048 A 
HETATM   14  C   UNL     1      -6.216   4.506 -31.074  1.00  0.00     0.128 C 
HETATM   15  C   UNL     1      -7.637   4.706 -30.595  1.00  0.00     0.039 C 
HETATM   16  C   UNL     1      -8.049   3.467 -29.844  1.00  0.00     0.123 C 
HETATM   17  H   UNL     1      -3.818   1.658 -33.562  1.00  0.00     0.130 HD
ENDROOT
BRANCH   1  18
HETATM   18  C   UNL     1      -3.867   4.054 -32.645  1.00  0.00    -0.021 A 
HETATM   19  C   UNL     1      -2.895   3.730 -31.680  1.00  0.00     0.011 A 
HETATM   20  C   UNL     1      -1.808   4.577 -31.449  1.00  0.00     0.007 A 
HETATM   21  C   UNL     1      -1.666   5.764 -32.177  1.00  0.00    -0.059 A 
HETATM   22  C   UNL     1      -2.623   6.086 -33.146  1.00  0.00     0.007 A 
HETATM   23  C   UNL     1      -3.712   5.242 -33.378  1.00  0.00     0.011 A 
BRANCH  21  24
HETATM   24  C   UNL     1      -0.476   6.663 -31.945  1.00  0.00     0.034 C 
HETATM   25  C   UNL     1       0.531   6.036 -30.994  1.00  0.00     0.010 C 
ENDBRANCH  21  24
ENDBRANCH   1  18
TORSDOF 2
ENDMDL
MODEL 8
REMARK VINA RESULT:      -7.7     15.358     16.725
REMARK  2 active torsions:
REMARK  status: ('A' for Active; 'I' for Inactive)
REMARK    1  A    between atoms: C_2  and  C_3 
REMARK    2  A    between atoms: C_6  and  C_7 
ROOT
HETATM    1  C   UNL     1      -4.995   1.309 -32.073  1.00  0.00     0.197 C 
HETATM    2  N   UNL     1      -6.259   2.060 -31.906  1.00  0.00    -0.345 N 
HETATM    3  C   UNL     1      -6.220   3.361 -31.624  1.00  0.00     0.113 C 
HETATM    4  N   UNL     1      -7.335   4.063 -31.473  1.00  0.00    -0.376 N 
HETATM    5  H   UNL     1      -7.251   5.061 -31.324  1.00  0.00     0.161 HD
HETATM    6  C   UNL     1      -4.919   4.039 -31.485  1.00  0.00     0.029 A 
HETATM    7  C   UNL     1      -3.828   3.400 -32.085  1.00  0.00     0.025 A 
HETATM    8  N   UNL     1      -4.054   2.187 -32.746  1.00  0.00    -0.267 NA
HETATM    9  C   UNL     1      -4.721   5.261 -30.822  1.00  0.00     0.019 A 
HETATM   10  C   UNL     1      -3.460   5.861 -30.819  1.00  0.00     0.025 A 
HETATM   11  C   UNL     1      -2.400   5.252 -31.485  1.00  0.00     0.035 A 
HETATM   12 CL   UNL     1      -0.857   6.008 -31.508  1.00  0.00    -0.084 Cl
HETATM   13  C   UNL     1      -2.582   4.030 -32.130  1.00  0.00     0.048 A 
HETATM   14  C   UNL     1      -7.545   1.342 -31.988  1.00  0.00     0.128 C 
HETATM   15  C   UNL     1      -8.602   2.038 -31.160  1.00  0.00     0.039 C 
HETATM   16  C   UNL     1      -8.664   3.476 -31.606  1.00  0.00     0.123 C 
HETATM   17  H   UNL     1      -3.188   1.695 -32.963  1.00  0.00     0.130 HD
ENDROOT
BRANCH   1  18
HETATM   18  C   UNL     1      -5.161   0.055 -32.910  1.00  0.00    -0.021 A 
HETATM   19  C   UNL     1      -6.078   0.002 -33.976  1.00  0.00     0.011 A 
HETATM   20  C   UNL     1      -6.228  -1.163 -34.732  1.00  0.00     0.007 A 
HETATM   21  C   UNL     1      -5.464  -2.299 -34.444  1.00  0.00    -0.059 A 
HETATM   22  C   UNL     1      -4.540  -2.249 -33.393  1.00  0.00     0.007 A 
HETATM   23  C   UNL     1      -4.390  -1.087 -32.633  1.00  0.00     0.011 A 
BRANCH  21  24
HETATM   24  C   UNL     1      -5.606  -3.547 -35.280  1.00  0.00     0.034 C 
HETATM   25  C   UNL     1      -6.815  -4.372 -34.863  1.00  0.00     0.010 C 
ENDBRANCH  21  24
ENDBRANCH   1  18
TORSDOF 2
ENDMDL
MODEL 9
REMARK VINA RESULT:      -7.6     15.835     17.693
REMARK  2 active torsions:
REMARK  status: ('A' for Active; 'I' for Inactive)
REMARK    1  A    between atoms: C_2  and  C_3 
REMARK    2  A    between atoms: C_6  and  C_7 
ROOT
HETATM    1  C   UNL     1      -5.714   2.273 -32.303  1.00  0.00     0.197 C 
HETATM    2  N   UNL     1      -5.441   0.890 -32.751  1.00  0.00    -0.345 N 
HETATM    3  C   UNL     1      -6.453   0.104 -33.118  1.00  0.00     0.113 C 
HETATM    4  N   UNL     1      -6.239  -1.138 -33.529  1.00  0.00    -0.376 N 
HETATM    5  H   UNL     1      -7.035  -1.672 -33.859  1.00  0.00     0.161 HD
HETATM    6  C   UNL     1      -7.831   0.622 -33.078  1.00  0.00     0.029 A 
HETATM    7  C   UNL     1      -7.962   2.016 -33.087  1.00  0.00     0.025 A 
HETATM    8  N   UNL     1      -6.796   2.789 -33.123  1.00  0.00    -0.267 NA
HETATM    9  C   UNL     1      -8.985  -0.177 -33.049  1.00  0.00     0.019 A 
HETATM   10  C   UNL     1     -10.250   0.414 -33.096  1.00  0.00     0.025 A 
HETATM   11  C   UNL     1     -10.365   1.799 -33.183  1.00  0.00     0.035 A 
HETATM   12 CL   UNL     1     -11.921   2.523 -33.273  1.00  0.00    -0.084 Cl
HETATM   13  C   UNL     1      -9.226   2.602 -33.193  1.00  0.00     0.048 A 
HETATM   14  C   UNL     1      -4.058   0.379 -32.721  1.00  0.00     0.128 C 
HETATM   15  C   UNL     1      -4.045  -1.123 -32.536  1.00  0.00     0.039 C 
HETATM   16  C   UNL     1      -4.907  -1.728 -33.613  1.00  0.00     0.123 C 
HETATM   17  H   UNL     1      -6.975   3.771 -32.915  1.00  0.00     0.130 HD
ENDROOT
BRANCH   1  18
HETATM   18  C   UNL     1      -4.517   3.191 -32.460  1.00  0.00    -0.021 A 
HETATM   19  C   UNL     1      -4.361   4.003 -33.599  1.00  0.00     0.011 A 
HETATM   20  C   UNL     1      -3.248   4.835 -33.735  1.00  0.00     0.007 A 
HETATM   21  C   UNL     1      -2.268   4.879 -32.737  1.00  0.00    -0.059 A 
HETATM   22  C   UNL     1      -2.423   4.083 -31.596  1.00  0.00     0.007 A 
HETATM   23  C   UNL     1      -3.534   3.247 -31.458  1.00  0.00     0.011 A 
BRANCH  21  24
HETATM   24  C   UNL     1      -1.080   5.800 -32.873  1.00  0.00     0.034 C 
HETATM   25  C   UNL     1      -1.491   7.187 -33.343  1.00  0.00     0.010 C 
ENDBRANCH  21  24
ENDBRANCH   1  18
TORSDOF 2
ENDMDL
MODEL 10
REMARK VINA RESULT:      -7.6     14.859     16.519
REMARK  2 active torsions:
REMARK  status: ('A' for Active; 'I' for Inactive)
REMARK    1  A    between atoms: C_2  and  C_3 
REMARK    2  A    between atoms: C_6  and  C_7 
ROOT
HETATM    1  C   UNL     1      -5.633   1.618 -33.454  1.00  0.00     0.197 C 
HETATM    2  N   UNL     1      -7.095   1.397 -33.511  1.00  0.00    -0.345 N 
HETATM    3  C   UNL     1      -7.568   0.175 -33.752  1.00  0.00     0.113 C 
HETATM    4  N   UNL     1      -8.872  -0.055 -33.804  1.00  0.00    -0.376 N 
HETATM    5  H   UNL     1      -9.181  -1.013 -33.925  1.00  0.00     0.161 HD
HETATM    6  C   UNL     1      -6.630  -0.944 -33.953  1.00  0.00     0.029 A 
HETATM    7  C   UNL     1      -5.338  -0.759 -33.448  1.00  0.00     0.025 A 
HETATM    8  N   UNL     1      -5.043   0.454 -32.815  1.00  0.00    -0.267 NA
HETATM    9  C   UNL     1      -6.955  -2.154 -34.586  1.00  0.00     0.019 A 
HETATM   10  C   UNL     1      -6.015  -3.186 -34.652  1.00  0.00     0.025 A 
HETATM   11  C   UNL     1      -4.758  -3.016 -34.078  1.00  0.00     0.035 A 
HETATM   12 CL   UNL     1      -3.615  -4.298 -34.131  1.00  0.00    -0.084 Cl
HETATM   13  C   UNL     1      -4.420  -1.812 -33.464  1.00  0.00     0.048 A 
HETATM   14  C   UNL     1      -8.007   2.547 -33.369  1.00  0.00     0.128 C 
HETATM   15  C   UNL     1      -9.306   2.295 -34.102  1.00  0.00     0.039 C 
HETATM   16  C   UNL     1      -9.871   0.990 -33.605  1.00  0.00     0.123 C 
HETATM   17  H   UNL     1      -4.043   0.585 -32.673  1.00  0.00     0.130 HD
ENDROOT
BRANCH   1  18
HETATM   18  C   UNL     1      -5.253   2.847 -32.650  1.00  0.00    -0.021 A 
HETATM   19  C   UNL     1      -4.848   4.038 -33.281  1.00  0.00     0.011 A 
HETATM   20  C   UNL     1      -4.491   5.159 -32.528  1.00  0.00     0.007 A 
HETATM   21  C   UNL     1      -4.533   5.118 -31.130  1.00  0.00    -0.059 A 
HETATM   22  C   UNL     1      -4.947   3.940 -30.497  1.00  0.00     0.007 A 
HETATM   23  C   UNL     1      -5.301   2.816 -31.247  1.00  0.00     0.011 A 
BRANCH  21  24
HETATM   24  C   UNL     1      -4.174   6.339 -30.319  1.00  0.00     0.034 C 
HETATM   25  C   UNL     1      -2.671   6.568 -30.277  1.00  0.00     0.010 C 
ENDBRANCH  21  24
ENDBRANCH   1  18
TORSDOF 2
ENDMDL
