MODEL 1
REMARK VINA RESULT:      -9.7      0.000      0.000
REMARK  5 active torsions:
REMARK  status: ('A' for Active; 'I' for Inactive)
REMARK    1  A    between atoms: C_4  and  N_5 
REMARK       I    between atoms: C_6  and  N_7 
REMARK       I    between atoms: C_6  and  N_14 
REMARK       I    between atoms: N_7  and  C_8 
REMARK    2  A    between atoms: C_8  and  C_9 
REMARK    3  A    between atoms: N_14  and  C_15 
REMARK    4  A    between atoms: C_15  and  C_16 
REMARK    5  A    between atoms: C_16  and  C_17 
ROOT
HETATM    1  N   UNL     1      -9.526   2.275 -32.880  1.00  0.00     0.130 NA
HETATM    2  C   UNL     1      -8.428   1.919 -33.454  1.00  0.00     0.718 C 
HETATM    3  N   UNL     1      -7.252   1.984 -32.727  1.00  0.00    -0.157 N 
HETATM    4  C   UNL     1      -7.058   2.364 -31.398  1.00  0.00     0.243 C 
HETATM    5  O   UNL     1      -7.948   2.613 -30.590  1.00  0.00    -0.272 OA
HETATM    6  N   UNL     1      -8.313   1.489 -34.754  1.00  0.00    -0.223 N 
HETATM    7  H   UNL     1      -6.427   1.775 -33.257  1.00  0.00     0.187 HD
HETATM    8  H   UNL     1      -9.239   1.259 -35.126  1.00  0.00     0.177 HD
ENDROOT
BRANCH   1   9
HETATM    9  C   UNL     1     -10.749   2.263 -33.539  1.00  0.00     0.764 A 
HETATM   10  N   UNL     1     -11.110   3.339 -34.270  1.00  0.00    -0.065 NA
HETATM   11  C   UNL     1     -12.291   3.257 -34.916  1.00  0.00     0.051 A 
HETATM   12  C   UNL     1     -12.701   4.434 -35.748  1.00  0.00     0.071 C 
HETATM   13  C   UNL     1     -13.107   2.147 -34.832  1.00  0.00     0.054 A 
HETATM   14  C   UNL     1     -12.654   1.102 -34.051  1.00  0.00     0.051 A 
HETATM   15  N   UNL     1     -11.476   1.146 -33.401  1.00  0.00    -0.065 NA
HETATM   16  C   UNL     1     -13.475  -0.142 -33.898  1.00  0.00     0.071 C 
ENDBRANCH   1   9
BRANCH   6  17
HETATM   17  C   UNL     1      -7.242   0.696 -35.329  1.00  0.00     0.142 C 
BRANCH  17  18
HETATM   18  C   UNL     1      -7.389  -0.773 -34.914  1.00  0.00     0.061 C 
BRANCH  18  19
HETATM   19  C   UNL     1      -6.114  -1.344 -34.384  1.00  0.00    -0.029 A 
HETATM   20  C   UNL     1      -5.705  -2.715 -34.445  1.00  0.00    -0.002 A 
HETATM   21  C   UNL     1      -4.460  -2.809 -33.825  1.00  0.00     0.042 A 
HETATM   22  C   UNL     1      -6.285  -3.890 -34.969  1.00  0.00     0.014 A 
HETATM   23  C   UNL     1      -3.763  -4.018 -33.701  1.00  0.00     0.030 A 
HETATM   24  N   UNL     1      -4.121  -1.545 -33.404  1.00  0.00    -0.365 N 
HETATM   25  C   UNL     1      -4.361  -5.166 -34.226  1.00  0.00     0.002 A 
HETATM   26  C   UNL     1      -5.604  -5.107 -34.853  1.00  0.00     0.001 A 
HETATM   27  H   UNL     1      -3.268  -1.314 -32.914  1.00  0.00     0.165 HD
HETATM   28  C   UNL     1      -5.108  -0.655 -33.736  1.00  0.00     0.096 A 
ENDBRANCH  18  19
ENDBRANCH  17  18
ENDBRANCH   6  17
BRANCH   4  29
HETATM   29  C   UNL     1      -5.569   2.378 -30.972  1.00  0.00     0.031 C 
HETATM   30  C   UNL     1      -5.317   3.454 -29.904  1.00  0.00     0.025 C 
HETATM   31  C   UNL     1      -5.196   1.008 -30.374  1.00  0.00     0.025 C 
HETATM   32  C   UNL     1      -4.685   2.633 -32.202  1.00  0.00     0.025 C 
ENDBRANCH   4  29
TORSDOF 5
ENDMDL
MODEL 2
REMARK VINA RESULT:      -9.2      2.896      6.649
REMARK  5 active torsions:
REMARK  status: ('A' for Active; 'I' for Inactive)
REMARK    1  A    between atoms: C_4  and  N_5 
REMARK       I    between atoms: C_6  and  N_7 
REMARK       I    between atoms: C_6  and  N_14 
REMARK       I    between atoms: N_7  and  C_8 
REMARK    2  A    between atoms: C_8  and  C_9 
REMARK    3  A    between atoms: N_14  and  C_15 
REMARK    4  A    between atoms: C_15  and  C_16 
REMARK    5  A    between atoms: C_16  and  C_17 
ROOT
HETATM    1  N   UNL     1      -4.518   3.806 -32.276  1.00  0.00     0.130 NA
HETATM    2  C   UNL     1      -4.723   2.582 -31.928  1.00  0.00     0.718 C 
HETATM    3  N   UNL     1      -6.027   2.124 -31.856  1.00  0.00    -0.157 N 
HETATM    4  C   UNL     1      -7.214   2.801 -32.141  1.00  0.00     0.243 C 
HETATM    5  O   UNL     1      -7.295   3.926 -32.623  1.00  0.00    -0.272 OA
HETATM    6  N   UNL     1      -3.744   1.675 -31.598  1.00  0.00    -0.223 N 
HETATM    7  H   UNL     1      -6.118   1.192 -31.498  1.00  0.00     0.187 HD
HETATM    8  H   UNL     1      -2.830   2.027 -31.898  1.00  0.00     0.177 HD
ENDROOT
BRANCH   1   9
HETATM    9  C   UNL     1      -3.245   4.356 -32.354  1.00  0.00     0.764 A 
HETATM   10  N   UNL     1      -2.551   4.566 -31.215  1.00  0.00    -0.065 NA
HETATM   11  C   UNL     1      -1.307   5.068 -31.353  1.00  0.00     0.051 A 
HETATM   12  C   UNL     1      -0.513   5.290 -30.102  1.00  0.00     0.071 C 
HETATM   13  C   UNL     1      -0.764   5.373 -32.585  1.00  0.00     0.054 A 
HETATM   14  C   UNL     1      -1.557   5.133 -33.690  1.00  0.00     0.051 A 
HETATM   15  N   UNL     1      -2.798   4.623 -33.589  1.00  0.00    -0.065 NA
HETATM   16  C   UNL     1      -1.052   5.439 -35.067  1.00  0.00     0.071 C 
ENDBRANCH   1   9
BRANCH   6  17
HETATM   17  C   UNL     1      -3.843   0.227 -31.612  1.00  0.00     0.142 C 
BRANCH  17  18
HETATM   18  C   UNL     1      -3.493  -0.315 -33.003  1.00  0.00     0.061 C 
BRANCH  18  19
HETATM   19  C   UNL     1      -4.657  -0.980 -33.662  1.00  0.00    -0.029 A 
HETATM   20  C   UNL     1      -4.790  -2.378 -33.946  1.00  0.00    -0.002 A 
HETATM   21  C   UNL     1      -6.022  -2.563 -34.573  1.00  0.00     0.042 A 
HETATM   22  C   UNL     1      -3.970  -3.505 -33.731  1.00  0.00     0.014 A 
HETATM   23  C   UNL     1      -6.477  -3.818 -34.997  1.00  0.00     0.030 A 
HETATM   24  N   UNL     1      -6.618  -1.327 -34.667  1.00  0.00    -0.365 N 
HETATM   25  C   UNL     1      -5.644  -4.917 -34.774  1.00  0.00     0.002 A 
HETATM   26  C   UNL     1      -4.408  -4.767 -34.149  1.00  0.00     0.001 A 
HETATM   27  H   UNL     1      -7.522  -1.158 -35.085  1.00  0.00     0.165 HD
HETATM   28  C   UNL     1      -5.808  -0.368 -34.120  1.00  0.00     0.096 A 
ENDBRANCH  18  19
ENDBRANCH  17  18
ENDBRANCH   6  17
BRANCH   4  29
HETATM   29  C   UNL     1      -8.484   1.960 -31.861  1.00  0.00     0.031 C 
HETATM   30  C   UNL     1      -9.314   1.782 -33.142  1.00  0.00     0.025 C 
HETATM   31  C   UNL     1      -8.072   0.565 -31.356  1.00  0.00     0.025 C 
HETATM   32  C   UNL     1      -9.325   2.646 -30.774  1.00  0.00     0.025 C 
ENDBRANCH   4  29
TORSDOF 5
ENDMDL
MODEL 3
REMARK VINA RESULT:      -9.2      2.199      5.506
REMARK  5 active torsions:
REMARK  status: ('A' for Active; 'I' for Inactive)
REMARK    1  A    between atoms: C_4  and  N_5 
REMARK       I    between atoms: C_6  and  N_7 
REMARK       I    between atoms: C_6  and  N_14 
REMARK       I    between atoms: N_7  and  C_8 
REMARK    2  A    between atoms: C_8  and  C_9 
REMARK    3  A    between atoms: N_14  and  C_15 
REMARK    4  A    between atoms: C_15  and  C_16 
REMARK    5  A    between atoms: C_16  and  C_17 
ROOT
HETATM    1  N   UNL     1      -8.082   4.153 -33.583  1.00  0.00     0.130 NA
HETATM    2  C   UNL     1      -8.316   2.916 -33.304  1.00  0.00     0.718 C 
HETATM    3  N   UNL     1      -9.577   2.408 -33.561  1.00  0.00    -0.157 N 
HETATM    4  C   UNL     1     -10.683   3.042 -34.129  1.00  0.00     0.243 C 
HETATM    5  O   UNL     1     -10.688   4.171 -34.611  1.00  0.00    -0.272 OA
HETATM    6  N   UNL     1      -7.414   2.043 -32.745  1.00  0.00    -0.223 N 
HETATM    7  H   UNL     1      -9.716   1.468 -33.242  1.00  0.00     0.187 HD
HETATM    8  H   UNL     1      -6.469   2.434 -32.807  1.00  0.00     0.177 HD
ENDROOT
BRANCH   1   9
HETATM    9  C   UNL     1      -6.853   4.753 -33.339  1.00  0.00     0.764 A 
HETATM   10  N   UNL     1      -6.634   5.333 -32.140  1.00  0.00    -0.065 NA
HETATM   11  C   UNL     1      -5.411   5.868 -31.946  1.00  0.00     0.051 A 
HETATM   12  C   UNL     1      -5.142   6.500 -30.614  1.00  0.00     0.071 C 
HETATM   13  C   UNL     1      -4.430   5.847 -32.917  1.00  0.00     0.054 A 
HETATM   14  C   UNL     1      -4.755   5.239 -34.114  1.00  0.00     0.051 A 
HETATM   15  N   UNL     1      -5.962   4.686 -34.337  1.00  0.00    -0.065 NA
HETATM   16  C   UNL     1      -3.755   5.173 -35.227  1.00  0.00     0.071 C 
ENDBRANCH   1   9
BRANCH   6  17
HETATM   17  C   UNL     1      -7.446   0.593 -32.791  1.00  0.00     0.142 C 
BRANCH  17  18
HETATM   18  C   UNL     1      -6.895   0.092 -34.131  1.00  0.00     0.061 C 
BRANCH  18  19
HETATM   19  C   UNL     1      -5.768  -0.873 -33.958  1.00  0.00    -0.029 A 
HETATM   20  C   UNL     1      -5.790  -2.272 -34.264  1.00  0.00    -0.002 A 
HETATM   21  C   UNL     1      -4.537  -2.791 -33.943  1.00  0.00     0.042 A 
HETATM   22  C   UNL     1      -6.767  -3.148 -34.783  1.00  0.00     0.014 A 
HETATM   23  C   UNL     1      -4.209  -4.142 -34.113  1.00  0.00     0.030 A 
HETATM   24  N   UNL     1      -3.779  -1.750 -33.461  1.00  0.00    -0.365 N 
HETATM   25  C   UNL     1      -5.196  -4.988 -34.626  1.00  0.00     0.002 A 
HETATM   26  C   UNL     1      -6.458  -4.501 -34.959  1.00  0.00     0.001 A 
HETATM   27  H   UNL     1      -2.823  -1.836 -33.143  1.00  0.00     0.165 HD
HETATM   28  C   UNL     1      -4.508  -0.591 -33.467  1.00  0.00     0.096 A 
ENDBRANCH  18  19
ENDBRANCH  17  18
ENDBRANCH   6  17
BRANCH   4  29
HETATM   29  C   UNL     1     -11.947   2.149 -34.178  1.00  0.00     0.031 C 
HETATM   30  C   UNL     1     -12.445   1.988 -35.623  1.00  0.00     0.025 C 
HETATM   31  C   UNL     1     -11.607   0.752 -33.627  1.00  0.00     0.025 C 
HETATM   32  C   UNL     1     -13.048   2.767 -33.303  1.00  0.00     0.025 C 
ENDBRANCH   4  29
TORSDOF 5
ENDMDL
MODEL 4
REMARK VINA RESULT:      -9.0      2.820      4.323
REMARK  5 active torsions:
REMARK  status: ('A' for Active; 'I' for Inactive)
REMARK    1  A    between atoms: C_4  and  N_5 
REMARK       I    between atoms: C_6  and  N_7 
REMARK       I    between atoms: C_6  and  N_14 
REMARK       I    between atoms: N_7  and  C_8 
REMARK    2  A    between atoms: C_8  and  C_9 
REMARK    3  A    between atoms: N_14  and  C_15 
REMARK    4  A    between atoms: C_15  and  C_16 
REMARK    5  A    between atoms: C_16  and  C_17 
ROOT
HETATM    1  N   UNL     1      -5.989   4.210 -32.869  1.00  0.00     0.130 NA
HETATM    2  C   UNL     1      -4.902   3.519 -32.798  1.00  0.00     0.718 C 
HETATM    3  N   UNL     1      -3.696   4.161 -33.021  1.00  0.00    -0.157 N 
HETATM    4  C   UNL     1      -3.453   5.509 -33.293  1.00  0.00     0.243 C 
HETATM    5  O   UNL     1      -4.294   6.403 -33.276  1.00  0.00    -0.272 OA
HETATM    6  N   UNL     1      -4.831   2.172 -32.536  1.00  0.00    -0.223 N 
HETATM    7  H   UNL     1      -2.900   3.552 -33.035  1.00  0.00     0.187 HD
HETATM    8  H   UNL     1      -5.727   1.844 -32.166  1.00  0.00     0.177 HD
ENDROOT
BRANCH   1   9
HETATM    9  C   UNL     1      -7.244   3.644 -32.681  1.00  0.00     0.764 A 
HETATM   10  N   UNL     1      -8.023   4.096 -31.676  1.00  0.00    -0.065 NA
HETATM   11  C   UNL     1      -9.244   3.536 -31.563  1.00  0.00     0.051 A 
HETATM   12  C   UNL     1     -10.131   4.038 -30.465  1.00  0.00     0.071 C 
HETATM   13  C   UNL     1      -9.683   2.539 -32.412  1.00  0.00     0.054 A 
HETATM   14  C   UNL     1      -8.809   2.138 -33.402  1.00  0.00     0.051 A 
HETATM   15  N   UNL     1      -7.587   2.683 -33.550  1.00  0.00    -0.065 NA
HETATM   16  C   UNL     1      -9.198   1.058 -34.366  1.00  0.00     0.071 C 
ENDBRANCH   1   9
BRANCH   6  17
HETATM   17  C   UNL     1      -3.688   1.431 -32.034  1.00  0.00     0.142 C 
BRANCH  17  18
HETATM   18  C   UNL     1      -4.157   0.210 -31.235  1.00  0.00     0.061 C 
BRANCH  18  19
HETATM   19  C   UNL     1      -4.053  -1.057 -32.019  1.00  0.00    -0.029 A 
HETATM   20  C   UNL     1      -4.930  -1.486 -33.066  1.00  0.00    -0.002 A 
HETATM   21  C   UNL     1      -4.474  -2.724 -33.516  1.00  0.00     0.042 A 
HETATM   22  C   UNL     1      -6.079  -0.933 -33.672  1.00  0.00     0.014 A 
HETATM   23  C   UNL     1      -5.106  -3.441 -34.539  1.00  0.00     0.030 A 
HETATM   24  N   UNL     1      -3.360  -3.039 -32.773  1.00  0.00    -0.365 N 
HETATM   25  C   UNL     1      -6.243  -2.872 -35.120  1.00  0.00     0.002 A 
HETATM   26  C   UNL     1      -6.725  -1.635 -34.696  1.00  0.00     0.001 A 
HETATM   27  H   UNL     1      -2.822  -3.887 -32.879  1.00  0.00     0.165 HD
HETATM   28  C   UNL     1      -3.095  -2.043 -31.871  1.00  0.00     0.096 A 
ENDBRANCH  18  19
ENDBRANCH  17  18
ENDBRANCH   6  17
BRANCH   4  29
HETATM   29  C   UNL     1      -1.961   5.824 -33.559  1.00  0.00     0.031 C 
HETATM   30  C   UNL     1      -1.073   5.229 -32.455  1.00  0.00     0.025 C 
HETATM   31  C   UNL     1      -1.539   5.203 -34.904  1.00  0.00     0.025 C 
HETATM   32  C   UNL     1      -1.762   7.345 -33.638  1.00  0.00     0.025 C 
ENDBRANCH   4  29
TORSDOF 5
ENDMDL
MODEL 5
REMARK VINA RESULT:      -8.9      3.635      8.061
REMARK  5 active torsions:
REMARK  status: ('A' for Active; 'I' for Inactive)
REMARK    1  A    between atoms: C_4  and  N_5 
REMARK       I    between atoms: C_6  and  N_7 
REMARK       I    between atoms: C_6  and  N_14 
REMARK       I    between atoms: N_7  and  C_8 
REMARK    2  A    between atoms: C_8  and  C_9 
REMARK    3  A    between atoms: N_14  and  C_15 
REMARK    4  A    between atoms: C_15  and  C_16 
REMARK    5  A    between atoms: C_16  and  C_17 
ROOT
HETATM    1  N   UNL     1      -2.521   3.087 -32.095  1.00  0.00     0.130 NA
HETATM    2  C   UNL     1      -3.725   2.889 -31.678  1.00  0.00     0.718 C 
HETATM    3  N   UNL     1      -4.278   1.630 -31.833  1.00  0.00    -0.157 N 
HETATM    4  C   UNL     1      -3.703   0.475 -32.367  1.00  0.00     0.243 C 
HETATM    5  O   UNL     1      -2.530   0.354 -32.706  1.00  0.00    -0.272 OA
HETATM    6  N   UNL     1      -4.532   3.838 -31.099  1.00  0.00    -0.223 N 
HETATM    7  H   UNL     1      -5.242   1.567 -31.566  1.00  0.00     0.187 HD
HETATM    8  H   UNL     1      -3.971   4.649 -30.823  1.00  0.00     0.177 HD
ENDROOT
BRANCH   1   9
HETATM    9  C   UNL     1      -1.894   4.324 -32.001  1.00  0.00     0.764 A 
HETATM   10  N   UNL     1      -2.117   5.247 -32.960  1.00  0.00    -0.065 NA
HETATM   11  C   UNL     1      -1.512   6.440 -32.799  1.00  0.00     0.051 A 
HETATM   12  C   UNL     1      -1.762   7.484 -33.844  1.00  0.00     0.071 C 
HETATM   13  C   UNL     1      -0.690   6.715 -31.724  1.00  0.00     0.054 A 
HETATM   14  C   UNL     1      -0.516   5.702 -30.802  1.00  0.00     0.051 A 
HETATM   15  N   UNL     1      -1.114   4.503 -30.926  1.00  0.00    -0.065 NA
HETATM   16  C   UNL     1       0.363   5.908 -29.606  1.00  0.00     0.071 C 
ENDBRANCH   1   9
BRANCH   6  17
HETATM   17  C   UNL     1      -5.686   3.613 -30.248  1.00  0.00     0.142 C 
BRANCH  17  18
HETATM   18  C   UNL     1      -6.948   4.185 -30.902  1.00  0.00     0.061 C 
BRANCH  18  19
HETATM   19  C   UNL     1      -7.960   3.128 -31.207  1.00  0.00    -0.029 A 
HETATM   20  C   UNL     1      -8.040   2.345 -32.403  1.00  0.00    -0.002 A 
HETATM   21  C   UNL     1      -9.133   1.490 -32.273  1.00  0.00     0.042 A 
HETATM   22  C   UNL     1      -7.281   2.289 -33.592  1.00  0.00     0.014 A 
HETATM   23  C   UNL     1      -9.510   0.581 -33.269  1.00  0.00     0.030 A 
HETATM   24  N   UNL     1      -9.698   1.740 -31.044  1.00  0.00    -0.365 N 
HETATM   25  C   UNL     1      -8.743   0.548 -34.438  1.00  0.00     0.002 A 
HETATM   26  C   UNL     1      -7.644   1.388 -34.599  1.00  0.00     0.001 A 
HETATM   27  H   UNL     1     -10.514   1.268 -30.682  1.00  0.00     0.165 HD
HETATM   28  C   UNL     1      -8.999   2.722 -30.392  1.00  0.00     0.096 A 
ENDBRANCH  18  19
ENDBRANCH  17  18
ENDBRANCH   6  17
BRANCH   4  29
HETATM   29  C   UNL     1      -4.681  -0.724 -32.437  1.00  0.00     0.031 C 
HETATM   30  C   UNL     1      -5.207  -0.916 -33.868  1.00  0.00     0.025 C 
HETATM   31  C   UNL     1      -3.944  -2.009 -32.018  1.00  0.00     0.025 C 
HETATM   32  C   UNL     1      -5.850  -0.492 -31.467  1.00  0.00     0.025 C 
ENDBRANCH   4  29
TORSDOF 5
ENDMDL
MODEL 6
REMARK VINA RESULT:      -8.8      2.765      7.405
REMARK  5 active torsions:
REMARK  status: ('A' for Active; 'I' for Inactive)
REMARK    1  A    between atoms: C_4  and  N_5 
REMARK       I    between atoms: C_6  and  N_7 
REMARK       I    between atoms: C_6  and  N_14 
REMARK       I    between atoms: N_7  and  C_8 
REMARK    2  A    between atoms: C_8  and  C_9 
REMARK    3  A    between atoms: N_14  and  C_15 
REMARK    4  A    between atoms: C_15  and  C_16 
REMARK    5  A    between atoms: C_16  and  C_17 
ROOT
HETATM    1  N   UNL     1      -7.957  -0.273 -33.722  1.00  0.00     0.130 NA
HETATM    2  C   UNL     1      -7.887   1.002 -33.904  1.00  0.00     0.718 C 
HETATM    3  N   UNL     1      -9.051   1.745 -33.820  1.00  0.00    -0.157 N 
HETATM    4  C   UNL     1     -10.349   1.320 -33.526  1.00  0.00     0.243 C 
HETATM    5  O   UNL     1     -10.666   0.187 -33.177  1.00  0.00    -0.272 OA
HETATM    6  N   UNL     1      -6.742   1.701 -34.198  1.00  0.00    -0.223 N 
HETATM    7  H   UNL     1      -8.941   2.713 -34.055  1.00  0.00     0.187 HD
HETATM    8  H   UNL     1      -5.921   1.117 -34.014  1.00  0.00     0.177 HD
ENDROOT
BRANCH   1   9
HETATM    9  C   UNL     1      -6.843  -1.100 -33.809  1.00  0.00     0.764 A 
HETATM   10  N   UNL     1      -5.714  -0.749 -33.158  1.00  0.00    -0.065 NA
HETATM   11  C   UNL     1      -4.677  -1.605 -33.249  1.00  0.00     0.051 A 
HETATM   12  C   UNL     1      -3.420  -1.242 -32.518  1.00  0.00     0.071 C 
HETATM   13  C   UNL     1      -4.744  -2.776 -33.978  1.00  0.00     0.054 A 
HETATM   14  C   UNL     1      -5.940  -3.041 -34.616  1.00  0.00     0.051 A 
HETATM   15  N   UNL     1      -6.998  -2.213 -34.538  1.00  0.00    -0.065 NA
HETATM   16  C   UNL     1      -6.103  -4.286 -35.435  1.00  0.00     0.071 C 
ENDBRANCH   1   9
BRANCH   6  17
HETATM   17  C   UNL     1      -6.501   3.119 -34.004  1.00  0.00     0.142 C 
BRANCH  17  18
HETATM   18  C   UNL     1      -5.293   3.331 -33.083  1.00  0.00     0.061 C 
BRANCH  18  19
HETATM   19  C   UNL     1      -4.295   4.279 -33.664  1.00  0.00    -0.029 A 
HETATM   20  C   UNL     1      -3.077   4.715 -33.049  1.00  0.00    -0.002 A 
HETATM   21  C   UNL     1      -2.456   5.600 -33.930  1.00  0.00     0.042 A 
HETATM   22  C   UNL     1      -2.447   4.440 -31.817  1.00  0.00     0.014 A 
HETATM   23  C   UNL     1      -1.237   6.226 -33.643  1.00  0.00     0.030 A 
HETATM   24  N   UNL     1      -3.263   5.699 -35.040  1.00  0.00    -0.365 N 
HETATM   25  C   UNL     1      -0.635   5.938 -32.415  1.00  0.00     0.002 A 
HETATM   26  C   UNL     1      -1.228   5.058 -31.513  1.00  0.00     0.001 A 
HETATM   27  H   UNL     1      -3.063   6.279 -35.842  1.00  0.00     0.165 HD
HETATM   28  C   UNL     1      -4.370   4.907 -34.892  1.00  0.00     0.096 A 
ENDBRANCH  18  19
ENDBRANCH  17  18
ENDBRANCH   6  17
BRANCH   4  29
HETATM   29  C   UNL     1     -11.400   2.454 -33.605  1.00  0.00     0.031 C 
HETATM   30  C   UNL     1     -12.825   1.883 -33.519  1.00  0.00     0.025 C 
HETATM   31  C   UNL     1     -11.197   3.422 -32.425  1.00  0.00     0.025 C 
HETATM   32  C   UNL     1     -11.219   3.235 -34.915  1.00  0.00     0.025 C 
ENDBRANCH   4  29
TORSDOF 5
ENDMDL
MODEL 7
REMARK VINA RESULT:      -8.8      2.341      7.156
REMARK  5 active torsions:
REMARK  status: ('A' for Active; 'I' for Inactive)
REMARK    1  A    between atoms: C_4  and  N_5 
REMARK       I    between atoms: C_6  and  N_7 
REMARK       I    between atoms: C_6  and  N_14 
REMARK       I    between atoms: N_7  and  C_8 
REMARK    2  A    between atoms: C_8  and  C_9 
REMARK    3  A    between atoms: N_14  and  C_15 
REMARK    4  A    between atoms: C_15  and  C_16 
REMARK    5  A    between atoms: C_16  and  C_17 
ROOT
HETATM    1  N   UNL     1      -7.984  -0.030 -33.202  1.00  0.00     0.130 NA
HETATM    2  C   UNL     1      -8.231   1.185 -33.559  1.00  0.00     0.718 C 
HETATM    3  N   UNL     1      -9.551   1.580 -33.685  1.00  0.00    -0.157 N 
HETATM    4  C   UNL     1     -10.716   0.848 -33.449  1.00  0.00     0.243 C 
HETATM    5  O   UNL     1     -10.764  -0.281 -32.970  1.00  0.00    -0.272 OA
HETATM    6  N   UNL     1      -7.284   2.137 -33.849  1.00  0.00    -0.223 N 
HETATM    7  H   UNL     1      -9.672   2.507 -34.047  1.00  0.00     0.187 HD
HETATM    8  H   UNL     1      -6.368   1.828 -33.511  1.00  0.00     0.177 HD
ENDROOT
BRANCH   1   9
HETATM    9  C   UNL     1      -6.690  -0.519 -33.071  1.00  0.00     0.764 A 
HETATM   10  N   UNL     1      -5.889  -0.005 -32.114  1.00  0.00    -0.065 NA
HETATM   11  C   UNL     1      -4.657  -0.541 -32.010  1.00  0.00     0.051 A 
HETATM   12  C   UNL     1      -3.759   0.003 -30.941  1.00  0.00     0.071 C 
HETATM   13  C   UNL     1      -4.215  -1.551 -32.841  1.00  0.00     0.054 A 
HETATM   14  C   UNL     1      -5.105  -2.002 -33.795  1.00  0.00     0.051 A 
HETATM   15  N   UNL     1      -6.346  -1.497 -33.920  1.00  0.00    -0.065 NA
HETATM   16  C   UNL     1      -4.711  -3.093 -34.744  1.00  0.00     0.071 C 
ENDBRANCH   1   9
BRANCH   6  17
HETATM   17  C   UNL     1      -7.452   3.578 -33.840  1.00  0.00     0.142 C 
BRANCH  17  18
HETATM   18  C   UNL     1      -7.035   4.152 -32.481  1.00  0.00     0.061 C 
BRANCH  18  19
HETATM   19  C   UNL     1      -5.561   4.060 -32.252  1.00  0.00    -0.029 A 
HETATM   20  C   UNL     1      -4.532   4.461 -33.163  1.00  0.00    -0.002 A 
HETATM   21  C   UNL     1      -3.306   4.193 -32.555  1.00  0.00     0.042 A 
HETATM   22  C   UNL     1      -4.531   5.025 -34.457  1.00  0.00     0.014 A 
HETATM   23  C   UNL     1      -2.078   4.459 -33.172  1.00  0.00     0.030 A 
HETATM   24  N   UNL     1      -3.577   3.651 -31.320  1.00  0.00    -0.365 N 
HETATM   25  C   UNL     1      -2.105   5.015 -34.454  1.00  0.00     0.002 A 
HETATM   26  C   UNL     1      -3.312   5.296 -35.090  1.00  0.00     0.001 A 
HETATM   27  H   UNL     1      -2.874   3.354 -30.658  1.00  0.00     0.165 HD
HETATM   28  C   UNL     1      -4.930   3.569 -31.126  1.00  0.00     0.096 A 
ENDBRANCH  18  19
ENDBRANCH  17  18
ENDBRANCH   6  17
BRANCH   4  29
HETATM   29  C   UNL     1     -12.012   1.627 -33.782  1.00  0.00     0.031 C 
HETATM   30  C   UNL     1     -13.253   0.757 -33.527  1.00  0.00     0.025 C 
HETATM   31  C   UNL     1     -12.104   2.873 -32.881  1.00  0.00     0.025 C 
HETATM   32  C   UNL     1     -11.975   2.085 -35.248  1.00  0.00     0.025 C 
ENDBRANCH   4  29
TORSDOF 5
ENDMDL
MODEL 8
REMARK VINA RESULT:      -8.7      3.511      6.895
REMARK  5 active torsions:
REMARK  status: ('A' for Active; 'I' for Inactive)
REMARK    1  A    between atoms: C_4  and  N_5 
REMARK       I    between atoms: C_6  and  N_7 
REMARK       I    between atoms: C_6  and  N_14 
REMARK       I    between atoms: N_7  and  C_8 
REMARK    2  A    between atoms: C_8  and  C_9 
REMARK    3  A    between atoms: N_14  and  C_15 
REMARK    4  A    between atoms: C_15  and  C_16 
REMARK    5  A    between atoms: C_16  and  C_17 
ROOT
HETATM    1  N   UNL     1      -2.995   2.927 -31.614  1.00  0.00     0.130 NA
HETATM    2  C   UNL     1      -3.556   4.061 -31.864  1.00  0.00     0.718 C 
HETATM    3  N   UNL     1      -2.787   5.209 -31.787  1.00  0.00    -0.157 N 
HETATM    4  C   UNL     1      -1.428   5.341 -31.497  1.00  0.00     0.243 C 
HETATM    5  O   UNL     1      -0.635   4.414 -31.359  1.00  0.00    -0.272 OA
HETATM    6  N   UNL     1      -4.879   4.239 -32.189  1.00  0.00    -0.223 N 
HETATM    7  H   UNL     1      -3.302   6.060 -31.909  1.00  0.00     0.187 HD
HETATM    8  H   UNL     1      -5.298   3.340 -32.442  1.00  0.00     0.177 HD
ENDROOT
BRANCH   1   9
HETATM    9  C   UNL     1      -3.695   1.727 -31.646  1.00  0.00     0.764 A 
HETATM   10  N   UNL     1      -3.360   0.798 -32.566  1.00  0.00    -0.065 NA
HETATM   11  C   UNL     1      -4.048  -0.361 -32.528  1.00  0.00     0.051 A 
HETATM   12  C   UNL     1      -3.679  -1.412 -33.530  1.00  0.00     0.071 C 
HETATM   13  C   UNL     1      -5.057  -0.594 -31.615  1.00  0.00     0.054 A 
HETATM   14  C   UNL     1      -5.332   0.422 -30.721  1.00  0.00     0.051 A 
HETATM   15  N   UNL     1      -4.657   1.587 -30.724  1.00  0.00    -0.065 NA
HETATM   16  C   UNL     1      -6.413   0.260 -29.697  1.00  0.00     0.071 C 
ENDBRANCH   1   9
BRANCH   6  17
HETATM   17  C   UNL     1      -5.473   5.371 -32.876  1.00  0.00     0.142 C 
BRANCH  17  18
HETATM   18  C   UNL     1      -6.618   4.902 -33.780  1.00  0.00     0.061 C 
BRANCH  18  19
HETATM   19  C   UNL     1      -7.391   3.773 -33.180  1.00  0.00    -0.029 A 
HETATM   20  C   UNL     1      -7.367   2.405 -33.602  1.00  0.00    -0.002 A 
HETATM   21  C   UNL     1      -8.239   1.695 -32.777  1.00  0.00     0.042 A 
HETATM   22  C   UNL     1      -6.683   1.703 -34.618  1.00  0.00     0.014 A 
HETATM   23  C   UNL     1      -8.464   0.320 -32.915  1.00  0.00     0.030 A 
HETATM   24  N   UNL     1      -8.773   2.595 -31.885  1.00  0.00    -0.365 N 
HETATM   25  C   UNL     1      -7.777  -0.350 -33.931  1.00  0.00     0.002 A 
HETATM   26  C   UNL     1      -6.897   0.328 -34.771  1.00  0.00     0.001 A 
HETATM   27  H   UNL     1      -9.446   2.360 -31.168  1.00  0.00     0.165 HD
HETATM   28  C   UNL     1      -8.269   3.848 -32.116  1.00  0.00     0.096 A 
ENDBRANCH  18  19
ENDBRANCH  17  18
ENDBRANCH   6  17
BRANCH   4  29
HETATM   29  C   UNL     1      -0.952   6.813 -31.431  1.00  0.00     0.031 C 
HETATM   30  C   UNL     1      -1.627   7.552 -30.265  1.00  0.00     0.025 C 
HETATM   31  C   UNL     1       0.571   6.848 -31.207  1.00  0.00     0.025 C 
HETATM   32  C   UNL     1      -1.268   7.516 -32.760  1.00  0.00     0.025 C 
ENDBRANCH   4  29
TORSDOF 5
ENDMDL
MODEL 9
REMARK VINA RESULT:      -8.7      2.067      5.944
REMARK  5 active torsions:
REMARK  status: ('A' for Active; 'I' for Inactive)
REMARK    1  A    between atoms: C_4  and  N_5 
REMARK       I    between atoms: C_6  and  N_7 
REMARK       I    between atoms: C_6  and  N_14 
REMARK       I    between atoms: N_7  and  C_8 
REMARK    2  A    between atoms: C_8  and  C_9 
REMARK    3  A    between atoms: N_14  and  C_15 
REMARK    4  A    between atoms: C_15  and  C_16 
REMARK    5  A    between atoms: C_16  and  C_17 
ROOT
HETATM    1  N   UNL     1      -7.942   3.834 -33.884  1.00  0.00     0.130 NA
HETATM    2  C   UNL     1      -8.499   2.672 -33.945  1.00  0.00     0.718 C 
HETATM    3  N   UNL     1      -9.833   2.597 -34.305  1.00  0.00    -0.157 N 
HETATM    4  C   UNL     1     -10.709   3.626 -34.659  1.00  0.00     0.243 C 
HETATM    5  O   UNL     1     -10.400   4.802 -34.817  1.00  0.00    -0.272 OA
HETATM    6  N   UNL     1      -7.881   1.479 -33.661  1.00  0.00    -0.223 N 
HETATM    7  H   UNL     1     -10.225   1.676 -34.250  1.00  0.00     0.187 HD
HETATM    8  H   UNL     1      -6.866   1.612 -33.633  1.00  0.00     0.177 HD
ENDROOT
BRANCH   1   9
HETATM    9  C   UNL     1      -6.615   4.005 -33.511  1.00  0.00     0.764 A 
HETATM   10  N   UNL     1      -6.218   3.587 -32.291  1.00  0.00    -0.065 NA
HETATM   11  C   UNL     1      -4.912   3.746 -31.996  1.00  0.00     0.051 A 
HETATM   12  C   UNL     1      -4.449   3.271 -30.653  1.00  0.00     0.071 C 
HETATM   13  C   UNL     1      -4.018   4.320 -32.878  1.00  0.00     0.054 A 
HETATM   14  C   UNL     1      -4.523   4.725 -34.097  1.00  0.00     0.051 A 
HETATM   15  N   UNL     1      -5.819   4.572 -34.428  1.00  0.00    -0.065 NA
HETATM   16  C   UNL     1      -3.628   5.363 -35.115  1.00  0.00     0.071 C 
ENDBRANCH   1   9
BRANCH   6  17
HETATM   17  C   UNL     1      -8.281   0.153 -34.097  1.00  0.00     0.142 C 
BRANCH  17  18
HETATM   18  C   UNL     1      -7.314  -0.368 -35.166  1.00  0.00     0.061 C 
BRANCH  18  19
HETATM   19  C   UNL     1      -6.334  -1.353 -34.615  1.00  0.00    -0.029 A 
HETATM   20  C   UNL     1      -5.259  -1.070 -33.713  1.00  0.00    -0.002 A 
HETATM   21  C   UNL     1      -4.593  -2.270 -33.466  1.00  0.00     0.042 A 
HETATM   22  C   UNL     1      -4.787   0.102 -33.085  1.00  0.00     0.014 A 
HETATM   23  C   UNL     1      -3.477  -2.359 -32.623  1.00  0.00     0.030 A 
HETATM   24  N   UNL     1      -5.237  -3.247 -34.188  1.00  0.00    -0.365 N 
HETATM   25  C   UNL     1      -3.029  -1.183 -32.016  1.00  0.00     0.002 A 
HETATM   26  C   UNL     1      -3.673   0.032 -32.241  1.00  0.00     0.001 A 
HETATM   27  H   UNL     1      -4.966  -4.220 -34.204  1.00  0.00     0.165 HD
HETATM   28  C   UNL     1      -6.288  -2.708 -34.881  1.00  0.00     0.096 A 
ENDBRANCH  18  19
ENDBRANCH  17  18
ENDBRANCH   6  17
BRANCH   4  29
HETATM   29  C   UNL     1     -12.155   3.139 -34.923  1.00  0.00     0.031 C 
HETATM   30  C   UNL     1     -12.726   3.788 -36.194  1.00  0.00     0.025 C 
HETATM   31  C   UNL     1     -12.152   1.612 -35.122  1.00  0.00     0.025 C 
HETATM   32  C   UNL     1     -13.039   3.473 -33.713  1.00  0.00     0.025 C 
ENDBRANCH   4  29
TORSDOF 5
ENDMDL
MODEL 10
REMARK VINA RESULT:      -8.4      2.412      5.193
REMARK  5 active torsions:
REMARK  status: ('A' for Active; 'I' for Inactive)
REMARK    1  A    between atoms: C_4  and  N_5 
REMARK       I    between atoms: C_6  and  N_7 
REMARK       I    between atoms: C_6  and  N_14 
REMARK       I    between atoms: N_7  and  C_8 
REMARK    2  A    between atoms: C_8  and  C_9 
REMARK    3  A    between atoms: N_14  and  C_15 
REMARK    4  A    between atoms: C_15  and  C_16 
REMARK    5  A    between atoms: C_16  and  C_17 
ROOT
HETATM    1  N   UNL     1      -8.940   1.146 -33.399  1.00  0.00     0.130 NA
HETATM    2  C   UNL     1      -8.246   1.856 -32.576  1.00  0.00     0.718 C 
HETATM    3  N   UNL     1      -6.989   1.406 -32.212  1.00  0.00    -0.157 N 
HETATM    4  C   UNL     1      -6.306   0.264 -32.636  1.00  0.00     0.243 C 
HETATM    5  O   UNL     1      -6.679  -0.504 -33.517  1.00  0.00    -0.272 OA
HETATM    6  N   UNL     1      -8.657   3.035 -32.001  1.00  0.00    -0.223 N 
HETATM    7  H   UNL     1      -6.541   1.959 -31.507  1.00  0.00     0.187 HD
HETATM    8  H   UNL     1      -9.477   3.395 -32.496  1.00  0.00     0.177 HD
ENDROOT
BRANCH   1   9
HETATM    9  C   UNL     1     -10.218   1.510 -33.803  1.00  0.00     0.764 A 
HETATM   10  N   UNL     1     -10.396   2.693 -34.430  1.00  0.00    -0.065 NA
HETATM   11  C   UNL     1     -11.651   2.978 -34.830  1.00  0.00     0.051 A 
HETATM   12  C   UNL     1     -11.865   4.278 -35.545  1.00  0.00     0.071 C 
HETATM   13  C   UNL     1     -12.713   2.126 -34.604  1.00  0.00     0.054 A 
HETATM   14  C   UNL     1     -12.431   0.945 -33.945  1.00  0.00     0.051 A 
HETATM   15  N   UNL     1     -11.188   0.624 -33.541  1.00  0.00    -0.065 NA
HETATM   16  C   UNL     1     -13.523  -0.039 -33.651  1.00  0.00     0.071 C 
ENDBRANCH   1   9
BRANCH   6  17
HETATM   17  C   UNL     1      -7.821   4.074 -31.429  1.00  0.00     0.142 C 
BRANCH  17  18
HETATM   18  C   UNL     1      -6.932   4.695 -32.512  1.00  0.00     0.061 C 
BRANCH  18  19
HETATM   19  C   UNL     1      -5.479   4.613 -32.171  1.00  0.00    -0.029 A 
HETATM   20  C   UNL     1      -4.381   4.815 -33.068  1.00  0.00    -0.002 A 
HETATM   21  C   UNL     1      -3.206   4.636 -32.340  1.00  0.00     0.042 A 
HETATM   22  C   UNL     1      -4.280   5.131 -34.440  1.00  0.00     0.014 A 
HETATM   23  C   UNL     1      -1.933   4.755 -32.911  1.00  0.00     0.030 A 
HETATM   24  N   UNL     1      -3.572   4.338 -31.048  1.00  0.00    -0.365 N 
HETATM   25  C   UNL     1      -1.861   5.065 -34.272  1.00  0.00     0.002 A 
HETATM   26  C   UNL     1      -3.016   5.252 -35.028  1.00  0.00     0.001 A 
HETATM   27  H   UNL     1      -2.922   4.152 -30.297  1.00  0.00     0.165 HD
HETATM   28  C   UNL     1      -4.937   4.324 -30.934  1.00  0.00     0.096 A 
ENDBRANCH  18  19
ENDBRANCH  17  18
ENDBRANCH   6  17
BRANCH   4  29
HETATM   29  C   UNL     1      -4.941   0.067 -31.932  1.00  0.00     0.031 C 
HETATM   30  C   UNL     1      -4.424  -1.366 -32.136  1.00  0.00     0.025 C 
HETATM   31  C   UNL     1      -3.910   1.041 -32.535  1.00  0.00     0.025 C 
HETATM   32  C   UNL     1      -5.085   0.373 -30.434  1.00  0.00     0.025 C 
ENDBRANCH   4  29
TORSDOF 5
ENDMDL
