MODEL 1
REMARK VINA RESULT:      -8.6      0.000      0.000
REMARK  9 active torsions:
REMARK  status: ('A' for Active; 'I' for Inactive)
REMARK       I    between atoms: C_2  and  N_3 
REMARK    1  A    between atoms: N_3  and  C_4 
REMARK    2  A    between atoms: C_6  and  O_7 
REMARK    3  A    between atoms: O_7  and  C_8 
REMARK    4  A    between atoms: C_8  and  C_9 
REMARK    5  A    between atoms: C_9  and  C_10 
REMARK    6  A    between atoms: C_10  and  C_11 
REMARK    7  A    between atoms: C_11  and  N_12 
REMARK       I    between atoms: N_12  and  C_13 
REMARK    8  A    between atoms: C_13  and  C_14 
REMARK    9  A    between atoms: C_18  and  C_19 
ROOT
HETATM    1  N   UNL     1      -5.257   4.553 -28.580  1.00  0.00    -0.345 N 
HETATM    2  C   UNL     1      -5.856   4.197 -29.760  1.00  0.00     0.270 C 
HETATM    3  O   UNL     1      -6.862   4.752 -30.186  1.00  0.00    -0.266 OA
HETATM    4  H   UNL     1      -4.495   4.002 -28.216  1.00  0.00     0.163 HD
ENDROOT
BRANCH   1   5
HETATM    5  C   UNL     1      -5.796   5.590 -27.740  1.00  0.00     0.217 C 
BRANCH   5   6
HETATM    6  C   UNL     1      -4.766   6.703 -27.643  1.00  0.00    -0.085 C 
BRANCH   6   7
HETATM    7  C   UNL     1      -3.882   7.659 -27.560  1.00  0.00    -0.078 C 
BRANCH   7   8
HETATM    8  C   UNL     1      -2.908   8.750 -27.419  1.00  0.00     0.269 C 
BRANCH   8   9
HETATM    9  O   UNL     1      -2.490   9.178 -28.715  1.00  0.00    -0.339 OA
BRANCH   9  10
HETATM   10  C   UNL     1      -1.613   8.362 -29.379  1.00  0.00     0.072 A 
HETATM   11  C   UNL     1      -1.880   7.652 -30.555  1.00  0.00     0.066 A 
HETATM   12  C   UNL     1      -0.896   6.851 -31.145  1.00  0.00     0.037 A 
HETATM   13  C   UNL     1       0.363   6.763 -30.539  1.00  0.00     0.029 A 
HETATM   14  C   UNL     1       0.636   7.466 -29.365  1.00  0.00     0.005 A 
HETATM   15  C   UNL     1      -0.352   8.263 -28.789  1.00  0.00     0.037 A 
BRANCH  12  16
HETATM   16  N   UNL     1      -1.092   6.109 -32.331  1.00  0.00    -0.327 N 
HETATM   17  C   UNL     1      -1.363   6.598 -33.597  1.00  0.00     0.218 C 
HETATM   18  C   UNL     1      -1.504   5.500 -34.622  1.00  0.00     0.117 C 
HETATM   19  O   UNL     1      -1.462   7.775 -33.928  1.00  0.00    -0.274 OA
HETATM   20  H   UNL     1      -1.010   5.105 -32.239  1.00  0.00     0.169 HD
ENDBRANCH  12  16
ENDBRANCH   9  10
ENDBRANCH   8   9
ENDBRANCH   7   8
ENDBRANCH   6   7
ENDBRANCH   5   6
ENDBRANCH   1   5
BRANCH   2  21
HETATM   21  C   UNL     1      -5.218   3.116 -30.463  1.00  0.00     0.120 A 
HETATM   22  N   UNL     1      -3.890   3.151 -30.781  1.00  0.00    -0.272 N 
HETATM   23  H   UNL     1      -3.233   3.896 -30.569  1.00  0.00     0.189 HD
HETATM   24  N   UNL     1      -3.453   2.070 -31.444  1.00  0.00    -0.174 NA
HETATM   25  C   UNL     1      -4.531   1.279 -31.558  1.00  0.00     0.089 A 
HETATM   26  C   UNL     1      -5.659   1.902 -30.952  1.00  0.00     0.071 A 
BRANCH  25  27
HETATM   27  C   UNL     1      -4.466  -0.023 -32.234  1.00  0.00    -0.003 A 
HETATM   28  C   UNL     1      -3.722  -1.074 -31.671  1.00  0.00     0.053 A 
HETATM   29  C   UNL     1      -3.672  -2.279 -32.342  1.00  0.00     0.106 A 
HETATM   30  C   UNL     1      -4.328  -2.473 -33.534  1.00  0.00     0.105 A 
HETATM   31  O   UNL     1      -2.995  -3.388 -31.938  1.00  0.00    -0.323 OA
HETATM   32  O   UNL     1      -4.148  -3.726 -34.029  1.00  0.00    -0.323 OA
HETATM   33  C   UNL     1      -5.073  -1.475 -34.119  1.00  0.00     0.040 A 
HETATM   34  C   UNL     1      -3.301  -4.300 -33.012  1.00  0.00     0.352 A 
HETATM   35  C   UNL     1      -5.141  -0.240 -33.461  1.00  0.00     0.017 A 
ENDBRANCH  25  27
ENDBRANCH   2  21
TORSDOF 9
ENDMDL
MODEL 2
REMARK VINA RESULT:      -8.5      3.412     10.832
REMARK  9 active torsions:
REMARK  status: ('A' for Active; 'I' for Inactive)
REMARK       I    between atoms: C_2  and  N_3 
REMARK    1  A    between atoms: N_3  and  C_4 
REMARK    2  A    between atoms: C_6  and  O_7 
REMARK    3  A    between atoms: O_7  and  C_8 
REMARK    4  A    between atoms: C_8  and  C_9 
REMARK    5  A    between atoms: C_9  and  C_10 
REMARK    6  A    between atoms: C_10  and  C_11 
REMARK    7  A    between atoms: C_11  and  N_12 
REMARK       I    between atoms: N_12  and  C_13 
REMARK    8  A    between atoms: C_13  and  C_14 
REMARK    9  A    between atoms: C_18  and  C_19 
ROOT
HETATM    1  N   UNL     1      -2.559   4.976 -31.043  1.00  0.00    -0.345 N 
HETATM    2  C   UNL     1      -1.250   5.321 -31.256  1.00  0.00     0.270 C 
HETATM    3  O   UNL     1      -0.698   5.190 -32.343  1.00  0.00    -0.266 OA
HETATM    4  H   UNL     1      -2.941   5.002 -30.111  1.00  0.00     0.163 HD
ENDROOT
BRANCH   1   5
HETATM    5  C   UNL     1      -3.369   4.398 -32.084  1.00  0.00     0.217 C 
BRANCH   5   6
HETATM    6  C   UNL     1      -3.387   2.892 -31.887  1.00  0.00    -0.085 C 
BRANCH   6   7
HETATM    7  C   UNL     1      -3.403   1.599 -31.719  1.00  0.00    -0.078 C 
BRANCH   7   8
HETATM    8  C   UNL     1      -3.401   0.135 -31.580  1.00  0.00     0.269 C 
BRANCH   8   9
HETATM    9  O   UNL     1      -3.311  -0.459 -32.874  1.00  0.00    -0.339 OA
BRANCH   9  10
HETATM   10  C   UNL     1      -4.478  -0.921 -33.422  1.00  0.00     0.072 A 
HETATM   11  C   UNL     1      -5.681  -0.211 -33.516  1.00  0.00     0.066 A 
HETATM   12  C   UNL     1      -6.809  -0.791 -34.104  1.00  0.00     0.037 A 
HETATM   13  C   UNL     1      -6.724  -2.100 -34.595  1.00  0.00     0.029 A 
HETATM   14  C   UNL     1      -5.529  -2.815 -34.502  1.00  0.00     0.005 A 
HETATM   15  C   UNL     1      -4.412  -2.224 -33.917  1.00  0.00     0.037 A 
BRANCH  12  16
HETATM   16  N   UNL     1      -8.053  -0.136 -34.236  1.00  0.00    -0.327 N 
HETATM   17  C   UNL     1      -8.878   0.324 -33.224  1.00  0.00     0.218 C 
HETATM   18  C   UNL     1     -10.129   0.981 -33.751  1.00  0.00     0.117 C 
HETATM   19  O   UNL     1      -8.666   0.266 -32.017  1.00  0.00    -0.274 OA
HETATM   20  H   UNL     1      -8.366   0.024 -35.185  1.00  0.00     0.169 HD
ENDBRANCH  12  16
ENDBRANCH   9  10
ENDBRANCH   8   9
ENDBRANCH   7   8
ENDBRANCH   6   7
ENDBRANCH   5   6
ENDBRANCH   1   5
BRANCH   2  21
HETATM   21  C   UNL     1      -0.567   5.848 -30.106  1.00  0.00     0.120 A 
HETATM   22  N   UNL     1       0.170   5.048 -29.279  1.00  0.00    -0.272 N 
HETATM   23  H   UNL     1       0.317   4.047 -29.374  1.00  0.00     0.189 HD
HETATM   24  N   UNL     1       0.736   5.692 -28.248  1.00  0.00    -0.174 NA
HETATM   25  C   UNL     1       0.373   6.975 -28.405  1.00  0.00     0.089 A 
HETATM   26  C   UNL     1      -0.446   7.112 -29.562  1.00  0.00     0.071 A 
BRANCH  25  27
HETATM   27  C   UNL     1       0.798   8.019 -27.463  1.00  0.00    -0.003 A 
HETATM   28  C   UNL     1       1.766   7.734 -26.484  1.00  0.00     0.053 A 
HETATM   29  C   UNL     1       2.130   8.735 -25.608  1.00  0.00     0.106 A 
HETATM   30  C   UNL     1       1.576   9.991 -25.670  1.00  0.00     0.105 A 
HETATM   31  O   UNL     1       3.042   8.621 -24.604  1.00  0.00    -0.323 OA
HETATM   32  O   UNL     1       2.068  10.826 -24.717  1.00  0.00    -0.323 OA
HETATM   33  C   UNL     1       0.630  10.317 -26.615  1.00  0.00     0.040 A 
HETATM   34  C   UNL     1       2.997   9.950 -24.044  1.00  0.00     0.352 A 
HETATM   35  C   UNL     1       0.239   9.319 -27.519  1.00  0.00     0.017 A 
ENDBRANCH  25  27
ENDBRANCH   2  21
TORSDOF 9
ENDMDL
MODEL 3
REMARK VINA RESULT:      -8.4      3.932     11.255
REMARK  9 active torsions:
REMARK  status: ('A' for Active; 'I' for Inactive)
REMARK       I    between atoms: C_2  and  N_3 
REMARK    1  A    between atoms: N_3  and  C_4 
REMARK    2  A    between atoms: C_6  and  O_7 
REMARK    3  A    between atoms: O_7  and  C_8 
REMARK    4  A    between atoms: C_8  and  C_9 
REMARK    5  A    between atoms: C_9  and  C_10 
REMARK    6  A    between atoms: C_10  and  C_11 
REMARK    7  A    between atoms: C_11  and  N_12 
REMARK       I    between atoms: N_12  and  C_13 
REMARK    8  A    between atoms: C_13  and  C_14 
REMARK    9  A    between atoms: C_18  and  C_19 
ROOT
HETATM    1  N   UNL     1      -1.210   5.261 -30.522  1.00  0.00    -0.345 N 
HETATM    2  C   UNL     1      -0.180   6.152 -30.368  1.00  0.00     0.270 C 
HETATM    3  O   UNL     1       0.489   6.561 -31.310  1.00  0.00    -0.266 OA
HETATM    4  H   UNL     1      -1.664   4.872 -29.711  1.00  0.00     0.163 HD
ENDROOT
BRANCH   1   5
HETATM    5  C   UNL     1      -1.553   4.715 -31.809  1.00  0.00     0.217 C 
BRANCH   5   6
HETATM    6  C   UNL     1      -2.885   3.996 -31.678  1.00  0.00    -0.085 C 
BRANCH   6   7
HETATM    7  C   UNL     1      -4.029   3.379 -31.565  1.00  0.00    -0.078 C 
BRANCH   7   8
HETATM    8  C   UNL     1      -5.292   2.645 -31.408  1.00  0.00     0.269 C 
BRANCH   8   9
HETATM    9  O   UNL     1      -5.070   1.262 -31.685  1.00  0.00    -0.339 OA
BRANCH   9  10
HETATM   10  C   UNL     1      -5.715   0.741 -32.775  1.00  0.00     0.072 A 
HETATM   11  C   UNL     1      -5.873  -0.619 -33.064  1.00  0.00     0.066 A 
HETATM   12  C   UNL     1      -6.559  -1.031 -34.211  1.00  0.00     0.037 A 
HETATM   13  C   UNL     1      -7.085  -0.062 -35.074  1.00  0.00     0.029 A 
HETATM   14  C   UNL     1      -6.929   1.296 -34.794  1.00  0.00     0.005 A 
HETATM   15  C   UNL     1      -6.245   1.693 -33.646  1.00  0.00     0.037 A 
BRANCH  12  16
HETATM   16  N   UNL     1      -6.761  -2.383 -34.565  1.00  0.00    -0.327 N 
HETATM   17  C   UNL     1      -5.800  -3.317 -34.915  1.00  0.00     0.218 C 
HETATM   18  C   UNL     1      -6.394  -4.668 -35.226  1.00  0.00     0.117 C 
HETATM   19  O   UNL     1      -4.587  -3.144 -34.960  1.00  0.00    -0.274 OA
HETATM   20  H   UNL     1      -7.720  -2.703 -34.548  1.00  0.00     0.169 HD
ENDBRANCH  12  16
ENDBRANCH   9  10
ENDBRANCH   8   9
ENDBRANCH   7   8
ENDBRANCH   6   7
ENDBRANCH   5   6
ENDBRANCH   1   5
BRANCH   2  21
HETATM   21  C   UNL     1       0.062   6.573 -29.015  1.00  0.00     0.120 A 
HETATM   22  N   UNL     1      -0.280   5.791 -27.947  1.00  0.00    -0.272 N 
HETATM   23  H   UNL     1      -0.716   4.875 -27.980  1.00  0.00     0.189 HD
HETATM   24  N   UNL     1       0.005   6.332 -26.754  1.00  0.00    -0.174 NA
HETATM   25  C   UNL     1       0.573   7.514 -27.040  1.00  0.00     0.089 A 
HETATM   26  C   UNL     1       0.626   7.701 -28.451  1.00  0.00     0.071 A 
BRANCH  25  27
HETATM   27  C   UNL     1       1.034   8.426 -25.985  1.00  0.00    -0.003 A 
HETATM   28  C   UNL     1       2.398   8.484 -25.650  1.00  0.00     0.053 A 
HETATM   29  C   UNL     1       2.792   9.342 -24.643  1.00  0.00     0.106 A 
HETATM   30  C   UNL     1       1.893  10.133 -23.971  1.00  0.00     0.105 A 
HETATM   31  O   UNL     1       4.066   9.511 -24.196  1.00  0.00    -0.323 OA
HETATM   32  O   UNL     1       2.485  10.900 -23.017  1.00  0.00    -0.323 OA
HETATM   33  C   UNL     1       0.549  10.114 -24.269  1.00  0.00     0.040 A 
HETATM   34  C   UNL     1       3.863  10.499 -23.166  1.00  0.00     0.352 A 
HETATM   35  C   UNL     1       0.119   9.252 -25.286  1.00  0.00     0.017 A 
ENDBRANCH  25  27
ENDBRANCH   2  21
TORSDOF 9
ENDMDL
MODEL 4
REMARK VINA RESULT:      -8.4      1.532      1.678
REMARK  9 active torsions:
REMARK  status: ('A' for Active; 'I' for Inactive)
REMARK       I    between atoms: C_2  and  N_3 
REMARK    1  A    between atoms: N_3  and  C_4 
REMARK    2  A    between atoms: C_6  and  O_7 
REMARK    3  A    between atoms: O_7  and  C_8 
REMARK    4  A    between atoms: C_8  and  C_9 
REMARK    5  A    between atoms: C_9  and  C_10 
REMARK    6  A    between atoms: C_10  and  C_11 
REMARK    7  A    between atoms: C_11  and  N_12 
REMARK       I    between atoms: N_12  and  C_13 
REMARK    8  A    between atoms: C_13  and  C_14 
REMARK    9  A    between atoms: C_18  and  C_19 
ROOT
HETATM    1  N   UNL     1      -6.815   4.557 -28.811  1.00  0.00    -0.345 N 
HETATM    2  C   UNL     1      -7.676   3.933 -29.675  1.00  0.00     0.270 C 
HETATM    3  O   UNL     1      -8.765   4.406 -29.982  1.00  0.00    -0.266 OA
HETATM    4  H   UNL     1      -5.979   4.084 -28.506  1.00  0.00     0.163 HD
ENDROOT
BRANCH   1   5
HETATM    5  C   UNL     1      -7.152   5.803 -28.174  1.00  0.00     0.217 C 
BRANCH   5   6
HETATM    6  C   UNL     1      -5.980   6.755 -28.349  1.00  0.00    -0.085 C 
BRANCH   6   7
HETATM    7  C   UNL     1      -4.975   7.572 -28.499  1.00  0.00    -0.078 C 
BRANCH   7   8
HETATM    8  C   UNL     1      -3.817   8.468 -28.627  1.00  0.00     0.269 C 
BRANCH   8   9
HETATM    9  O   UNL     1      -2.652   7.802 -28.140  1.00  0.00    -0.339 OA
BRANCH   9  10
HETATM   10  C   UNL     1      -1.712   7.446 -29.070  1.00  0.00     0.072 A 
HETATM   11  C   UNL     1      -1.965   6.817 -30.294  1.00  0.00     0.066 A 
HETATM   12  C   UNL     1      -0.916   6.506 -31.167  1.00  0.00     0.037 A 
HETATM   13  C   UNL     1       0.395   6.826 -30.796  1.00  0.00     0.029 A 
HETATM   14  C   UNL     1       0.655   7.450 -29.575  1.00  0.00     0.005 A 
HETATM   15  C   UNL     1      -0.399   7.757 -28.717  1.00  0.00     0.037 A 
BRANCH  12  16
HETATM   16  N   UNL     1      -1.094   5.876 -32.419  1.00  0.00    -0.327 N 
HETATM   17  C   UNL     1      -1.346   6.479 -33.639  1.00  0.00     0.218 C 
HETATM   18  C   UNL     1      -1.472   5.480 -34.762  1.00  0.00     0.117 C 
HETATM   19  O   UNL     1      -1.440   7.682 -33.862  1.00  0.00    -0.274 OA
HETATM   20  H   UNL     1      -1.015   4.868 -32.418  1.00  0.00     0.169 HD
ENDBRANCH  12  16
ENDBRANCH   9  10
ENDBRANCH   8   9
ENDBRANCH   7   8
ENDBRANCH   6   7
ENDBRANCH   5   6
ENDBRANCH   1   5
BRANCH   2  21
HETATM   21  C   UNL     1      -7.210   2.677 -30.196  1.00  0.00     0.120 A 
HETATM   22  N   UNL     1      -6.581   1.758 -29.404  1.00  0.00    -0.272 N 
HETATM   23  H   UNL     1      -6.384   1.846 -28.411  1.00  0.00     0.189 HD
HETATM   24  N   UNL     1      -6.201   0.644 -30.045  1.00  0.00    -0.174 NA
HETATM   25  C   UNL     1      -6.607   0.822 -31.312  1.00  0.00     0.089 A 
HETATM   26  C   UNL     1      -7.245   2.088 -31.446  1.00  0.00     0.071 A 
BRANCH  25  27
HETATM   27  C   UNL     1      -6.374  -0.192 -32.348  1.00  0.00    -0.003 A 
HETATM   28  C   UNL     1      -5.205  -0.974 -32.319  1.00  0.00     0.053 A 
HETATM   29  C   UNL     1      -5.013  -1.907 -33.317  1.00  0.00     0.106 A 
HETATM   30  C   UNL     1      -5.929  -2.091 -34.325  1.00  0.00     0.105 A 
HETATM   31  O   UNL     1      -3.939  -2.734 -33.437  1.00  0.00    -0.323 OA
HETATM   32  O   UNL     1      -5.548  -3.054 -35.205  1.00  0.00    -0.323 OA
HETATM   33  C   UNL     1      -7.089  -1.353 -34.390  1.00  0.00     0.040 A 
HETATM   34  C   UNL     1      -4.285  -3.457 -34.636  1.00  0.00     0.352 A 
HETATM   35  C   UNL     1      -7.311  -0.396 -33.390  1.00  0.00     0.017 A 
ENDBRANCH  25  27
ENDBRANCH   2  21
TORSDOF 9
ENDMDL
MODEL 5
REMARK VINA RESULT:      -8.4      1.317      1.778
REMARK  9 active torsions:
REMARK  status: ('A' for Active; 'I' for Inactive)
REMARK       I    between atoms: C_2  and  N_3 
REMARK    1  A    between atoms: N_3  and  C_4 
REMARK    2  A    between atoms: C_6  and  O_7 
REMARK    3  A    between atoms: O_7  and  C_8 
REMARK    4  A    between atoms: C_8  and  C_9 
REMARK    5  A    between atoms: C_9  and  C_10 
REMARK    6  A    between atoms: C_10  and  C_11 
REMARK    7  A    between atoms: C_11  and  N_12 
REMARK       I    between atoms: N_12  and  C_13 
REMARK    8  A    between atoms: C_13  and  C_14 
REMARK    9  A    between atoms: C_18  and  C_19 
ROOT
HETATM    1  N   UNL     1      -5.702   4.767 -28.580  1.00  0.00    -0.345 N 
HETATM    2  C   UNL     1      -5.914   4.458 -29.897  1.00  0.00     0.270 C 
HETATM    3  O   UNL     1      -6.219   5.299 -30.735  1.00  0.00    -0.266 OA
HETATM    4  H   UNL     1      -5.557   4.030 -27.907  1.00  0.00     0.163 HD
ENDROOT
BRANCH   1   5
HETATM    5  C   UNL     1      -5.859   6.109 -28.082  1.00  0.00     0.217 C 
BRANCH   5   6
HETATM    6  C   UNL     1      -4.476   6.681 -27.820  1.00  0.00    -0.085 C 
BRANCH   6   7
HETATM    7  C   UNL     1      -3.290   7.173 -27.595  1.00  0.00    -0.078 C 
BRANCH   7   8
HETATM    8  C   UNL     1      -1.930   7.678 -27.354  1.00  0.00     0.269 C 
BRANCH   8   9
HETATM    9  O   UNL     1      -1.338   8.044 -28.600  1.00  0.00    -0.339 OA
BRANCH   9  10
HETATM   10  C   UNL     1      -0.856   7.024 -29.376  1.00  0.00     0.072 A 
HETATM   11  C   UNL     1      -1.334   6.656 -30.639  1.00  0.00     0.066 A 
HETATM   12  C   UNL     1      -0.754   5.594 -31.341  1.00  0.00     0.037 A 
HETATM   13  C   UNL     1       0.311   4.895 -30.759  1.00  0.00     0.029 A 
HETATM   14  C   UNL     1       0.791   5.255 -29.499  1.00  0.00     0.005 A 
HETATM   15  C   UNL     1       0.206   6.317 -28.812  1.00  0.00     0.037 A 
BRANCH  12  16
HETATM   16  N   UNL     1      -1.179   5.169 -32.619  1.00  0.00    -0.327 N 
HETATM   17  C   UNL     1      -1.278   5.928 -33.772  1.00  0.00     0.218 C 
HETATM   18  C   UNL     1      -1.767   5.125 -34.952  1.00  0.00     0.117 C 
HETATM   19  O   UNL     1      -0.991   7.113 -33.901  1.00  0.00    -0.274 OA
HETATM   20  H   UNL     1      -1.427   4.191 -32.696  1.00  0.00     0.169 HD
ENDBRANCH  12  16
ENDBRANCH   9  10
ENDBRANCH   8   9
ENDBRANCH   7   8
ENDBRANCH   6   7
ENDBRANCH   5   6
ENDBRANCH   1   5
BRANCH   2  21
HETATM   21  C   UNL     1      -5.755   3.067 -30.228  1.00  0.00     0.120 A 
HETATM   22  N   UNL     1      -6.095   2.076 -29.351  1.00  0.00    -0.272 N 
HETATM   23  H   UNL     1      -6.480   2.196 -28.419  1.00  0.00     0.189 HD
HETATM   24  N   UNL     1      -5.877   0.835 -29.809  1.00  0.00    -0.174 NA
HETATM   25  C   UNL     1      -5.387   1.008 -31.047  1.00  0.00     0.089 A 
HETATM   26  C   UNL     1      -5.296   2.397 -31.346  1.00  0.00     0.071 A 
BRANCH  25  27
HETATM   27  C   UNL     1      -5.014  -0.131 -31.896  1.00  0.00    -0.003 A 
HETATM   28  C   UNL     1      -5.840  -0.511 -32.968  1.00  0.00     0.053 A 
HETATM   29  C   UNL     1      -5.466  -1.594 -33.736  1.00  0.00     0.106 A 
HETATM   30  C   UNL     1      -4.315  -2.301 -33.481  1.00  0.00     0.105 A 
HETATM   31  O   UNL     1      -6.154  -2.092 -34.799  1.00  0.00    -0.323 OA
HETATM   32  O   UNL     1      -4.133  -3.331 -34.349  1.00  0.00    -0.323 OA
HETATM   33  C   UNL     1      -3.473  -1.961 -32.447  1.00  0.00     0.040 A 
HETATM   34  C   UNL     1      -5.304  -3.192 -35.182  1.00  0.00     0.352 A 
HETATM   35  C   UNL     1      -3.829  -0.865 -31.649  1.00  0.00     0.017 A 
ENDBRANCH  25  27
ENDBRANCH   2  21
TORSDOF 9
ENDMDL
MODEL 6
REMARK VINA RESULT:      -8.2      2.513      3.956
REMARK  9 active torsions:
REMARK  status: ('A' for Active; 'I' for Inactive)
REMARK       I    between atoms: C_2  and  N_3 
REMARK    1  A    between atoms: N_3  and  C_4 
REMARK    2  A    between atoms: C_6  and  O_7 
REMARK    3  A    between atoms: O_7  and  C_8 
REMARK    4  A    between atoms: C_8  and  C_9 
REMARK    5  A    between atoms: C_9  and  C_10 
REMARK    6  A    between atoms: C_10  and  C_11 
REMARK    7  A    between atoms: C_11  and  N_12 
REMARK       I    between atoms: N_12  and  C_13 
REMARK    8  A    between atoms: C_13  and  C_14 
REMARK    9  A    between atoms: C_18  and  C_19 
ROOT
HETATM    1  N   UNL     1      -5.594   4.681 -32.603  1.00  0.00    -0.345 N 
HETATM    2  C   UNL     1      -5.811   3.533 -31.887  1.00  0.00     0.270 C 
HETATM    3  O   UNL     1      -5.900   3.521 -30.665  1.00  0.00    -0.266 OA
HETATM    4  H   UNL     1      -5.422   4.630 -33.595  1.00  0.00     0.163 HD
ENDROOT
BRANCH   1   5
HETATM    5  C   UNL     1      -5.420   5.955 -31.956  1.00  0.00     0.217 C 
BRANCH   5   6
HETATM    6  C   UNL     1      -4.062   6.506 -32.355  1.00  0.00    -0.085 C 
BRANCH   6   7
HETATM    7  C   UNL     1      -2.896   6.979 -32.698  1.00  0.00    -0.078 C 
BRANCH   7   8
HETATM    8  C   UNL     1      -1.560   7.490 -33.039  1.00  0.00     0.269 C 
BRANCH   8   9
HETATM    9  O   UNL     1      -0.584   6.495 -32.731  1.00  0.00    -0.339 OA
BRANCH   9  10
HETATM   10  C   UNL     1      -0.235   6.362 -31.413  1.00  0.00     0.072 A 
HETATM   11  C   UNL     1      -0.425   7.322 -30.412  1.00  0.00     0.066 A 
HETATM   12  C   UNL     1      -0.029   7.067 -29.094  1.00  0.00     0.037 A 
HETATM   13  C   UNL     1       0.568   5.838 -28.789  1.00  0.00     0.029 A 
HETATM   14  C   UNL     1       0.764   4.878 -29.783  1.00  0.00     0.005 A 
HETATM   15  C   UNL     1       0.362   5.144 -31.091  1.00  0.00     0.037 A 
BRANCH  12  16
HETATM   16  N   UNL     1      -0.192   7.983 -28.032  1.00  0.00    -0.327 N 
HETATM   17  C   UNL     1       0.775   8.788 -27.456  1.00  0.00     0.218 C 
HETATM   18  C   UNL     1       0.225   9.646 -26.342  1.00  0.00     0.117 C 
HETATM   19  O   UNL     1       1.955   8.870 -27.779  1.00  0.00    -0.274 OA
HETATM   20  H   UNL     1      -1.131   8.064 -27.663  1.00  0.00     0.169 HD
ENDBRANCH  12  16
ENDBRANCH   9  10
ENDBRANCH   8   9
ENDBRANCH   7   8
ENDBRANCH   6   7
ENDBRANCH   5   6
ENDBRANCH   1   5
BRANCH   2  21
HETATM   21  C   UNL     1      -5.923   2.337 -32.678  1.00  0.00     0.120 A 
HETATM   22  N   UNL     1      -6.483   2.348 -33.924  1.00  0.00    -0.272 N 
HETATM   23  H   UNL     1      -6.860   3.154 -34.413  1.00  0.00     0.189 HD
HETATM   24  N   UNL     1      -6.520   1.149 -34.523  1.00  0.00    -0.174 NA
HETATM   25  C   UNL     1      -5.947   0.310 -33.646  1.00  0.00     0.089 A 
HETATM   26  C   UNL     1      -5.559   1.019 -32.474  1.00  0.00     0.071 A 
BRANCH  25  27
HETATM   27  C   UNL     1      -5.794  -1.122 -33.934  1.00  0.00    -0.003 A 
HETATM   28  C   UNL     1      -4.640  -1.807 -33.516  1.00  0.00     0.053 A 
HETATM   29  C   UNL     1      -4.524  -3.148 -33.816  1.00  0.00     0.106 A 
HETATM   30  C   UNL     1      -5.502  -3.824 -34.506  1.00  0.00     0.105 A 
HETATM   31  O   UNL     1      -3.474  -3.949 -33.490  1.00  0.00    -0.323 OA
HETATM   32  O   UNL     1      -5.192  -5.133 -34.700  1.00  0.00    -0.323 OA
HETATM   33  C   UNL     1      -6.652  -3.197 -34.930  1.00  0.00     0.040 A 
HETATM   34  C   UNL     1      -3.904  -5.204 -34.054  1.00  0.00     0.352 A 
HETATM   35  C   UNL     1      -6.796  -1.833 -34.640  1.00  0.00     0.017 A 
ENDBRANCH  25  27
ENDBRANCH   2  21
TORSDOF 9
ENDMDL
MODEL 7
REMARK VINA RESULT:      -7.7      2.149      2.702
REMARK  9 active torsions:
REMARK  status: ('A' for Active; 'I' for Inactive)
REMARK       I    between atoms: C_2  and  N_3 
REMARK    1  A    between atoms: N_3  and  C_4 
REMARK    2  A    between atoms: C_6  and  O_7 
REMARK    3  A    between atoms: O_7  and  C_8 
REMARK    4  A    between atoms: C_8  and  C_9 
REMARK    5  A    between atoms: C_9  and  C_10 
REMARK    6  A    between atoms: C_10  and  C_11 
REMARK    7  A    between atoms: C_11  and  N_12 
REMARK       I    between atoms: N_12  and  C_13 
REMARK    8  A    between atoms: C_13  and  C_14 
REMARK    9  A    between atoms: C_18  and  C_19 
ROOT
HETATM    1  N   UNL     1      -7.773   3.928 -31.961  1.00  0.00    -0.345 N 
HETATM    2  C   UNL     1      -7.103   3.694 -33.133  1.00  0.00     0.270 C 
HETATM    3  O   UNL     1      -7.034   4.522 -34.033  1.00  0.00    -0.266 OA
HETATM    4  H   UNL     1      -7.893   3.182 -31.292  1.00  0.00     0.163 HD
ENDROOT
BRANCH   1   5
HETATM    5  C   UNL     1      -8.477   5.161 -31.724  1.00  0.00     0.217 C 
BRANCH   5   6
HETATM    6  C   UNL     1      -7.507   6.144 -31.091  1.00  0.00    -0.085 C 
BRANCH   6   7
HETATM    7  C   UNL     1      -6.673   6.989 -30.549  1.00  0.00    -0.078 C 
BRANCH   7   8
HETATM    8  C   UNL     1      -5.730   7.966 -29.987  1.00  0.00     0.269 C 
BRANCH   8   9
HETATM    9  O   UNL     1      -4.787   7.285 -29.160  1.00  0.00    -0.339 OA
BRANCH   9  10
HETATM   10  C   UNL     1      -3.546   7.061 -29.694  1.00  0.00     0.072 A 
HETATM   11  C   UNL     1      -3.280   6.495 -30.946  1.00  0.00     0.066 A 
HETATM   12  C   UNL     1      -1.964   6.321 -31.387  1.00  0.00     0.037 A 
HETATM   13  C   UNL     1      -0.910   6.716 -30.554  1.00  0.00     0.029 A 
HETATM   14  C   UNL     1      -1.167   7.279 -29.303  1.00  0.00     0.005 A 
HETATM   15  C   UNL     1      -2.484   7.449 -28.878  1.00  0.00     0.037 A 
BRANCH  12  16
HETATM   16  N   UNL     1      -1.619   5.762 -32.637  1.00  0.00    -0.327 N 
HETATM   17  C   UNL     1      -1.442   6.425 -33.839  1.00  0.00     0.218 C 
HETATM   18  C   UNL     1      -1.071   5.492 -34.965  1.00  0.00     0.117 C 
HETATM   19  O   UNL     1      -1.532   7.632 -34.035  1.00  0.00    -0.274 OA
HETATM   20  H   UNL     1      -1.474   4.761 -32.644  1.00  0.00     0.169 HD
ENDBRANCH  12  16
ENDBRANCH   9  10
ENDBRANCH   8   9
ENDBRANCH   7   8
ENDBRANCH   6   7
ENDBRANCH   5   6
ENDBRANCH   1   5
BRANCH   2  21
HETATM   21  C   UNL     1      -6.486   2.399 -33.231  1.00  0.00     0.120 A 
HETATM   22  N   UNL     1      -5.203   2.180 -32.814  1.00  0.00    -0.272 N 
HETATM   23  H   UNL     1      -4.572   2.863 -32.406  1.00  0.00     0.189 HD
HETATM   24  N   UNL     1      -4.775   0.921 -32.984  1.00  0.00    -0.174 NA
HETATM   25  C   UNL     1      -5.820   0.273 -33.521  1.00  0.00     0.089 A 
HETATM   26  C   UNL     1      -6.914   1.168 -33.691  1.00  0.00     0.071 A 
BRANCH  25  27
HETATM   27  C   UNL     1      -5.752  -1.154 -33.862  1.00  0.00    -0.003 A 
HETATM   28  C   UNL     1      -4.588  -1.891 -33.583  1.00  0.00     0.053 A 
HETATM   29  C   UNL     1      -4.555  -3.226 -33.930  1.00  0.00     0.106 A 
HETATM   30  C   UNL     1      -5.623  -3.845 -34.534  1.00  0.00     0.105 A 
HETATM   31  O   UNL     1      -3.508  -4.073 -33.736  1.00  0.00    -0.323 OA
HETATM   32  O   UNL     1      -5.384  -5.158 -34.795  1.00  0.00    -0.323 OA
HETATM   33  C   UNL     1      -6.785  -3.165 -34.820  1.00  0.00     0.040 A 
HETATM   34  C   UNL     1      -4.041  -5.294 -34.287  1.00  0.00     0.352 A 
HETATM   35  C   UNL     1      -6.847  -1.807 -34.480  1.00  0.00     0.017 A 
ENDBRANCH  25  27
ENDBRANCH   2  21
TORSDOF 9
ENDMDL
MODEL 8
REMARK VINA RESULT:      -7.7      3.108      4.343
REMARK  9 active torsions:
REMARK  status: ('A' for Active; 'I' for Inactive)
REMARK       I    between atoms: C_2  and  N_3 
REMARK    1  A    between atoms: N_3  and  C_4 
REMARK    2  A    between atoms: C_6  and  O_7 
REMARK    3  A    between atoms: O_7  and  C_8 
REMARK    4  A    between atoms: C_8  and  C_9 
REMARK    5  A    between atoms: C_9  and  C_10 
REMARK    6  A    between atoms: C_10  and  C_11 
REMARK    7  A    between atoms: C_11  and  N_12 
REMARK       I    between atoms: N_12  and  C_13 
REMARK    8  A    between atoms: C_13  and  C_14 
REMARK    9  A    between atoms: C_18  and  C_19 
ROOT
HETATM    1  N   UNL     1      -7.623   4.632 -33.148  1.00  0.00    -0.345 N 
HETATM    2  C   UNL     1      -8.509   3.893 -33.887  1.00  0.00     0.270 C 
HETATM    3  O   UNL     1      -9.544   4.363 -34.346  1.00  0.00    -0.266 OA
HETATM    4  H   UNL     1      -6.840   4.180 -32.702  1.00  0.00     0.163 HD
ENDROOT
BRANCH   1   5
HETATM    5  C   UNL     1      -7.870   6.014 -32.830  1.00  0.00     0.217 C 
BRANCH   5   6
HETATM    6  C   UNL     1      -6.620   6.579 -32.177  1.00  0.00    -0.085 C 
BRANCH   6   7
HETATM    7  C   UNL     1      -5.547   7.064 -31.615  1.00  0.00    -0.078 C 
BRANCH   7   8
HETATM    8  C   UNL     1      -4.333   7.563 -30.954  1.00  0.00     0.269 C 
BRANCH   8   9
HETATM    9  O   UNL     1      -3.545   6.455 -30.520  1.00  0.00    -0.339 OA
BRANCH   9  10
HETATM   10  C   UNL     1      -2.191   6.646 -30.465  1.00  0.00     0.072 A 
HETATM   11  C   UNL     1      -1.429   6.804 -29.302  1.00  0.00     0.066 A 
HETATM   12  C   UNL     1      -0.044   6.989 -29.375  1.00  0.00     0.037 A 
HETATM   13  C   UNL     1       0.573   7.021 -30.631  1.00  0.00     0.029 A 
HETATM   14  C   UNL     1      -0.180   6.868 -31.795  1.00  0.00     0.005 A 
HETATM   15  C   UNL     1      -1.559   6.681 -31.709  1.00  0.00     0.037 A 
BRANCH  12  16
HETATM   16  N   UNL     1       0.789   7.151 -28.246  1.00  0.00    -0.327 N 
HETATM   17  C   UNL     1       0.910   8.269 -27.439  1.00  0.00     0.218 C 
HETATM   18  C   UNL     1       1.900   8.069 -26.318  1.00  0.00     0.117 C 
HETATM   19  O   UNL     1       0.294   9.324 -27.544  1.00  0.00    -0.274 OA
HETATM   20  H   UNL     1       1.352   6.347 -27.997  1.00  0.00     0.169 HD
ENDBRANCH  12  16
ENDBRANCH   9  10
ENDBRANCH   8   9
ENDBRANCH   7   8
ENDBRANCH   6   7
ENDBRANCH   5   6
ENDBRANCH   1   5
BRANCH   2  21
HETATM   21  C   UNL     1      -8.137   2.518 -34.084  1.00  0.00     0.120 A 
HETATM   22  N   UNL     1      -8.996   1.613 -34.641  1.00  0.00    -0.272 N 
HETATM   23  H   UNL     1      -9.942   1.793 -34.966  1.00  0.00     0.189 HD
HETATM   24  N   UNL     1      -8.499   0.372 -34.745  1.00  0.00    -0.174 NA
HETATM   25  C   UNL     1      -7.254   0.459 -34.252  1.00  0.00     0.089 A 
HETATM   26  C   UNL     1      -6.990   1.792 -33.827  1.00  0.00     0.071 A 
BRANCH  25  27
HETATM   27  C   UNL     1      -6.365  -0.708 -34.190  1.00  0.00    -0.003 A 
HETATM   28  C   UNL     1      -6.819  -1.965 -34.625  1.00  0.00     0.053 A 
HETATM   29  C   UNL     1      -5.961  -3.042 -34.539  1.00  0.00     0.106 A 
HETATM   30  C   UNL     1      -4.685  -2.914 -34.045  1.00  0.00     0.105 A 
HETATM   31  O   UNL     1      -6.247  -4.319 -34.909  1.00  0.00    -0.323 OA
HETATM   32  O   UNL     1      -4.007  -4.093 -34.042  1.00  0.00    -0.323 OA
HETATM   33  C   UNL     1      -4.195  -1.703 -33.614  1.00  0.00     0.040 A 
HETATM   34  C   UNL     1      -5.005  -4.979 -34.592  1.00  0.00     0.352 A 
HETATM   35  C   UNL     1      -5.045  -0.591 -33.688  1.00  0.00     0.017 A 
ENDBRANCH  25  27
ENDBRANCH   2  21
TORSDOF 9
ENDMDL
MODEL 9
REMARK VINA RESULT:      -7.5      5.645      7.773
REMARK  9 active torsions:
REMARK  status: ('A' for Active; 'I' for Inactive)
REMARK       I    between atoms: C_2  and  N_3 
REMARK    1  A    between atoms: N_3  and  C_4 
REMARK    2  A    between atoms: C_6  and  O_7 
REMARK    3  A    between atoms: O_7  and  C_8 
REMARK    4  A    between atoms: C_8  and  C_9 
REMARK    5  A    between atoms: C_9  and  C_10 
REMARK    6  A    between atoms: C_10  and  C_11 
REMARK    7  A    between atoms: C_11  and  N_12 
REMARK       I    between atoms: N_12  and  C_13 
REMARK    8  A    between atoms: C_13  and  C_14 
REMARK    9  A    between atoms: C_18  and  C_19 
ROOT
HETATM    1  N   UNL     1      -6.784   0.820 -32.126  1.00  0.00    -0.345 N 
HETATM    2  C   UNL     1      -7.479   0.201 -33.131  1.00  0.00     0.270 C 
HETATM    3  O   UNL     1      -7.028  -0.749 -33.761  1.00  0.00    -0.266 OA
HETATM    4  H   UNL     1      -7.148   1.662 -31.707  1.00  0.00     0.163 HD
ENDROOT
BRANCH   1   5
HETATM    5  C   UNL     1      -5.452   0.413 -31.764  1.00  0.00     0.217 C 
BRANCH   5   6
HETATM    6  C   UNL     1      -4.499   1.542 -32.120  1.00  0.00    -0.085 C 
BRANCH   6   7
HETATM    7  C   UNL     1      -3.682   2.511 -32.427  1.00  0.00    -0.078 C 
BRANCH   7   8
HETATM    8  C   UNL     1      -2.783   3.605 -32.822  1.00  0.00     0.269 C 
BRANCH   8   9
HETATM    9  O   UNL     1      -2.083   4.076 -31.671  1.00  0.00    -0.339 OA
BRANCH   9  10
HETATM   10  C   UNL     1      -1.856   5.424 -31.596  1.00  0.00     0.072 A 
HETATM   11  C   UNL     1      -1.686   6.166 -30.422  1.00  0.00     0.066 A 
HETATM   12  C   UNL     1      -1.455   7.544 -30.474  1.00  0.00     0.037 A 
HETATM   13  C   UNL     1      -1.402   8.178 -31.721  1.00  0.00     0.029 A 
HETATM   14  C   UNL     1      -1.573   7.446 -32.897  1.00  0.00     0.005 A 
HETATM   15  C   UNL     1      -1.800   6.073 -32.830  1.00  0.00     0.037 A 
BRANCH  12  16
HETATM   16  N   UNL     1      -1.271   8.356 -29.333  1.00  0.00    -0.327 N 
HETATM   17  C   UNL     1      -0.152   8.429 -28.521  1.00  0.00     0.218 C 
HETATM   18  C   UNL     1      -0.321   9.418 -27.393  1.00  0.00     0.117 C 
HETATM   19  O   UNL     1       0.900   7.814 -28.657  1.00  0.00    -0.274 OA
HETATM   20  H   UNL     1      -2.046   8.961 -29.095  1.00  0.00     0.169 HD
ENDBRANCH  12  16
ENDBRANCH   9  10
ENDBRANCH   8   9
ENDBRANCH   7   8
ENDBRANCH   6   7
ENDBRANCH   5   6
ENDBRANCH   1   5
BRANCH   2  21
HETATM   21  C   UNL     1      -8.781   0.751 -33.398  1.00  0.00     0.120 A 
HETATM   22  N   UNL     1      -8.945   1.869 -34.166  1.00  0.00    -0.272 N 
HETATM   23  H   UNL     1      -8.213   2.410 -34.616  1.00  0.00     0.189 HD
HETATM   24  N   UNL     1     -10.221   2.256 -34.311  1.00  0.00    -0.174 NA
HETATM   25  C   UNL     1     -10.934   1.351 -33.624  1.00  0.00     0.089 A 
HETATM   26  C   UNL     1     -10.064   0.388 -33.036  1.00  0.00     0.071 A 
BRANCH  25  27
HETATM   27  C   UNL     1     -12.398   1.426 -33.535  1.00  0.00    -0.003 A 
HETATM   28  C   UNL     1     -13.007   2.404 -32.730  1.00  0.00     0.053 A 
HETATM   29  C   UNL     1     -14.384   2.436 -32.661  1.00  0.00     0.106 A 
HETATM   30  C   UNL     1     -15.166   1.544 -33.355  1.00  0.00     0.105 A 
HETATM   31  O   UNL     1     -15.124   3.310 -31.926  1.00  0.00    -0.323 OA
HETATM   32  O   UNL     1     -16.495   1.744 -33.146  1.00  0.00    -0.323 OA
HETATM   33  C   UNL     1     -14.615   0.574 -34.160  1.00  0.00     0.040 A 
HETATM   34  C   UNL     1     -16.460   2.866 -32.239  1.00  0.00     0.352 A 
HETATM   35  C   UNL     1     -13.217   0.517 -34.249  1.00  0.00     0.017 A 
ENDBRANCH  25  27
ENDBRANCH   2  21
TORSDOF 9
ENDMDL
MODEL 10
REMARK VINA RESULT:      -7.5      2.095      2.496
REMARK  9 active torsions:
REMARK  status: ('A' for Active; 'I' for Inactive)
REMARK       I    between atoms: C_2  and  N_3 
REMARK    1  A    between atoms: N_3  and  C_4 
REMARK    2  A    between atoms: C_6  and  O_7 
REMARK    3  A    between atoms: O_7  and  C_8 
REMARK    4  A    between atoms: C_8  and  C_9 
REMARK    5  A    between atoms: C_9  and  C_10 
REMARK    6  A    between atoms: C_10  and  C_11 
REMARK    7  A    between atoms: C_11  and  N_12 
REMARK       I    between atoms: N_12  and  C_13 
REMARK    8  A    between atoms: C_13  and  C_14 
REMARK    9  A    between atoms: C_18  and  C_19 
ROOT
HETATM    1  N   UNL     1      -6.091   5.137 -32.249  1.00  0.00    -0.345 N 
HETATM    2  C   UNL     1      -6.660   4.480 -33.308  1.00  0.00     0.270 C 
HETATM    3  O   UNL     1      -7.264   5.061 -34.202  1.00  0.00    -0.266 OA
HETATM    4  H   UNL     1      -5.696   4.612 -31.485  1.00  0.00     0.163 HD
ENDROOT
BRANCH   1   5
HETATM    5  C   UNL     1      -6.197   6.564 -32.098  1.00  0.00     0.217 C 
BRANCH   5   6
HETATM    6  C   UNL     1      -5.422   6.967 -30.855  1.00  0.00    -0.085 C 
BRANCH   6   7
HETATM    7  C   UNL     1      -4.756   7.313 -29.788  1.00  0.00    -0.078 C 
BRANCH   7   8
HETATM    8  C   UNL     1      -3.965   7.720 -28.618  1.00  0.00     0.269 C 
BRANCH   8   9
HETATM    9  O   UNL     1      -2.906   8.577 -29.043  1.00  0.00    -0.339 OA
BRANCH   9  10
HETATM   10  C   UNL     1      -1.879   7.992 -29.734  1.00  0.00     0.072 A 
HETATM   11  C   UNL     1      -1.924   7.562 -31.065  1.00  0.00     0.066 A 
HETATM   12  C   UNL     1      -0.803   6.979 -31.666  1.00  0.00     0.037 A 
HETATM   13  C   UNL     1       0.368   6.825 -30.915  1.00  0.00     0.029 A 
HETATM   14  C   UNL     1       0.420   7.249 -29.586  1.00  0.00     0.005 A 
HETATM   15  C   UNL     1      -0.703   7.830 -29.001  1.00  0.00     0.037 A 
BRANCH  12  16
HETATM   16  N   UNL     1      -0.773   6.526 -33.003  1.00  0.00    -0.327 N 
HETATM   17  C   UNL     1      -1.451   5.448 -33.545  1.00  0.00     0.218 C 
HETATM   18  C   UNL     1      -1.175   5.272 -35.018  1.00  0.00     0.117 C 
HETATM   19  O   UNL     1      -2.227   4.697 -32.963  1.00  0.00    -0.274 OA
HETATM   20  H   UNL     1      -0.195   7.064 -33.636  1.00  0.00     0.169 HD
ENDBRANCH  12  16
ENDBRANCH   9  10
ENDBRANCH   8   9
ENDBRANCH   7   8
ENDBRANCH   6   7
ENDBRANCH   5   6
ENDBRANCH   1   5
BRANCH   2  21
HETATM   21  C   UNL     1      -6.499   3.051 -33.294  1.00  0.00     0.120 A 
HETATM   22  N   UNL     1      -7.554   2.206 -33.496  1.00  0.00    -0.272 N 
HETATM   23  H   UNL     1      -8.518   2.470 -33.673  1.00  0.00     0.189 HD
HETATM   24  N   UNL     1      -7.236   0.905 -33.442  1.00  0.00    -0.174 NA
HETATM   25  C   UNL     1      -5.914   0.883 -33.211  1.00  0.00     0.089 A 
HETATM   26  C   UNL     1      -5.415   2.213 -33.112  1.00  0.00     0.071 A 
BRANCH  25  27
HETATM   27  C   UNL     1      -5.173  -0.378 -33.082  1.00  0.00    -0.003 A 
HETATM   28  C   UNL     1      -5.352  -1.401 -34.029  1.00  0.00     0.053 A 
HETATM   29  C   UNL     1      -4.650  -2.578 -33.868  1.00  0.00     0.106 A 
HETATM   30  C   UNL     1      -3.786  -2.769 -32.816  1.00  0.00     0.105 A 
HETATM   31  O   UNL     1      -4.714  -3.662 -34.688  1.00  0.00    -0.323 OA
HETATM   32  O   UNL     1      -3.199  -3.995 -32.841  1.00  0.00    -0.323 OA
HETATM   33  C   UNL     1      -3.575  -1.794 -31.869  1.00  0.00     0.040 A 
HETATM   34  C   UNL     1      -3.793  -4.555 -34.030  1.00  0.00     0.352 A 
HETATM   35  C   UNL     1      -4.276  -0.588 -32.006  1.00  0.00     0.017 A 
ENDBRANCH  25  27
ENDBRANCH   2  21
TORSDOF 9
ENDMDL
