MODEL 1
REMARK VINA RESULT:     -10.2      0.000      0.000
REMARK  8 active torsions:
REMARK  status: ('A' for Active; 'I' for Inactive)
REMARK    1  A    between atoms: C_2  and  N_3 
REMARK    2  A    between atoms: C_2  and  C_34 
REMARK       I    between atoms: N_3  and  C_4 
REMARK    3  A    between atoms: C_4  and  C_5 
REMARK    4  A    between atoms: C_5  and  N_6 
REMARK       I    between atoms: N_12  and  C_13 
REMARK    5  A    between atoms: C_13  and  C_14 
REMARK    6  A    between atoms: C_14  and  O_15 
REMARK    7  A    between atoms: O_15  and  C_16 
REMARK    8  A    between atoms: N_25  and  C_26 
ROOT
HETATM    1  N   UNL     1      -5.932   5.234 -29.683  1.00  0.00    -0.325 N 
HETATM    2  C   UNL     1      -6.570   4.088 -30.107  1.00  0.00     0.250 C 
HETATM    3  O   UNL     1      -7.389   3.461 -29.450  1.00  0.00    -0.270 OA
HETATM    4  C   UNL     1      -6.064   3.743 -31.524  1.00  0.00     0.118 C 
HETATM    5  C   UNL     1      -7.216   4.003 -32.504  1.00  0.00     0.061 C 
HETATM    6  C   UNL     1      -8.267   2.898 -32.473  1.00  0.00     0.129 C 
HETATM    7  N   UNL     1      -7.666   1.570 -32.558  1.00  0.00    -0.350 N 
HETATM    8  C   UNL     1      -8.343   0.591 -33.291  1.00  0.00     0.244 C 
HETATM    9  O   UNL     1      -9.379   0.837 -33.912  1.00  0.00    -0.271 OA
HETATM   10  C   UNL     1      -6.671   1.267 -31.534  1.00  0.00     0.129 C 
HETATM   11  C   UNL     1      -5.549   2.298 -31.502  1.00  0.00     0.061 C 
HETATM   12  N   UNL     1      -4.956   4.726 -31.700  1.00  0.00    -0.346 N 
HETATM   13  C   UNL     1      -4.860   5.619 -30.551  1.00  0.00     0.254 C 
ENDROOT
BRANCH  12  14
HETATM   14  C   UNL     1      -4.064   4.850 -32.749  1.00  0.00     0.032 A 
HETATM   15  C   UNL     1      -4.453   5.171 -34.060  1.00  0.00     0.029 A 
HETATM   16  C   UNL     1      -3.538   5.278 -35.118  1.00  0.00     0.002 A 
HETATM   17  C   UNL     1      -2.185   5.068 -34.897  1.00  0.00     0.000 A 
HETATM   18  C   UNL     1      -1.754   4.757 -33.617  1.00  0.00     0.002 A 
HETATM   19  C   UNL     1      -2.678   4.656 -32.569  1.00  0.00     0.029 A 
ENDBRANCH  12  14
BRANCH   1  20
HETATM   20  C   UNL     1      -5.998   5.668 -28.297  1.00  0.00     0.230 C 
BRANCH  20  21
HETATM   21  C   UNL     1      -5.089   6.834 -27.879  1.00  0.00     0.236 C 
HETATM   22  N   UNL     1      -3.828   6.444 -27.482  1.00  0.00    -0.351 N 
HETATM   23  H   UNL     1      -3.597   5.460 -27.427  1.00  0.00     0.163 HD
HETATM   24  O   UNL     1      -5.422   8.014 -27.958  1.00  0.00    -0.272 OA
BRANCH  22  25
HETATM   25  C   UNL     1      -2.830   7.409 -27.046  1.00  0.00     0.113 C 
HETATM   26  C   UNL     1      -2.427   7.174 -25.588  1.00  0.00     0.037 C 
BRANCH  25  27
HETATM   27  C   UNL     1      -1.625   7.381 -27.969  1.00  0.00    -0.036 A 
HETATM   28  C   UNL     1      -1.790   7.042 -29.322  1.00  0.00     0.009 A 
HETATM   29  C   UNL     1      -0.698   7.024 -30.191  1.00  0.00     0.001 A 
HETATM   30  C   UNL     1       0.575   7.338 -29.720  1.00  0.00     0.000 A 
HETATM   31  C   UNL     1       0.757   7.670 -28.380  1.00  0.00     0.001 A 
HETATM   32  C   UNL     1      -0.335   7.693 -27.509  1.00  0.00     0.009 A 
ENDBRANCH  25  27
ENDBRANCH  22  25
ENDBRANCH  20  21
ENDBRANCH   1  20
BRANCH   8  33
HETATM   33  C   UNL     1      -7.769  -0.828 -33.305  1.00  0.00     0.278 C 
BRANCH  33  34
HETATM   34  O   UNL     1      -6.843  -0.957 -34.381  1.00  0.00    -0.342 OA
BRANCH  34  35
HETATM   35  C   UNL     1      -6.149  -2.135 -34.400  1.00  0.00     0.069 A 
HETATM   36  C   UNL     1      -4.790  -2.257 -34.111  1.00  0.00     0.037 A 
HETATM   37  C   UNL     1      -4.171  -3.508 -34.187  1.00  0.00     0.003 A 
HETATM   38  C   UNL     1      -4.906  -4.633 -34.559  1.00  0.00     0.000 A 
HETATM   39  C   UNL     1      -6.260  -4.509 -34.864  1.00  0.00     0.003 A 
HETATM   40  C   UNL     1      -6.877  -3.259 -34.795  1.00  0.00     0.037 A 
ENDBRANCH  34  35
ENDBRANCH  33  34
ENDBRANCH   8  33
TORSDOF 8
ENDMDL
MODEL 2
REMARK VINA RESULT:     -10.2      2.290      9.228
REMARK  8 active torsions:
REMARK  status: ('A' for Active; 'I' for Inactive)
REMARK    1  A    between atoms: C_2  and  N_3 
REMARK    2  A    between atoms: C_2  and  C_34 
REMARK       I    between atoms: N_3  and  C_4 
REMARK    3  A    between atoms: C_4  and  C_5 
REMARK    4  A    between atoms: C_5  and  N_6 
REMARK       I    between atoms: N_12  and  C_13 
REMARK    5  A    between atoms: C_13  and  C_14 
REMARK    6  A    between atoms: C_14  and  O_15 
REMARK    7  A    between atoms: O_15  and  C_16 
REMARK    8  A    between atoms: N_25  and  C_26 
ROOT
HETATM    1  N   UNL     1      -6.797   2.338 -30.938  1.00  0.00    -0.325 N 
HETATM    2  C   UNL     1      -5.789   2.697 -31.808  1.00  0.00     0.250 C 
HETATM    3  O   UNL     1      -5.280   1.951 -32.633  1.00  0.00    -0.270 OA
HETATM    4  C   UNL     1      -5.422   4.174 -31.548  1.00  0.00     0.118 C 
HETATM    5  C   UNL     1      -5.907   4.991 -32.753  1.00  0.00     0.061 C 
HETATM    6  C   UNL     1      -4.990   4.845 -33.963  1.00  0.00     0.129 C 
HETATM    7  N   UNL     1      -3.585   5.031 -33.610  1.00  0.00    -0.350 N 
HETATM    8  C   UNL     1      -2.761   5.688 -34.528  1.00  0.00     0.244 C 
HETATM    9  O   UNL     1      -3.199   6.165 -35.578  1.00  0.00    -0.271 OA
HETATM   10  C   UNL     1      -3.082   4.150 -32.561  1.00  0.00     0.129 C 
HETATM   11  C   UNL     1      -3.912   4.245 -31.285  1.00  0.00     0.061 C 
HETATM   12  N   UNL     1      -6.215   4.473 -30.321  1.00  0.00    -0.346 N 
HETATM   13  C   UNL     1      -7.033   3.330 -29.933  1.00  0.00     0.254 C 
ENDROOT
BRANCH  12  14
HETATM   14  C   UNL     1      -6.231   5.627 -29.558  1.00  0.00     0.032 A 
HETATM   15  C   UNL     1      -5.248   5.937 -28.604  1.00  0.00     0.029 A 
HETATM   16  C   UNL     1      -5.287   7.104 -27.827  1.00  0.00     0.002 A 
HETATM   17  C   UNL     1      -6.321   8.015 -27.983  1.00  0.00     0.000 A 
HETATM   18  C   UNL     1      -7.309   7.755 -28.919  1.00  0.00     0.002 A 
HETATM   19  C   UNL     1      -7.257   6.586 -29.690  1.00  0.00     0.029 A 
ENDBRANCH  12  14
BRANCH   1  20
HETATM   20  C   UNL     1      -7.180   0.947 -30.757  1.00  0.00     0.230 C 
BRANCH  20  21
HETATM   21  C   UNL     1      -7.850   0.241 -31.945  1.00  0.00     0.236 C 
HETATM   22  N   UNL     1      -6.963  -0.377 -32.801  1.00  0.00    -0.351 N 
HETATM   23  H   UNL     1      -5.967  -0.285 -32.648  1.00  0.00     0.163 HD
HETATM   24  O   UNL     1      -9.068   0.166 -32.089  1.00  0.00    -0.272 OA
BRANCH  22  25
HETATM   25  C   UNL     1      -7.414  -1.092 -33.986  1.00  0.00     0.113 C 
HETATM   26  C   UNL     1      -7.468  -0.169 -35.206  1.00  0.00     0.037 C 
BRANCH  25  27
HETATM   27  C   UNL     1      -6.536  -2.304 -34.241  1.00  0.00    -0.036 A 
HETATM   28  C   UNL     1      -5.153  -2.225 -34.009  1.00  0.00     0.009 A 
HETATM   29  C   UNL     1      -4.330  -3.332 -34.223  1.00  0.00     0.001 A 
HETATM   30  C   UNL     1      -4.875  -4.530 -34.679  1.00  0.00     0.000 A 
HETATM   31  C   UNL     1      -6.244  -4.623 -34.920  1.00  0.00     0.001 A 
HETATM   32  C   UNL     1      -7.070  -3.518 -34.702  1.00  0.00     0.009 A 
ENDBRANCH  25  27
ENDBRANCH  22  25
ENDBRANCH  20  21
ENDBRANCH   1  20
BRANCH   8  33
HETATM   33  C   UNL     1      -1.269   5.802 -34.208  1.00  0.00     0.278 C 
BRANCH  33  34
HETATM   34  O   UNL     1      -0.965   7.141 -33.824  1.00  0.00    -0.342 OA
BRANCH  34  35
HETATM   35  C   UNL     1      -1.081   7.391 -32.485  1.00  0.00     0.069 A 
HETATM   36  C   UNL     1      -2.071   8.190 -31.913  1.00  0.00     0.037 A 
HETATM   37  C   UNL     1      -2.083   8.404 -30.531  1.00  0.00     0.003 A 
HETATM   38  C   UNL     1      -1.104   7.826 -29.724  1.00  0.00     0.000 A 
HETATM   39  C   UNL     1      -0.105   7.042 -30.297  1.00  0.00     0.003 A 
HETATM   40  C   UNL     1      -0.089   6.835 -31.677  1.00  0.00     0.037 A 
ENDBRANCH  34  35
ENDBRANCH  33  34
ENDBRANCH   8  33
TORSDOF 8
ENDMDL
MODEL 3
REMARK VINA RESULT:     -10.0      3.258      6.575
REMARK  8 active torsions:
REMARK  status: ('A' for Active; 'I' for Inactive)
REMARK    1  A    between atoms: C_2  and  N_3 
REMARK    2  A    between atoms: C_2  and  C_34 
REMARK       I    between atoms: N_3  and  C_4 
REMARK    3  A    between atoms: C_4  and  C_5 
REMARK    4  A    between atoms: C_5  and  N_6 
REMARK       I    between atoms: N_12  and  C_13 
REMARK    5  A    between atoms: C_13  and  C_14 
REMARK    6  A    between atoms: C_14  and  O_15 
REMARK    7  A    between atoms: O_15  and  C_16 
REMARK    8  A    between atoms: N_25  and  C_26 
ROOT
HETATM    1  N   UNL     1      -4.516   1.456 -32.400  1.00  0.00    -0.325 N 
HETATM    2  C   UNL     1      -5.863   1.739 -32.481  1.00  0.00     0.250 C 
HETATM    3  O   UNL     1      -6.394   2.745 -32.032  1.00  0.00    -0.270 OA
HETATM    4  C   UNL     1      -6.563   0.575 -33.216  1.00  0.00     0.118 C 
HETATM    5  C   UNL     1      -7.004   1.093 -34.591  1.00  0.00     0.061 C 
HETATM    6  C   UNL     1      -8.255   1.963 -34.512  1.00  0.00     0.129 C 
HETATM    7  N   UNL     1      -9.307   1.336 -33.717  1.00  0.00    -0.350 N 
HETATM    8  C   UNL     1     -10.630   1.505 -34.133  1.00  0.00     0.244 C 
HETATM    9  O   UNL     1     -10.919   2.102 -35.172  1.00  0.00    -0.271 OA
HETATM   10  C   UNL     1      -8.929   0.973 -32.354  1.00  0.00     0.129 C 
HETATM   11  C   UNL     1      -7.702   0.070 -32.320  1.00  0.00     0.061 C 
HETATM   12  N   UNL     1      -5.459  -0.422 -33.328  1.00  0.00    -0.346 N 
HETATM   13  C   UNL     1      -4.212   0.114 -32.796  1.00  0.00     0.254 C 
ENDROOT
BRANCH  12  14
HETATM   14  C   UNL     1      -5.503  -1.712 -33.824  1.00  0.00     0.032 A 
HETATM   15  C   UNL     1      -6.659  -2.291 -34.371  1.00  0.00     0.029 A 
HETATM   16  C   UNL     1      -6.692  -3.607 -34.856  1.00  0.00     0.002 A 
HETATM   17  C   UNL     1      -5.554  -4.398 -34.813  1.00  0.00     0.000 A 
HETATM   18  C   UNL     1      -4.386  -3.866 -34.289  1.00  0.00     0.002 A 
HETATM   19  C   UNL     1      -4.367  -2.549 -33.810  1.00  0.00     0.029 A 
ENDBRANCH  12  14
BRANCH   1  20
HETATM   20  C   UNL     1      -3.632   2.229 -31.543  1.00  0.00     0.230 C 
BRANCH  20  21
HETATM   21  C   UNL     1      -3.174   3.602 -32.057  1.00  0.00     0.236 C 
HETATM   22  N   UNL     1      -3.481   4.646 -31.211  1.00  0.00    -0.351 N 
HETATM   23  H   UNL     1      -4.019   4.474 -30.371  1.00  0.00     0.163 HD
HETATM   24  O   UNL     1      -2.529   3.757 -33.091  1.00  0.00    -0.272 OA
BRANCH  22  25
HETATM   25  C   UNL     1      -3.132   6.022 -31.534  1.00  0.00     0.113 C 
HETATM   26  C   UNL     1      -4.276   6.981 -31.197  1.00  0.00     0.037 C 
BRANCH  25  27
HETATM   27  C   UNL     1      -1.845   6.420 -30.834  1.00  0.00    -0.036 A 
HETATM   28  C   UNL     1      -0.629   6.384 -31.535  1.00  0.00     0.009 A 
HETATM   29  C   UNL     1       0.564   6.761 -30.914  1.00  0.00     0.001 A 
HETATM   30  C   UNL     1       0.559   7.172 -29.583  1.00  0.00     0.000 A 
HETATM   31  C   UNL     1      -0.638   7.207 -28.872  1.00  0.00     0.001 A 
HETATM   32  C   UNL     1      -1.833   6.835 -29.491  1.00  0.00     0.009 A 
ENDBRANCH  25  27
ENDBRANCH  22  25
ENDBRANCH  20  21
ENDBRANCH   1  20
BRANCH   8  33
HETATM   33  C   UNL     1     -11.744   0.932 -33.253  1.00  0.00     0.278 C 
BRANCH  33  34
HETATM   34  O   UNL     1     -12.999   1.093 -33.909  1.00  0.00    -0.342 OA
BRANCH  34  35
HETATM   35  C   UNL     1     -13.906   1.856 -33.228  1.00  0.00     0.069 A 
HETATM   36  C   UNL     1     -15.209   1.457 -32.928  1.00  0.00     0.037 A 
HETATM   37  C   UNL     1     -16.067   2.327 -32.250  1.00  0.00     0.003 A 
HETATM   38  C   UNL     1     -15.627   3.597 -31.878  1.00  0.00     0.000 A 
HETATM   39  C   UNL     1     -14.332   4.003 -32.192  1.00  0.00     0.003 A 
HETATM   40  C   UNL     1     -13.478   3.137 -32.876  1.00  0.00     0.037 A 
ENDBRANCH  34  35
ENDBRANCH  33  34
ENDBRANCH   8  33
TORSDOF 8
ENDMDL
MODEL 4
REMARK VINA RESULT:     -10.0      2.653      9.299
REMARK  8 active torsions:
REMARK  status: ('A' for Active; 'I' for Inactive)
REMARK    1  A    between atoms: C_2  and  N_3 
REMARK    2  A    between atoms: C_2  and  C_34 
REMARK       I    between atoms: N_3  and  C_4 
REMARK    3  A    between atoms: C_4  and  C_5 
REMARK    4  A    between atoms: C_5  and  N_6 
REMARK       I    between atoms: N_12  and  C_13 
REMARK    5  A    between atoms: C_13  and  C_14 
REMARK    6  A    between atoms: C_14  and  O_15 
REMARK    7  A    between atoms: O_15  and  C_16 
REMARK    8  A    between atoms: N_25  and  C_26 
ROOT
HETATM    1  N   UNL     1      -6.786   2.937 -31.396  1.00  0.00    -0.325 N 
HETATM    2  C   UNL     1      -5.581   3.537 -31.693  1.00  0.00     0.250 C 
HETATM    3  O   UNL     1      -4.532   2.939 -31.886  1.00  0.00    -0.270 OA
HETATM    4  C   UNL     1      -5.792   5.066 -31.726  1.00  0.00     0.118 C 
HETATM    5  C   UNL     1      -5.671   5.520 -33.186  1.00  0.00     0.061 C 
HETATM    6  C   UNL     1      -4.222   5.582 -33.659  1.00  0.00     0.129 C 
HETATM    7  N   UNL     1      -3.369   6.297 -32.713  1.00  0.00    -0.350 N 
HETATM    8  C   UNL     1      -2.351   7.103 -33.229  1.00  0.00     0.244 C 
HETATM    9  O   UNL     1      -2.202   7.274 -34.442  1.00  0.00    -0.271 OA
HETATM   10  C   UNL     1      -3.371   5.774 -31.350  1.00  0.00     0.129 C 
HETATM   11  C   UNL     1      -4.777   5.702 -30.766  1.00  0.00     0.061 C 
HETATM   12  N   UNL     1      -7.190   5.192 -31.221  1.00  0.00    -0.346 N 
HETATM   13  C   UNL     1      -7.784   3.881 -30.990  1.00  0.00     0.254 C 
ENDROOT
BRANCH  12  14
HETATM   14  C   UNL     1      -7.914   6.338 -30.947  1.00  0.00     0.032 A 
HETATM   15  C   UNL     1      -7.981   6.923 -29.673  1.00  0.00     0.029 A 
HETATM   16  C   UNL     1      -8.733   8.078 -29.407  1.00  0.00     0.002 A 
HETATM   17  C   UNL     1      -9.448   8.696 -30.421  1.00  0.00     0.000 A 
HETATM   18  C   UNL     1      -9.404   8.159 -31.698  1.00  0.00     0.002 A 
HETATM   19  C   UNL     1      -8.648   7.006 -31.950  1.00  0.00     0.029 A 
ENDBRANCH  12  14
BRANCH   1  20
HETATM   20  C   UNL     1      -6.862   1.529 -31.039  1.00  0.00     0.230 C 
BRANCH  20  21
HETATM   21  C   UNL     1      -7.618   0.599 -31.999  1.00  0.00     0.236 C 
HETATM   22  N   UNL     1      -6.829   0.067 -32.998  1.00  0.00    -0.351 N 
HETATM   23  H   UNL     1      -5.861   0.351 -33.081  1.00  0.00     0.163 HD
HETATM   24  O   UNL     1      -8.799   0.292 -31.857  1.00  0.00    -0.272 OA
BRANCH  22  25
HETATM   25  C   UNL     1      -7.372  -0.832 -34.005  1.00  0.00     0.113 C 
HETATM   26  C   UNL     1      -7.607  -0.106 -35.332  1.00  0.00     0.037 C 
BRANCH  25  27
HETATM   27  C   UNL     1      -6.468  -2.038 -34.182  1.00  0.00    -0.036 A 
HETATM   28  C   UNL     1      -7.004  -3.250 -34.646  1.00  0.00     0.009 A 
HETATM   29  C   UNL     1      -6.188  -4.368 -34.830  1.00  0.00     0.001 A 
HETATM   30  C   UNL     1      -4.826  -4.292 -34.546  1.00  0.00     0.000 A 
HETATM   31  C   UNL     1      -4.279  -3.099 -34.079  1.00  0.00     0.001 A 
HETATM   32  C   UNL     1      -5.093  -1.978 -33.899  1.00  0.00     0.009 A 
ENDBRANCH  25  27
ENDBRANCH  22  25
ENDBRANCH  20  21
ENDBRANCH   1  20
BRANCH   8  33
HETATM   33  C   UNL     1      -1.393   7.779 -32.245  1.00  0.00     0.278 C 
BRANCH  33  34
HETATM   34  O   UNL     1      -0.151   7.081 -32.234  1.00  0.00    -0.342 OA
BRANCH  34  35
HETATM   35  C   UNL     1       0.188   6.536 -31.027  1.00  0.00     0.069 A 
HETATM   36  C   UNL     1       0.670   5.239 -30.853  1.00  0.00     0.037 A 
HETATM   37  C   UNL     1       0.960   4.769 -29.569  1.00  0.00     0.003 A 
HETATM   38  C   UNL     1       0.764   5.592 -28.460  1.00  0.00     0.000 A 
HETATM   39  C   UNL     1       0.266   6.882 -28.632  1.00  0.00     0.003 A 
HETATM   40  C   UNL     1      -0.031   7.348 -29.913  1.00  0.00     0.037 A 
ENDBRANCH  34  35
ENDBRANCH  33  34
ENDBRANCH   8  33
TORSDOF 8
ENDMDL
MODEL 5
REMARK VINA RESULT:      -9.5      2.450      8.697
REMARK  8 active torsions:
REMARK  status: ('A' for Active; 'I' for Inactive)
REMARK    1  A    between atoms: C_2  and  N_3 
REMARK    2  A    between atoms: C_2  and  C_34 
REMARK       I    between atoms: N_3  and  C_4 
REMARK    3  A    between atoms: C_4  and  C_5 
REMARK    4  A    between atoms: C_5  and  N_6 
REMARK       I    between atoms: N_12  and  C_13 
REMARK    5  A    between atoms: C_13  and  C_14 
REMARK    6  A    between atoms: C_14  and  O_15 
REMARK    7  A    between atoms: O_15  and  C_16 
REMARK    8  A    between atoms: N_25  and  C_26 
ROOT
HETATM    1  N   UNL     1      -8.314   2.996 -33.392  1.00  0.00    -0.325 N 
HETATM    2  C   UNL     1      -6.964   3.207 -33.576  1.00  0.00     0.250 C 
HETATM    3  O   UNL     1      -6.270   2.620 -34.394  1.00  0.00    -0.270 OA
HETATM    4  C   UNL     1      -6.499   4.287 -32.575  1.00  0.00     0.118 C 
HETATM    5  C   UNL     1      -6.175   5.554 -33.377  1.00  0.00     0.061 C 
HETATM    6  C   UNL     1      -4.832   5.461 -34.096  1.00  0.00     0.129 C 
HETATM    7  N   UNL     1      -3.769   4.997 -33.210  1.00  0.00    -0.350 N 
HETATM    8  C   UNL     1      -2.496   5.553 -33.367  1.00  0.00     0.244 C 
HETATM    9  O   UNL     1      -2.272   6.457 -34.176  1.00  0.00    -0.271 OA
HETATM   10  C   UNL     1      -4.014   3.715 -32.555  1.00  0.00     0.129 C 
HETATM   11  C   UNL     1      -5.323   3.711 -31.774  1.00  0.00     0.061 C 
HETATM   12  N   UNL     1      -7.715   4.463 -31.729  1.00  0.00    -0.346 N 
HETATM   13  C   UNL     1      -8.817   3.643 -32.217  1.00  0.00     0.254 C 
ENDROOT
BRANCH  12  14
HETATM   14  C   UNL     1      -7.881   5.246 -30.601  1.00  0.00     0.032 A 
HETATM   15  C   UNL     1      -7.378   4.896 -29.338  1.00  0.00     0.029 A 
HETATM   16  C   UNL     1      -7.568   5.693 -28.199  1.00  0.00     0.002 A 
HETATM   17  C   UNL     1      -8.274   6.883 -28.287  1.00  0.00     0.000 A 
HETATM   18  C   UNL     1      -8.782   7.273 -29.516  1.00  0.00     0.002 A 
HETATM   19  C   UNL     1      -8.583   6.468 -30.646  1.00  0.00     0.029 A 
ENDBRANCH  12  14
BRANCH   1  20
HETATM   20  C   UNL     1      -8.991   1.862 -34.000  1.00  0.00     0.230 C 
BRANCH  20  21
HETATM   21  C   UNL     1      -8.612   0.461 -33.494  1.00  0.00     0.236 C 
HETATM   22  N   UNL     1      -7.343   0.061 -33.859  1.00  0.00    -0.351 N 
HETATM   23  H   UNL     1      -6.782   0.649 -34.462  1.00  0.00     0.163 HD
HETATM   24  O   UNL     1      -9.336  -0.217 -32.770  1.00  0.00    -0.272 OA
BRANCH  22  25
HETATM   25  C   UNL     1      -6.811  -1.238 -33.476  1.00  0.00     0.113 C 
HETATM   26  C   UNL     1      -6.666  -2.161 -34.689  1.00  0.00     0.037 C 
BRANCH  25  27
HETATM   27  C   UNL     1      -5.495  -1.076 -32.738  1.00  0.00    -0.036 A 
HETATM   28  C   UNL     1      -4.417  -1.925 -33.037  1.00  0.00     0.009 A 
HETATM   29  C   UNL     1      -3.194  -1.784 -32.381  1.00  0.00     0.001 A 
HETATM   30  C   UNL     1      -3.031  -0.796 -31.412  1.00  0.00     0.000 A 
HETATM   31  C   UNL     1      -4.092   0.051 -31.099  1.00  0.00     0.001 A 
HETATM   32  C   UNL     1      -5.315  -0.086 -31.757  1.00  0.00     0.009 A 
ENDBRANCH  25  27
ENDBRANCH  22  25
ENDBRANCH  20  21
ENDBRANCH   1  20
BRANCH   8  33
HETATM   33  C   UNL     1      -1.355   5.005 -32.508  1.00  0.00     0.278 C 
BRANCH  33  34
HETATM   34  O   UNL     1      -0.421   6.046 -32.235  1.00  0.00    -0.342 OA
BRANCH  34  35
HETATM   35  C   UNL     1      -0.098   6.192 -30.915  1.00  0.00     0.069 A 
HETATM   36  C   UNL     1      -0.290   7.361 -30.178  1.00  0.00     0.037 A 
HETATM   37  C   UNL     1       0.103   7.413 -28.837  1.00  0.00     0.003 A 
HETATM   38  C   UNL     1       0.692   6.302 -28.236  1.00  0.00     0.000 A 
HETATM   39  C   UNL     1       0.900   5.140 -28.975  1.00  0.00     0.003 A 
HETATM   40  C   UNL     1       0.515   5.090 -30.315  1.00  0.00     0.037 A 
ENDBRANCH  34  35
ENDBRANCH  33  34
ENDBRANCH   8  33
TORSDOF 8
ENDMDL
MODEL 6
REMARK VINA RESULT:      -9.3      2.328      4.525
REMARK  8 active torsions:
REMARK  status: ('A' for Active; 'I' for Inactive)
REMARK    1  A    between atoms: C_2  and  N_3 
REMARK    2  A    between atoms: C_2  and  C_34 
REMARK       I    between atoms: N_3  and  C_4 
REMARK    3  A    between atoms: C_4  and  C_5 
REMARK    4  A    between atoms: C_5  and  N_6 
REMARK       I    between atoms: N_12  and  C_13 
REMARK    5  A    between atoms: C_13  and  C_14 
REMARK    6  A    between atoms: C_14  and  O_15 
REMARK    7  A    between atoms: O_15  and  C_16 
REMARK    8  A    between atoms: N_25  and  C_26 
ROOT
HETATM    1  N   UNL     1      -7.143   6.076 -30.239  1.00  0.00    -0.325 N 
HETATM    2  C   UNL     1      -6.473   4.931 -30.615  1.00  0.00     0.250 C 
HETATM    3  O   UNL     1      -5.301   4.692 -30.359  1.00  0.00    -0.270 OA
HETATM    4  C   UNL     1      -7.448   4.033 -31.406  1.00  0.00     0.118 C 
HETATM    5  C   UNL     1      -7.769   2.814 -30.532  1.00  0.00     0.061 C 
HETATM    6  C   UNL     1      -6.638   1.791 -30.519  1.00  0.00     0.129 C 
HETATM    7  N   UNL     1      -6.164   1.483 -31.865  1.00  0.00    -0.350 N 
HETATM    8  C   UNL     1      -5.788   0.166 -32.141  1.00  0.00     0.244 C 
HETATM    9  O   UNL     1      -5.908  -0.738 -31.311  1.00  0.00    -0.271 OA
HETATM   10  C   UNL     1      -5.719   2.631 -32.650  1.00  0.00     0.129 C 
HETATM   11  C   UNL     1      -6.795   3.705 -32.756  1.00  0.00     0.061 C 
HETATM   12  N   UNL     1      -8.629   4.929 -31.563  1.00  0.00    -0.346 N 
HETATM   13  C   UNL     1      -8.423   6.196 -30.870  1.00  0.00     0.254 C 
ENDROOT
BRANCH  12  14
HETATM   14  C   UNL     1      -9.800   4.707 -32.265  1.00  0.00     0.032 A 
HETATM   15  C   UNL     1     -10.835   3.881 -31.800  1.00  0.00     0.029 A 
HETATM   16  C   UNL     1     -12.011   3.654 -32.531  1.00  0.00     0.002 A 
HETATM   17  C   UNL     1     -12.194   4.255 -33.767  1.00  0.00     0.000 A 
HETATM   18  C   UNL     1     -11.201   5.085 -34.263  1.00  0.00     0.002 A 
HETATM   19  C   UNL     1     -10.033   5.306 -33.521  1.00  0.00     0.029 A 
ENDBRANCH  12  14
BRANCH   1  20
HETATM   20  C   UNL     1      -6.432   7.228 -29.708  1.00  0.00     0.230 C 
BRANCH  20  21
HETATM   21  C   UNL     1      -5.516   7.997 -30.674  1.00  0.00     0.236 C 
HETATM   22  N   UNL     1      -4.255   7.452 -30.800  1.00  0.00    -0.351 N 
HETATM   23  H   UNL     1      -3.990   6.657 -30.233  1.00  0.00     0.163 HD
HETATM   24  O   UNL     1      -5.887   8.964 -31.333  1.00  0.00    -0.272 OA
BRANCH  22  25
HETATM   25  C   UNL     1      -3.248   8.047 -31.666  1.00  0.00     0.113 C 
HETATM   26  C   UNL     1      -2.045   8.546 -30.861  1.00  0.00     0.037 C 
BRANCH  25  27
HETATM   27  C   UNL     1      -2.828   7.064 -32.744  1.00  0.00    -0.036 A 
HETATM   28  C   UNL     1      -1.536   7.136 -33.289  1.00  0.00     0.009 A 
HETATM   29  C   UNL     1      -1.125   6.233 -34.271  1.00  0.00     0.001 A 
HETATM   30  C   UNL     1      -2.001   5.250 -34.727  1.00  0.00     0.000 A 
HETATM   31  C   UNL     1      -3.288   5.169 -34.201  1.00  0.00     0.001 A 
HETATM   32  C   UNL     1      -3.700   6.068 -33.215  1.00  0.00     0.009 A 
ENDBRANCH  25  27
ENDBRANCH  22  25
ENDBRANCH  20  21
ENDBRANCH   1  20
BRANCH   8  33
HETATM   33  C   UNL     1      -5.201  -0.146 -33.520  1.00  0.00     0.278 C 
BRANCH  33  34
HETATM   34  O   UNL     1      -6.106  -0.973 -34.247  1.00  0.00    -0.342 OA
BRANCH  34  35
HETATM   35  C   UNL     1      -5.743  -2.288 -34.322  1.00  0.00     0.069 A 
HETATM   36  C   UNL     1      -4.463  -2.773 -34.052  1.00  0.00     0.037 A 
HETATM   37  C   UNL     1      -4.190  -4.137 -34.186  1.00  0.00     0.003 A 
HETATM   38  C   UNL     1      -5.192  -5.015 -34.597  1.00  0.00     0.000 A 
HETATM   39  C   UNL     1      -6.466  -4.530 -34.884  1.00  0.00     0.003 A 
HETATM   40  C   UNL     1      -6.736  -3.167 -34.757  1.00  0.00     0.037 A 
ENDBRANCH  34  35
ENDBRANCH  33  34
ENDBRANCH   8  33
TORSDOF 8
ENDMDL
MODEL 7
REMARK VINA RESULT:      -9.2      2.274      9.946
REMARK  8 active torsions:
REMARK  status: ('A' for Active; 'I' for Inactive)
REMARK    1  A    between atoms: C_2  and  N_3 
REMARK    2  A    between atoms: C_2  and  C_34 
REMARK       I    between atoms: N_3  and  C_4 
REMARK    3  A    between atoms: C_4  and  C_5 
REMARK    4  A    between atoms: C_5  and  N_6 
REMARK       I    between atoms: N_12  and  C_13 
REMARK    5  A    between atoms: C_13  and  C_14 
REMARK    6  A    between atoms: C_14  and  O_15 
REMARK    7  A    between atoms: O_15  and  C_16 
REMARK    8  A    between atoms: N_25  and  C_26 
ROOT
HETATM    1  N   UNL     1      -5.036   2.788 -32.062  1.00  0.00    -0.325 N 
HETATM    2  C   UNL     1      -4.220   3.824 -31.660  1.00  0.00     0.250 C 
HETATM    3  O   UNL     1      -3.034   3.712 -31.382  1.00  0.00    -0.270 OA
HETATM    4  C   UNL     1      -5.061   5.118 -31.616  1.00  0.00     0.118 C 
HETATM    5  C   UNL     1      -4.590   6.016 -32.767  1.00  0.00     0.061 C 
HETATM    6  C   UNL     1      -3.269   6.714 -32.459  1.00  0.00     0.129 C 
HETATM    7  N   UNL     1      -3.278   7.345 -31.142  1.00  0.00    -0.350 N 
HETATM    8  C   UNL     1      -2.618   8.568 -30.998  1.00  0.00     0.244 C 
HETATM    9  O   UNL     1      -2.097   9.149 -31.953  1.00  0.00    -0.271 OA
HETATM   10  C   UNL     1      -3.584   6.456 -30.025  1.00  0.00     0.129 C 
HETATM   11  C   UNL     1      -4.911   5.730 -30.217  1.00  0.00     0.061 C 
HETATM   12  N   UNL     1      -6.438   4.595 -31.850  1.00  0.00    -0.346 N 
HETATM   13  C   UNL     1      -6.419   3.157 -32.091  1.00  0.00     0.254 C 
ENDROOT
BRANCH  12  14
HETATM   14  C   UNL     1      -7.640   5.279 -31.836  1.00  0.00     0.032 A 
HETATM   15  C   UNL     1      -8.369   5.536 -30.663  1.00  0.00     0.029 A 
HETATM   16  C   UNL     1      -9.595   6.218 -30.667  1.00  0.00     0.002 A 
HETATM   17  C   UNL     1     -10.139   6.674 -31.858  1.00  0.00     0.000 A 
HETATM   18  C   UNL     1      -9.450   6.451 -33.040  1.00  0.00     0.002 A 
HETATM   19  C   UNL     1      -8.225   5.770 -33.022  1.00  0.00     0.029 A 
ENDBRANCH  12  14
BRANCH   1  20
HETATM   20  C   UNL     1      -4.607   1.402 -31.952  1.00  0.00     0.230 C 
BRANCH  20  21
HETATM   21  C   UNL     1      -5.660   0.316 -32.221  1.00  0.00     0.236 C 
HETATM   22  N   UNL     1      -5.853   0.045 -33.559  1.00  0.00    -0.351 N 
HETATM   23  H   UNL     1      -5.367   0.589 -34.260  1.00  0.00     0.163 HD
HETATM   24  O   UNL     1      -6.229  -0.310 -31.331  1.00  0.00    -0.272 OA
BRANCH  22  25
HETATM   25  C   UNL     1      -6.816  -0.951 -34.007  1.00  0.00     0.113 C 
HETATM   26  C   UNL     1      -7.564  -0.480 -35.256  1.00  0.00     0.037 C 
BRANCH  25  27
HETATM   27  C   UNL     1      -6.130  -2.285 -34.237  1.00  0.00    -0.036 A 
HETATM   28  C   UNL     1      -6.872  -3.378 -34.713  1.00  0.00     0.009 A 
HETATM   29  C   UNL     1      -6.258  -4.610 -34.945  1.00  0.00     0.001 A 
HETATM   30  C   UNL     1      -4.896  -4.770 -34.700  1.00  0.00     0.000 A 
HETATM   31  C   UNL     1      -4.147  -3.697 -34.222  1.00  0.00     0.001 A 
HETATM   32  C   UNL     1      -4.758  -2.462 -33.993  1.00  0.00     0.009 A 
ENDBRANCH  25  27
ENDBRANCH  22  25
ENDBRANCH  20  21
ENDBRANCH   1  20
BRANCH   8  33
HETATM   33  C   UNL     1      -2.541   9.189 -29.601  1.00  0.00     0.278 C 
BRANCH  33  34
HETATM   34  O   UNL     1      -1.178   9.426 -29.259  1.00  0.00    -0.342 OA
BRANCH  34  35
HETATM   35  C   UNL     1      -0.664   8.566 -28.329  1.00  0.00     0.069 A 
HETATM   36  C   UNL     1       0.680   8.207 -28.241  1.00  0.00     0.037 A 
HETATM   37  C   UNL     1       1.097   7.295 -27.267  1.00  0.00     0.003 A 
HETATM   38  C   UNL     1       0.171   6.738 -26.386  1.00  0.00     0.000 A 
HETATM   39  C   UNL     1      -1.175   7.083 -26.483  1.00  0.00     0.003 A 
HETATM   40  C   UNL     1      -1.592   7.988 -27.461  1.00  0.00     0.037 A 
ENDBRANCH  34  35
ENDBRANCH  33  34
ENDBRANCH   8  33
TORSDOF 8
ENDMDL
MODEL 8
REMARK VINA RESULT:      -9.1      4.732     10.087
REMARK  8 active torsions:
REMARK  status: ('A' for Active; 'I' for Inactive)
REMARK    1  A    between atoms: C_2  and  N_3 
REMARK    2  A    between atoms: C_2  and  C_34 
REMARK       I    between atoms: N_3  and  C_4 
REMARK    3  A    between atoms: C_4  and  C_5 
REMARK    4  A    between atoms: C_5  and  N_6 
REMARK       I    between atoms: N_12  and  C_13 
REMARK    5  A    between atoms: C_13  and  C_14 
REMARK    6  A    between atoms: C_14  and  O_15 
REMARK    7  A    between atoms: O_15  and  C_16 
REMARK    8  A    between atoms: N_25  and  C_26 
ROOT
HETATM    1  N   UNL     1      -9.710   1.492 -32.662  1.00  0.00    -0.325 N 
HETATM    2  C   UNL     1     -10.298   2.466 -33.441  1.00  0.00     0.250 C 
HETATM    3  O   UNL     1     -10.796   2.273 -34.542  1.00  0.00    -0.270 OA
HETATM    4  C   UNL     1     -10.205   3.813 -32.692  1.00  0.00     0.118 C 
HETATM    5  C   UNL     1     -11.623   4.192 -32.243  1.00  0.00     0.061 C 
HETATM    6  C   UNL     1     -12.469   4.741 -33.386  1.00  0.00     0.129 C 
HETATM    7  N   UNL     1     -11.762   5.769 -34.145  1.00  0.00    -0.350 N 
HETATM    8  C   UNL     1     -12.502   6.854 -34.624  1.00  0.00     0.244 C 
HETATM    9  O   UNL     1     -13.700   6.995 -34.367  1.00  0.00    -0.271 OA
HETATM   10  C   UNL     1     -10.474   5.362 -34.699  1.00  0.00     0.129 C 
HETATM   11  C   UNL     1      -9.532   4.826 -33.628  1.00  0.00     0.061 C 
HETATM   12  N   UNL     1      -9.334   3.459 -31.536  1.00  0.00    -0.346 N 
HETATM   13  C   UNL     1      -9.006   2.038 -31.540  1.00  0.00     0.254 C 
ENDROOT
BRANCH  12  14
HETATM   14  C   UNL     1      -8.823   4.283 -30.550  1.00  0.00     0.032 A 
HETATM   15  C   UNL     1      -9.459   5.459 -30.120  1.00  0.00     0.029 A 
HETATM   16  C   UNL     1      -8.921   6.294 -29.129  1.00  0.00     0.002 A 
HETATM   17  C   UNL     1      -7.714   5.975 -28.525  1.00  0.00     0.000 A 
HETATM   18  C   UNL     1      -7.055   4.819 -28.911  1.00  0.00     0.002 A 
HETATM   19  C   UNL     1      -7.605   3.993 -29.900  1.00  0.00     0.029 A 
ENDBRANCH  12  14
BRANCH   1  20
HETATM   20  C   UNL     1      -9.407   0.175 -33.199  1.00  0.00     0.230 C 
BRANCH  20  21
HETATM   21  C   UNL     1      -8.127   0.032 -34.035  1.00  0.00     0.236 C 
HETATM   22  N   UNL     1      -7.104  -0.625 -33.384  1.00  0.00    -0.351 N 
HETATM   23  H   UNL     1      -7.220  -0.907 -32.419  1.00  0.00     0.163 HD
HETATM   24  O   UNL     1      -8.036   0.401 -35.203  1.00  0.00    -0.272 OA
BRANCH  22  25
HETATM   25  C   UNL     1      -5.813  -0.849 -34.016  1.00  0.00     0.113 C 
HETATM   26  C   UNL     1      -4.680  -0.201 -33.215  1.00  0.00     0.037 C 
BRANCH  25  27
HETATM   27  C   UNL     1      -5.573  -2.334 -34.221  1.00  0.00    -0.036 A 
HETATM   28  C   UNL     1      -4.323  -2.889 -33.902  1.00  0.00     0.009 A 
HETATM   29  C   UNL     1      -4.087  -4.255 -34.069  1.00  0.00     0.001 A 
HETATM   30  C   UNL     1      -5.092  -5.083 -34.564  1.00  0.00     0.000 A 
HETATM   31  C   UNL     1      -6.335  -4.546 -34.892  1.00  0.00     0.001 A 
HETATM   32  C   UNL     1      -6.576  -3.182 -34.721  1.00  0.00     0.009 A 
ENDBRANCH  25  27
ENDBRANCH  22  25
ENDBRANCH  20  21
ENDBRANCH   1  20
BRANCH   8  33
HETATM   33  C   UNL     1     -11.788   7.886 -35.501  1.00  0.00     0.278 C 
BRANCH  33  34
HETATM   34  O   UNL     1     -12.369   7.889 -36.802  1.00  0.00    -0.342 OA
BRANCH  34  35
HETATM   35  C   UNL     1     -11.772   8.738 -37.692  1.00  0.00     0.069 A 
HETATM   36  C   UNL     1     -12.369   9.203 -38.863  1.00  0.00     0.037 A 
HETATM   37  C   UNL     1     -11.659  10.048 -39.721  1.00  0.00     0.003 A 
HETATM   38  C   UNL     1     -10.352  10.422 -39.412  1.00  0.00     0.000 A 
HETATM   39  C   UNL     1      -9.748   9.944 -38.251  1.00  0.00     0.003 A 
HETATM   40  C   UNL     1     -10.455   9.095 -37.399  1.00  0.00     0.037 A 
ENDBRANCH  34  35
ENDBRANCH  33  34
ENDBRANCH   8  33
TORSDOF 8
ENDMDL
MODEL 9
REMARK VINA RESULT:      -9.1      2.601      4.714
REMARK  8 active torsions:
REMARK  status: ('A' for Active; 'I' for Inactive)
REMARK    1  A    between atoms: C_2  and  N_3 
REMARK    2  A    between atoms: C_2  and  C_34 
REMARK       I    between atoms: N_3  and  C_4 
REMARK    3  A    between atoms: C_4  and  C_5 
REMARK    4  A    between atoms: C_5  and  N_6 
REMARK       I    between atoms: N_12  and  C_13 
REMARK    5  A    between atoms: C_13  and  C_14 
REMARK    6  A    between atoms: C_14  and  O_15 
REMARK    7  A    between atoms: O_15  and  C_16 
REMARK    8  A    between atoms: N_25  and  C_26 
ROOT
HETATM    1  N   UNL     1      -6.174   4.621 -29.801  1.00  0.00    -0.325 N 
HETATM    2  C   UNL     1      -7.219   4.980 -30.626  1.00  0.00     0.250 C 
HETATM    3  O   UNL     1      -7.930   5.963 -30.465  1.00  0.00    -0.270 OA
HETATM    4  C   UNL     1      -7.331   3.934 -31.755  1.00  0.00     0.118 C 
HETATM    5  C   UNL     1      -6.885   4.610 -33.059  1.00  0.00     0.061 C 
HETATM    6  C   UNL     1      -7.957   5.531 -33.633  1.00  0.00     0.129 C 
HETATM    7  N   UNL     1      -9.264   4.883 -33.684  1.00  0.00    -0.350 N 
HETATM    8  C   UNL     1     -10.091   5.162 -34.776  1.00  0.00     0.244 C 
HETATM    9  O   UNL     1      -9.721   5.875 -35.712  1.00  0.00    -0.271 OA
HETATM   10  C   UNL     1      -9.757   4.367 -32.411  1.00  0.00     0.129 C 
HETATM   11  C   UNL     1      -8.770   3.402 -31.763  1.00  0.00     0.061 C 
HETATM   12  N   UNL     1      -6.357   2.897 -31.308  1.00  0.00    -0.346 N 
HETATM   13  C   UNL     1      -5.672   3.310 -30.089  1.00  0.00     0.254 C 
ENDROOT
BRANCH  12  14
HETATM   14  C   UNL     1      -6.077   1.667 -31.876  1.00  0.00     0.032 A 
HETATM   15  C   UNL     1      -4.807   1.307 -32.353  1.00  0.00     0.029 A 
HETATM   16  C   UNL     1      -4.543   0.060 -32.940  1.00  0.00     0.002 A 
HETATM   17  C   UNL     1      -5.552  -0.881 -33.069  1.00  0.00     0.000 A 
HETATM   18  C   UNL     1      -6.821  -0.573 -32.603  1.00  0.00     0.002 A 
HETATM   19  C   UNL     1      -7.071   0.675 -32.017  1.00  0.00     0.029 A 
ENDBRANCH  12  14
BRANCH   1  20
HETATM   20  C   UNL     1      -5.979   5.256 -28.507  1.00  0.00     0.230 C 
BRANCH  20  21
HETATM   21  C   UNL     1      -5.174   6.564 -28.480  1.00  0.00     0.236 C 
HETATM   22  N   UNL     1      -3.815   6.387 -28.635  1.00  0.00    -0.351 N 
HETATM   23  H   UNL     1      -3.431   5.452 -28.692  1.00  0.00     0.163 HD
HETATM   24  O   UNL     1      -5.690   7.676 -28.400  1.00  0.00    -0.272 OA
BRANCH  22  25
HETATM   25  C   UNL     1      -2.891   7.511 -28.630  1.00  0.00     0.113 C 
HETATM   26  C   UNL     1      -2.385   7.809 -27.216  1.00  0.00     0.037 C 
BRANCH  25  27
HETATM   27  C   UNL     1      -1.744   7.260 -29.592  1.00  0.00    -0.036 A 
HETATM   28  C   UNL     1      -1.930   7.468 -30.968  1.00  0.00     0.009 A 
HETATM   29  C   UNL     1      -0.884   7.257 -31.868  1.00  0.00     0.001 A 
HETATM   30  C   UNL     1       0.360   6.829 -31.408  1.00  0.00     0.000 A 
HETATM   31  C   UNL     1       0.558   6.612 -30.046  1.00  0.00     0.001 A 
HETATM   32  C   UNL     1      -0.485   6.827 -29.143  1.00  0.00     0.009 A 
ENDBRANCH  25  27
ENDBRANCH  22  25
ENDBRANCH  20  21
ENDBRANCH   1  20
BRANCH   8  33
HETATM   33  C   UNL     1     -11.499   4.563 -34.790  1.00  0.00     0.278 C 
BRANCH  33  34
HETATM   34  O   UNL     1     -11.498   3.360 -35.553  1.00  0.00    -0.342 OA
BRANCH  34  35
HETATM   35  C   UNL     1     -11.900   2.248 -34.867  1.00  0.00     0.069 A 
HETATM   36  C   UNL     1     -11.057   1.444 -34.100  1.00  0.00     0.037 A 
HETATM   37  C   UNL     1     -11.565   0.310 -33.460  1.00  0.00     0.003 A 
HETATM   38  C   UNL     1     -12.913  -0.024 -33.592  1.00  0.00     0.000 A 
HETATM   39  C   UNL     1     -13.752   0.769 -34.372  1.00  0.00     0.003 A 
HETATM   40  C   UNL     1     -13.243   1.897 -35.016  1.00  0.00     0.037 A 
ENDBRANCH  34  35
ENDBRANCH  33  34
ENDBRANCH   8  33
TORSDOF 8
ENDMDL
MODEL 10
REMARK VINA RESULT:      -8.8      2.033      8.908
REMARK  8 active torsions:
REMARK  status: ('A' for Active; 'I' for Inactive)
REMARK    1  A    between atoms: C_2  and  N_3 
REMARK    2  A    between atoms: C_2  and  C_34 
REMARK       I    between atoms: N_3  and  C_4 
REMARK    3  A    between atoms: C_4  and  C_5 
REMARK    4  A    between atoms: C_5  and  N_6 
REMARK       I    between atoms: N_12  and  C_13 
REMARK    5  A    between atoms: C_13  and  C_14 
REMARK    6  A    between atoms: C_14  and  O_15 
REMARK    7  A    between atoms: O_15  and  C_16 
REMARK    8  A    between atoms: N_25  and  C_26 
ROOT
HETATM    1  N   UNL     1      -6.754   4.000 -33.191  1.00  0.00    -0.325 N 
HETATM    2  C   UNL     1      -6.930   4.668 -31.998  1.00  0.00     0.250 C 
HETATM    3  O   UNL     1      -7.962   4.666 -31.341  1.00  0.00    -0.270 OA
HETATM    4  C   UNL     1      -5.620   5.412 -31.658  1.00  0.00     0.118 C 
HETATM    5  C   UNL     1      -4.985   4.704 -30.454  1.00  0.00     0.061 C 
HETATM    6  C   UNL     1      -5.675   5.058 -29.140  1.00  0.00     0.129 C 
HETATM    7  N   UNL     1      -5.859   6.498 -28.989  1.00  0.00    -0.350 N 
HETATM    8  C   UNL     1      -5.712   7.047 -27.712  1.00  0.00     0.244 C 
HETATM    9  O   UNL     1      -5.371   6.366 -26.742  1.00  0.00    -0.271 OA
HETATM   10  C   UNL     1      -6.593   7.152 -30.069  1.00  0.00     0.129 C 
HETATM   11  C   UNL     1      -5.963   6.890 -31.432  1.00  0.00     0.061 C 
HETATM   12  N   UNL     1      -4.823   5.209 -32.902  1.00  0.00    -0.346 N 
HETATM   13  C   UNL     1      -5.539   4.367 -33.853  1.00  0.00     0.254 C 
ENDROOT
BRANCH  12  14
HETATM   14  C   UNL     1      -3.581   5.722 -33.230  1.00  0.00     0.032 A 
HETATM   15  C   UNL     1      -3.060   6.901 -32.673  1.00  0.00     0.029 A 
HETATM   16  C   UNL     1      -1.804   7.417 -33.027  1.00  0.00     0.002 A 
HETATM   17  C   UNL     1      -1.015   6.760 -33.959  1.00  0.00     0.000 A 
HETATM   18  C   UNL     1      -1.484   5.586 -34.528  1.00  0.00     0.002 A 
HETATM   19  C   UNL     1      -2.740   5.081 -34.164  1.00  0.00     0.029 A 
ENDBRANCH  12  14
BRANCH   1  20
HETATM   20  C   UNL     1      -7.881   3.422 -33.907  1.00  0.00     0.230 C 
BRANCH  20  21
HETATM   21  C   UNL     1      -8.073   1.901 -33.808  1.00  0.00     0.236 C 
HETATM   22  N   UNL     1      -6.893   1.189 -33.787  1.00  0.00    -0.351 N 
HETATM   23  H   UNL     1      -6.010   1.672 -33.897  1.00  0.00     0.163 HD
HETATM   24  O   UNL     1      -9.171   1.364 -33.684  1.00  0.00    -0.272 OA
BRANCH  22  25
HETATM   25  C   UNL     1      -6.876  -0.264 -33.703  1.00  0.00     0.113 C 
HETATM   26  C   UNL     1      -7.061  -0.904 -35.081  1.00  0.00     0.037 C 
BRANCH  25  27
HETATM   27  C   UNL     1      -5.601  -0.742 -33.032  1.00  0.00    -0.036 A 
HETATM   28  C   UNL     1      -4.934  -1.873 -33.529  1.00  0.00     0.009 A 
HETATM   29  C   UNL     1      -3.752  -2.321 -32.936  1.00  0.00     0.001 A 
HETATM   30  C   UNL     1      -3.224  -1.650 -31.835  1.00  0.00     0.000 A 
HETATM   31  C   UNL     1      -3.878  -0.530 -31.326  1.00  0.00     0.001 A 
HETATM   32  C   UNL     1      -5.058  -0.077 -31.921  1.00  0.00     0.009 A 
ENDBRANCH  25  27
ENDBRANCH  22  25
ENDBRANCH  20  21
ENDBRANCH   1  20
BRANCH   8  33
HETATM   33  C   UNL     1      -5.996   8.540 -27.529  1.00  0.00     0.278 C 
BRANCH  33  34
HETATM   34  O   UNL     1      -4.786   9.218 -27.202  1.00  0.00    -0.342 OA
BRANCH  34  35
HETATM   35  C   UNL     1      -3.954   9.444 -28.263  1.00  0.00     0.069 A 
HETATM   36  C   UNL     1      -2.623   9.031 -28.326  1.00  0.00     0.037 A 
HETATM   37  C   UNL     1      -1.849   9.338 -29.449  1.00  0.00     0.003 A 
HETATM   38  C   UNL     1      -2.402  10.063 -30.504  1.00  0.00     0.000 A 
HETATM   39  C   UNL     1      -3.726  10.491 -30.435  1.00  0.00     0.003 A 
HETATM   40  C   UNL     1      -4.496  10.191 -29.311  1.00  0.00     0.037 A 
ENDBRANCH  34  35
ENDBRANCH  33  34
ENDBRANCH   8  33
TORSDOF 8
ENDMDL
