MODEL 1
REMARK VINA RESULT:      -8.6      0.000      0.000
REMARK  2 active torsions:
REMARK  status: ('A' for Active; 'I' for Inactive)
REMARK    1  A    between atoms: C_5  and  C_6 
REMARK       I    between atoms: C_6  and  N_7 
REMARK    2  A    between atoms: N_7  and  N_8 
ROOT
HETATM    1  N   UNL     1      -9.029  -0.364 -32.970  1.00  0.00    -0.282 N 
HETATM    2  C   UNL     1      -7.765  -0.101 -32.658  1.00  0.00     0.127 C 
HETATM    3  C   UNL     1      -6.683  -0.928 -33.255  1.00  0.00     0.015 A 
HETATM    4  C   UNL     1      -5.414  -0.937 -32.638  1.00  0.00    -0.042 A 
HETATM    5  C   UNL     1      -4.379  -1.732 -33.147  1.00  0.00     0.008 A 
HETATM    6  C   UNL     1      -4.583  -2.492 -34.295  1.00  0.00     0.001 A 
HETATM    7  C   UNL     1      -5.817  -2.462 -34.938  1.00  0.00     0.001 A 
HETATM    8  C   UNL     1      -6.859  -1.686 -34.425  1.00  0.00     0.016 A 
HETATM    9  C   UNL     1      -5.196  -0.105 -31.401  1.00  0.00     0.069 C 
HETATM   10  C   UNL     1      -6.029   1.191 -31.442  1.00  0.00     0.028 C 
HETATM   11  C   UNL     1      -6.058   1.830 -30.049  1.00  0.00     0.038 C 
HETATM   12  C   UNL     1      -5.489   2.204 -32.459  1.00  0.00     0.038 C 
HETATM   13  N   UNL     1      -7.435   0.878 -31.816  1.00  0.00    -0.366 N 
HETATM   14  H   UNL     1      -8.171   1.422 -31.400  1.00  0.00     0.162 HD
HETATM   15  H   UNL     1      -9.204  -1.193 -33.552  1.00  0.00     0.188 HD
ENDROOT
BRANCH   1  16
HETATM   16  N   UNL     1     -10.126   0.299 -32.608  1.00  0.00    -0.264 N 
HETATM   17  C   UNL     1     -10.628   1.170 -33.565  1.00  0.00     0.270 C 
HETATM   18  O   UNL     1     -10.093   1.254 -34.669  1.00  0.00    -0.266 OA
HETATM   19  H   UNL     1     -10.578   0.159 -31.713  1.00  0.00     0.190 HD
BRANCH  17  20
HETATM   20  C   UNL     1     -11.835   1.960 -33.213  1.00  0.00     0.033 A 
HETATM   21  C   UNL     1     -13.133   1.474 -33.406  1.00  0.00     0.017 A 
HETATM   22  C   UNL     1     -14.232   2.260 -33.048  1.00  0.00     0.007 A 
HETATM   23  C   UNL     1     -14.048   3.535 -32.498  1.00  0.00    -0.062 A 
HETATM   24  C   UNL     1     -15.226   4.364 -32.073  1.00  0.00     0.048 C 
HETATM   25  C   UNL     1     -12.747   4.003 -32.282  1.00  0.00     0.007 A 
HETATM   26  C   UNL     1     -11.646   3.221 -32.636  1.00  0.00     0.017 A 
ENDBRANCH  17  20
ENDBRANCH   1  16
TORSDOF 2
ENDMDL
MODEL 2
REMARK VINA RESULT:      -8.5      2.229      7.595
REMARK  2 active torsions:
REMARK  status: ('A' for Active; 'I' for Inactive)
REMARK    1  A    between atoms: C_5  and  C_6 
REMARK       I    between atoms: C_6  and  N_7 
REMARK    2  A    between atoms: N_7  and  N_8 
ROOT
HETATM    1  N   UNL     1      -9.197   0.673 -34.172  1.00  0.00    -0.282 N 
HETATM    2  C   UNL     1      -9.413   1.839 -33.573  1.00  0.00     0.127 C 
HETATM    3  C   UNL     1     -10.525   2.704 -34.048  1.00  0.00     0.015 A 
HETATM    4  C   UNL     1     -10.510   4.074 -33.717  1.00  0.00    -0.042 A 
HETATM    5  C   UNL     1     -11.519   4.931 -34.177  1.00  0.00     0.008 A 
HETATM    6  C   UNL     1     -12.571   4.426 -34.935  1.00  0.00     0.001 A 
HETATM    7  C   UNL     1     -12.621   3.068 -35.235  1.00  0.00     0.001 A 
HETATM    8  C   UNL     1     -11.609   2.212 -34.795  1.00  0.00     0.016 A 
HETATM    9  C   UNL     1      -9.373   4.615 -32.888  1.00  0.00     0.069 C 
HETATM   10  C   UNL     1      -8.868   3.567 -31.877  1.00  0.00     0.028 C 
HETATM   11  C   UNL     1      -7.516   4.010 -31.307  1.00  0.00     0.038 C 
HETATM   12  C   UNL     1      -9.857   3.335 -30.728  1.00  0.00     0.038 C 
HETATM   13  N   UNL     1      -8.655   2.263 -32.563  1.00  0.00    -0.366 N 
HETATM   14  H   UNL     1      -7.893   1.683 -32.257  1.00  0.00     0.162 HD
HETATM   15  H   UNL     1      -9.766   0.461 -35.003  1.00  0.00     0.188 HD
ENDROOT
BRANCH   1  16
HETATM   16  N   UNL     1      -8.313  -0.271 -33.853  1.00  0.00    -0.264 N 
HETATM   17  C   UNL     1      -7.262  -0.416 -34.748  1.00  0.00     0.270 C 
HETATM   18  O   UNL     1      -7.169   0.327 -35.723  1.00  0.00    -0.266 OA
HETATM   19  H   UNL     1      -8.386  -0.824 -33.009  1.00  0.00     0.190 HD
BRANCH  17  20
HETATM   20  C   UNL     1      -6.256  -1.471 -34.463  1.00  0.00     0.033 A 
HETATM   21  C   UNL     1      -5.087  -1.217 -33.736  1.00  0.00     0.017 A 
HETATM   22  C   UNL     1      -4.179  -2.252 -33.492  1.00  0.00     0.007 A 
HETATM   23  C   UNL     1      -4.426  -3.545 -33.972  1.00  0.00    -0.062 A 
HETATM   24  C   UNL     1      -3.474  -4.668 -33.674  1.00  0.00     0.048 C 
HETATM   25  C   UNL     1      -5.611  -3.797 -34.673  1.00  0.00     0.007 A 
HETATM   26  C   UNL     1      -6.521  -2.767 -34.918  1.00  0.00     0.017 A 
ENDBRANCH  17  20
ENDBRANCH   1  16
TORSDOF 2
ENDMDL
MODEL 3
REMARK VINA RESULT:      -8.4      4.748      7.827
REMARK  2 active torsions:
REMARK  status: ('A' for Active; 'I' for Inactive)
REMARK    1  A    between atoms: C_5  and  C_6 
REMARK       I    between atoms: C_6  and  N_7 
REMARK    2  A    between atoms: N_7  and  N_8 
ROOT
HETATM    1  N   UNL     1      -5.008   2.641 -32.110  1.00  0.00    -0.282 N 
HETATM    2  C   UNL     1      -4.273   3.739 -32.246  1.00  0.00     0.127 C 
HETATM    3  C   UNL     1      -4.539   4.904 -31.360  1.00  0.00     0.015 A 
HETATM    4  C   UNL     1      -4.072   6.176 -31.751  1.00  0.00    -0.042 A 
HETATM    5  C   UNL     1      -4.334   7.306 -30.965  1.00  0.00     0.008 A 
HETATM    6  C   UNL     1      -5.027   7.174 -29.765  1.00  0.00     0.001 A 
HETATM    7  C   UNL     1      -5.458   5.919 -29.346  1.00  0.00     0.001 A 
HETATM    8  C   UNL     1      -5.216   4.792 -30.134  1.00  0.00     0.016 A 
HETATM    9  C   UNL     1      -3.315   6.312 -33.047  1.00  0.00     0.069 C 
HETATM   10  C   UNL     1      -2.474   5.053 -33.340  1.00  0.00     0.028 C 
HETATM   11  C   UNL     1      -2.006   5.074 -34.799  1.00  0.00     0.038 C 
HETATM   12  C   UNL     1      -1.259   4.930 -32.414  1.00  0.00     0.038 C 
HETATM   13  N   UNL     1      -3.309   3.834 -33.160  1.00  0.00    -0.366 N 
HETATM   14  H   UNL     1      -3.145   3.050 -33.769  1.00  0.00     0.162 HD
HETATM   15  H   UNL     1      -5.792   2.682 -31.446  1.00  0.00     0.188 HD
ENDROOT
BRANCH   1  16
HETATM   16  N   UNL     1      -4.881   1.476 -32.743  1.00  0.00    -0.264 N 
HETATM   17  C   UNL     1      -6.022   0.685 -32.751  1.00  0.00     0.270 C 
HETATM   18  O   UNL     1      -7.063   1.092 -32.239  1.00  0.00    -0.266 OA
HETATM   19  H   UNL     1      -4.027   1.198 -33.208  1.00  0.00     0.190 HD
BRANCH  17  20
HETATM   20  C   UNL     1      -5.938  -0.639 -33.418  1.00  0.00     0.033 A 
HETATM   21  C   UNL     1      -4.724  -1.312 -33.601  1.00  0.00     0.017 A 
HETATM   22  C   UNL     1      -4.708  -2.561 -34.230  1.00  0.00     0.007 A 
HETATM   23  C   UNL     1      -5.896  -3.146 -34.683  1.00  0.00    -0.062 A 
HETATM   24  C   UNL     1      -5.887  -4.507 -35.320  1.00  0.00     0.048 C 
HETATM   25  C   UNL     1      -7.109  -2.480 -34.471  1.00  0.00     0.007 A 
HETATM   26  C   UNL     1      -7.131  -1.234 -33.843  1.00  0.00     0.017 A 
ENDBRANCH  17  20
ENDBRANCH   1  16
TORSDOF 2
ENDMDL
MODEL 4
REMARK VINA RESULT:      -8.4      4.415      7.770
REMARK  2 active torsions:
REMARK  status: ('A' for Active; 'I' for Inactive)
REMARK    1  A    between atoms: C_5  and  C_6 
REMARK       I    between atoms: C_6  and  N_7 
REMARK    2  A    between atoms: N_7  and  N_8 
ROOT
HETATM    1  N   UNL     1      -4.064   2.200 -32.331  1.00  0.00    -0.282 N 
HETATM    2  C   UNL     1      -4.485   3.413 -31.987  1.00  0.00     0.127 C 
HETATM    3  C   UNL     1      -3.501   4.403 -31.475  1.00  0.00     0.015 A 
HETATM    4  C   UNL     1      -3.971   5.511 -30.739  1.00  0.00    -0.042 A 
HETATM    5  C   UNL     1      -3.075   6.447 -30.207  1.00  0.00     0.008 A 
HETATM    6  C   UNL     1      -1.709   6.312 -30.435  1.00  0.00     0.001 A 
HETATM    7  C   UNL     1      -1.233   5.246 -31.193  1.00  0.00     0.001 A 
HETATM    8  C   UNL     1      -2.120   4.300 -31.712  1.00  0.00     0.016 A 
HETATM    9  C   UNL     1      -5.453   5.658 -30.503  1.00  0.00     0.069 C 
HETATM   10  C   UNL     1      -6.267   5.115 -31.694  1.00  0.00     0.028 C 
HETATM   11  C   UNL     1      -7.736   4.957 -31.285  1.00  0.00     0.038 C 
HETATM   12  C   UNL     1      -6.174   6.018 -32.929  1.00  0.00     0.038 C 
HETATM   13  N   UNL     1      -5.766   3.767 -32.078  1.00  0.00    -0.366 N 
HETATM   14  H   UNL     1      -6.430   3.088 -32.407  1.00  0.00     0.162 HD
HETATM   15  H   UNL     1      -3.079   1.976 -32.143  1.00  0.00     0.188 HD
ENDROOT
BRANCH   1  16
HETATM   16  N   UNL     1      -4.763   1.206 -32.877  1.00  0.00    -0.264 N 
HETATM   17  C   UNL     1      -4.103  -0.015 -32.928  1.00  0.00     0.270 C 
HETATM   18  O   UNL     1      -2.977  -0.133 -32.449  1.00  0.00    -0.266 OA
HETATM   19  H   UNL     1      -5.713   1.322 -33.206  1.00  0.00     0.190 HD
BRANCH  17  20
HETATM   20  C   UNL     1      -4.818  -1.158 -33.550  1.00  0.00     0.033 A 
HETATM   21  C   UNL     1      -6.175  -1.101 -33.888  1.00  0.00     0.017 A 
HETATM   22  C   UNL     1      -6.793  -2.208 -34.479  1.00  0.00     0.007 A 
HETATM   23  C   UNL     1      -6.066  -3.377 -34.736  1.00  0.00    -0.062 A 
HETATM   24  C   UNL     1      -6.717  -4.552 -35.410  1.00  0.00     0.048 C 
HETATM   25  C   UNL     1      -4.703  -3.416 -34.422  1.00  0.00     0.007 A 
HETATM   26  C   UNL     1      -4.081  -2.314 -33.832  1.00  0.00     0.017 A 
ENDBRANCH  17  20
ENDBRANCH   1  16
TORSDOF 2
ENDMDL
MODEL 5
REMARK VINA RESULT:      -8.4      4.632      6.624
REMARK  2 active torsions:
REMARK  status: ('A' for Active; 'I' for Inactive)
REMARK    1  A    between atoms: C_5  and  C_6 
REMARK       I    between atoms: C_6  and  N_7 
REMARK    2  A    between atoms: N_7  and  N_8 
ROOT
HETATM    1  N   UNL     1      -3.429   0.010 -32.809  1.00  0.00    -0.282 N 
HETATM    2  C   UNL     1      -4.423  -0.676 -33.361  1.00  0.00     0.127 C 
HETATM    3  C   UNL     1      -4.317  -2.157 -33.458  1.00  0.00     0.015 A 
HETATM    4  C   UNL     1      -5.137  -2.839 -34.380  1.00  0.00    -0.042 A 
HETATM    5  C   UNL     1      -5.041  -4.228 -34.530  1.00  0.00     0.008 A 
HETATM    6  C   UNL     1      -4.158  -4.956 -33.736  1.00  0.00     0.001 A 
HETATM    7  C   UNL     1      -3.371  -4.301 -32.793  1.00  0.00     0.001 A 
HETATM    8  C   UNL     1      -3.450  -2.914 -32.652  1.00  0.00     0.016 A 
HETATM    9  C   UNL     1      -6.098  -2.048 -35.230  1.00  0.00     0.069 C 
HETATM   10  C   UNL     1      -6.638  -0.820 -34.472  1.00  0.00     0.028 C 
HETATM   11  C   UNL     1      -7.320   0.136 -35.457  1.00  0.00     0.038 C 
HETATM   12  C   UNL     1      -7.625  -1.202 -33.363  1.00  0.00     0.038 C 
HETATM   13  N   UNL     1      -5.512  -0.078 -33.842  1.00  0.00    -0.366 N 
HETATM   14  H   UNL     1      -5.571   0.925 -33.791  1.00  0.00     0.162 HD
HETATM   15  H   UNL     1      -2.585  -0.516 -32.548  1.00  0.00     0.188 HD
ENDROOT
BRANCH   1  16
HETATM   16  N   UNL     1      -3.363   1.317 -32.560  1.00  0.00    -0.264 N 
HETATM   17  C   UNL     1      -4.090   1.741 -31.456  1.00  0.00     0.270 C 
HETATM   18  O   UNL     1      -4.695   0.928 -30.760  1.00  0.00    -0.266 OA
HETATM   19  H   UNL     1      -2.805   1.951 -33.117  1.00  0.00     0.190 HD
BRANCH  17  20
HETATM   20  C   UNL     1      -4.080   3.192 -31.141  1.00  0.00     0.033 A 
HETATM   21  C   UNL     1      -5.119   3.816 -30.441  1.00  0.00     0.017 A 
HETATM   22  C   UNL     1      -5.051   5.186 -30.166  1.00  0.00     0.007 A 
HETATM   23  C   UNL     1      -3.952   5.943 -30.588  1.00  0.00    -0.062 A 
HETATM   24  C   UNL     1      -3.856   7.405 -30.257  1.00  0.00     0.048 C 
HETATM   25  C   UNL     1      -2.903   5.307 -31.262  1.00  0.00     0.007 A 
HETATM   26  C   UNL     1      -2.966   3.940 -31.538  1.00  0.00     0.017 A 
ENDBRANCH  17  20
ENDBRANCH   1  16
TORSDOF 2
ENDMDL
MODEL 6
REMARK VINA RESULT:      -8.4      1.667      7.986
REMARK  2 active torsions:
REMARK  status: ('A' for Active; 'I' for Inactive)
REMARK    1  A    between atoms: C_5  and  C_6 
REMARK       I    between atoms: C_6  and  N_7 
REMARK    2  A    between atoms: N_7  and  N_8 
ROOT
HETATM    1  N   UNL     1      -9.208   1.748 -32.586  1.00  0.00    -0.282 N 
HETATM    2  C   UNL     1     -10.470   1.942 -32.953  1.00  0.00     0.127 C 
HETATM    3  C   UNL     1     -11.064   3.299 -32.823  1.00  0.00     0.015 A 
HETATM    4  C   UNL     1     -12.468   3.429 -32.813  1.00  0.00    -0.042 A 
HETATM    5  C   UNL     1     -13.068   4.684 -32.654  1.00  0.00     0.008 A 
HETATM    6  C   UNL     1     -12.278   5.825 -32.544  1.00  0.00     0.001 A 
HETATM    7  C   UNL     1     -10.892   5.718 -32.593  1.00  0.00     0.001 A 
HETATM    8  C   UNL     1     -10.288   4.466 -32.734  1.00  0.00     0.016 A 
HETATM    9  C   UNL     1     -13.319   2.191 -32.941  1.00  0.00     0.069 C 
HETATM   10  C   UNL     1     -12.644   1.137 -33.841  1.00  0.00     0.028 C 
HETATM   11  C   UNL     1     -13.349  -0.214 -33.671  1.00  0.00     0.038 C 
HETATM   12  C   UNL     1     -12.652   1.536 -35.321  1.00  0.00     0.038 C 
HETATM   13  N   UNL     1     -11.226   0.952 -33.428  1.00  0.00    -0.366 N 
HETATM   14  H   UNL     1     -10.826   0.032 -33.497  1.00  0.00     0.162 HD
HETATM   15  H   UNL     1      -8.723   2.540 -32.144  1.00  0.00     0.188 HD
ENDROOT
BRANCH   1  16
HETATM   16  N   UNL     1      -8.475   0.642 -32.694  1.00  0.00    -0.264 N 
HETATM   17  C   UNL     1      -7.443   0.709 -33.620  1.00  0.00     0.270 C 
HETATM   18  O   UNL     1      -7.230   1.751 -34.237  1.00  0.00    -0.266 OA
HETATM   19  H   UNL     1      -8.638  -0.179 -32.125  1.00  0.00     0.190 HD
BRANCH  17  20
HETATM   20  C   UNL     1      -6.605  -0.502 -33.807  1.00  0.00     0.033 A 
HETATM   21  C   UNL     1      -7.048  -1.618 -34.526  1.00  0.00     0.017 A 
HETATM   22  C   UNL     1      -6.210  -2.728 -34.675  1.00  0.00     0.007 A 
HETATM   23  C   UNL     1      -4.929  -2.736 -34.109  1.00  0.00    -0.062 A 
HETATM   24  C   UNL     1      -4.012  -3.909 -34.305  1.00  0.00     0.048 C 
HETATM   25  C   UNL     1      -4.483  -1.605 -33.417  1.00  0.00     0.007 A 
HETATM   26  C   UNL     1      -5.314  -0.494 -33.265  1.00  0.00     0.017 A 
ENDBRANCH  17  20
ENDBRANCH   1  16
TORSDOF 2
ENDMDL
MODEL 7
REMARK VINA RESULT:      -8.3      4.737      8.457
REMARK  2 active torsions:
REMARK  status: ('A' for Active; 'I' for Inactive)
REMARK    1  A    between atoms: C_5  and  C_6 
REMARK       I    between atoms: C_6  and  N_7 
REMARK    2  A    between atoms: N_7  and  N_8 
ROOT
HETATM    1  N   UNL     1      -3.691   2.277 -31.947  1.00  0.00    -0.282 N 
HETATM    2  C   UNL     1      -4.966   2.242 -32.318  1.00  0.00     0.127 C 
HETATM    3  C   UNL     1      -5.462   1.083 -33.106  1.00  0.00     0.015 A 
HETATM    4  C   UNL     1      -6.659   1.220 -33.839  1.00  0.00    -0.042 A 
HETATM    5  C   UNL     1      -7.140   0.166 -34.625  1.00  0.00     0.008 A 
HETATM    6  C   UNL     1      -6.458  -1.047 -34.658  1.00  0.00     0.001 A 
HETATM    7  C   UNL     1      -5.297  -1.211 -33.908  1.00  0.00     0.001 A 
HETATM    8  C   UNL     1      -4.802  -0.157 -33.137  1.00  0.00     0.016 A 
HETATM    9  C   UNL     1      -7.399   2.533 -33.792  1.00  0.00     0.069 C 
HETATM   10  C   UNL     1      -7.248   3.214 -32.418  1.00  0.00     0.028 C 
HETATM   11  C   UNL     1      -7.703   4.674 -32.514  1.00  0.00     0.038 C 
HETATM   12  C   UNL     1      -8.043   2.501 -31.318  1.00  0.00     0.038 C 
HETATM   13  N   UNL     1      -5.816   3.222 -32.012  1.00  0.00    -0.366 N 
HETATM   14  H   UNL     1      -5.472   4.012 -31.494  1.00  0.00     0.162 HD
HETATM   15  H   UNL     1      -3.080   1.529 -32.303  1.00  0.00     0.188 HD
ENDROOT
BRANCH   1  16
HETATM   16  N   UNL     1      -3.075   3.176 -31.182  1.00  0.00    -0.264 N 
HETATM   17  C   UNL     1      -2.307   4.105 -31.870  1.00  0.00     0.270 C 
HETATM   18  O   UNL     1      -2.267   4.089 -33.099  1.00  0.00    -0.266 OA
HETATM   19  H   UNL     1      -3.179   3.199 -30.176  1.00  0.00     0.190 HD
BRANCH  17  20
HETATM   20  C   UNL     1      -1.572   5.118 -31.072  1.00  0.00     0.033 A 
HETATM   21  C   UNL     1      -2.151   6.333 -30.685  1.00  0.00     0.017 A 
HETATM   22  C   UNL     1      -1.412   7.246 -29.926  1.00  0.00     0.007 A 
HETATM   23  C   UNL     1      -0.093   6.959 -29.550  1.00  0.00    -0.062 A 
HETATM   24  C   UNL     1       0.687   7.919 -28.698  1.00  0.00     0.048 C 
HETATM   25  C   UNL     1       0.468   5.731 -29.916  1.00  0.00     0.007 A 
HETATM   26  C   UNL     1      -0.265   4.815 -30.673  1.00  0.00     0.017 A 
ENDBRANCH  17  20
ENDBRANCH   1  16
TORSDOF 2
ENDMDL
MODEL 8
REMARK VINA RESULT:      -8.3      5.240      8.466
REMARK  2 active torsions:
REMARK  status: ('A' for Active; 'I' for Inactive)
REMARK    1  A    between atoms: C_5  and  C_6 
REMARK       I    between atoms: C_6  and  N_7 
REMARK    2  A    between atoms: N_7  and  N_8 
ROOT
HETATM    1  N   UNL     1      -2.606   3.706 -32.078  1.00  0.00    -0.282 N 
HETATM    2  C   UNL     1      -2.874   4.841 -31.442  1.00  0.00     0.127 C 
HETATM    3  C   UNL     1      -1.749   5.689 -30.966  1.00  0.00     0.015 A 
HETATM    4  C   UNL     1      -1.997   6.649 -29.963  1.00  0.00    -0.042 A 
HETATM    5  C   UNL     1      -0.957   7.441 -29.459  1.00  0.00     0.008 A 
HETATM    6  C   UNL     1       0.329   7.316 -29.978  1.00  0.00     0.001 A 
HETATM    7  C   UNL     1       0.581   6.402 -30.996  1.00  0.00     0.001 A 
HETATM    8  C   UNL     1      -0.448   5.596 -31.489  1.00  0.00     0.016 A 
HETATM    9  C   UNL     1      -3.393   6.787 -29.412  1.00  0.00     0.069 C 
HETATM   10  C   UNL     1      -4.454   6.504 -30.493  1.00  0.00     0.028 C 
HETATM   11  C   UNL     1      -5.824   6.310 -29.834  1.00  0.00     0.038 C 
HETATM   12  C   UNL     1      -4.542   7.624 -31.537  1.00  0.00     0.038 C 
HETATM   13  N   UNL     1      -4.123   5.241 -31.208  1.00  0.00    -0.366 N 
HETATM   14  H   UNL     1      -4.881   4.655 -31.516  1.00  0.00     0.162 HD
HETATM   15  H   UNL     1      -1.619   3.424 -32.135  1.00  0.00     0.188 HD
ENDROOT
BRANCH   1  16
HETATM   16  N   UNL     1      -3.458   2.853 -32.644  1.00  0.00    -0.264 N 
HETATM   17  C   UNL     1      -3.482   1.585 -32.079  1.00  0.00     0.270 C 
HETATM   18  O   UNL     1      -2.785   1.329 -31.099  1.00  0.00    -0.266 OA
HETATM   19  H   UNL     1      -4.064   3.115 -33.411  1.00  0.00     0.190 HD
BRANCH  17  20
HETATM   20  C   UNL     1      -4.392   0.579 -32.682  1.00  0.00     0.033 A 
HETATM   21  C   UNL     1      -5.717   0.873 -33.021  1.00  0.00     0.017 A 
HETATM   22  C   UNL     1      -6.526  -0.114 -33.593  1.00  0.00     0.007 A 
HETATM   23  C   UNL     1      -6.022  -1.399 -33.831  1.00  0.00    -0.062 A 
HETATM   24  C   UNL     1      -6.874  -2.448 -34.486  1.00  0.00     0.048 C 
HETATM   25  C   UNL     1      -4.687  -1.677 -33.516  1.00  0.00     0.007 A 
HETATM   26  C   UNL     1      -3.875  -0.695 -32.945  1.00  0.00     0.017 A 
ENDBRANCH  17  20
ENDBRANCH   1  16
TORSDOF 2
ENDMDL
MODEL 9
REMARK VINA RESULT:      -8.0      3.960      7.420
REMARK  2 active torsions:
REMARK  status: ('A' for Active; 'I' for Inactive)
REMARK    1  A    between atoms: C_5  and  C_6 
REMARK       I    between atoms: C_6  and  N_7 
REMARK    2  A    between atoms: N_7  and  N_8 
ROOT
HETATM    1  N   UNL     1      -4.363   1.769 -32.306  1.00  0.00    -0.282 N 
HETATM    2  C   UNL     1      -5.502   1.306 -32.810  1.00  0.00     0.127 C 
HETATM    3  C   UNL     1      -5.520  -0.038 -33.446  1.00  0.00     0.015 A 
HETATM    4  C   UNL     1      -6.575  -0.361 -34.325  1.00  0.00    -0.042 A 
HETATM    5  C   UNL     1      -6.609  -1.602 -34.974  1.00  0.00     0.008 A 
HETATM    6  C   UNL     1      -5.619  -2.547 -34.724  1.00  0.00     0.001 A 
HETATM    7  C   UNL     1      -4.593  -2.259 -33.828  1.00  0.00     0.001 A 
HETATM    8  C   UNL     1      -4.544  -1.016 -33.192  1.00  0.00     0.016 A 
HETATM    9  C   UNL     1      -7.650   0.663 -34.585  1.00  0.00     0.069 C 
HETATM   10  C   UNL     1      -7.918   1.525 -33.336  1.00  0.00     0.028 C 
HETATM   11  C   UNL     1      -8.743   2.757 -33.727  1.00  0.00     0.038 C 
HETATM   12  C   UNL     1      -8.646   0.750 -32.232  1.00  0.00     0.038 C 
HETATM   13  N   UNL     1      -6.630   2.015 -32.773  1.00  0.00    -0.366 N 
HETATM   14  H   UNL     1      -6.608   2.930 -32.359  1.00  0.00     0.162 HD
HETATM   15  H   UNL     1      -3.520   1.201 -32.458  1.00  0.00     0.188 HD
ENDROOT
BRANCH   1  16
HETATM   16  N   UNL     1      -4.155   2.900 -31.635  1.00  0.00    -0.264 N 
HETATM   17  C   UNL     1      -3.058   3.639 -32.057  1.00  0.00     0.270 C 
HETATM   18  O   UNL     1      -2.387   3.261 -33.016  1.00  0.00    -0.266 OA
HETATM   19  H   UNL     1      -4.764   3.214 -30.890  1.00  0.00     0.190 HD
BRANCH  17  20
HETATM   20  C   UNL     1      -2.755   4.899 -31.332  1.00  0.00     0.033 A 
HETATM   21  C   UNL     1      -1.447   5.353 -31.131  1.00  0.00     0.017 A 
HETATM   22  C   UNL     1      -1.223   6.552 -30.446  1.00  0.00     0.007 A 
HETATM   23  C   UNL     1      -2.298   7.304 -29.956  1.00  0.00    -0.062 A 
HETATM   24  C   UNL     1      -2.062   8.614 -29.259  1.00  0.00     0.048 C 
HETATM   25  C   UNL     1      -3.604   6.858 -30.186  1.00  0.00     0.007 A 
HETATM   26  C   UNL     1      -3.833   5.663 -30.870  1.00  0.00     0.017 A 
ENDBRANCH  17  20
ENDBRANCH   1  16
TORSDOF 2
ENDMDL
MODEL 10
REMARK VINA RESULT:      -8.0      2.629      7.582
REMARK  2 active torsions:
REMARK  status: ('A' for Active; 'I' for Inactive)
REMARK    1  A    between atoms: C_5  and  C_6 
REMARK       I    between atoms: C_6  and  N_7 
REMARK    2  A    between atoms: N_7  and  N_8 
ROOT
HETATM    1  N   UNL     1      -7.344   1.546 -30.890  1.00  0.00    -0.282 N 
HETATM    2  C   UNL     1      -8.159   2.581 -31.067  1.00  0.00     0.127 C 
HETATM    3  C   UNL     1      -7.984   3.794 -30.225  1.00  0.00     0.015 A 
HETATM    4  C   UNL     1      -9.056   4.703 -30.110  1.00  0.00    -0.042 A 
HETATM    5  C   UNL     1      -8.946   5.838 -29.297  1.00  0.00     0.008 A 
HETATM    6  C   UNL     1      -7.756   6.101 -28.624  1.00  0.00     0.001 A 
HETATM    7  C   UNL     1      -6.676   5.235 -28.760  1.00  0.00     0.001 A 
HETATM    8  C   UNL     1      -6.786   4.091 -29.554  1.00  0.00     0.016 A 
HETATM    9  C   UNL     1     -10.339   4.419 -30.849  1.00  0.00     0.069 C 
HETATM   10  C   UNL     1     -10.070   3.702 -32.186  1.00  0.00     0.028 C 
HETATM   11  C   UNL     1     -11.379   3.124 -32.735  1.00  0.00     0.038 C 
HETATM   12  C   UNL     1      -9.441   4.629 -33.233  1.00  0.00     0.038 C 
HETATM   13  N   UNL     1      -9.138   2.561 -31.971  1.00  0.00    -0.366 N 
HETATM   14  H   UNL     1      -9.264   1.732 -32.525  1.00  0.00     0.162 HD
HETATM   15  H   UNL     1      -6.677   1.604 -30.110  1.00  0.00     0.188 HD
ENDROOT
BRANCH   1  16
HETATM   16  N   UNL     1      -7.286   0.411 -31.584  1.00  0.00    -0.264 N 
HETATM   17  C   UNL     1      -6.153   0.264 -32.373  1.00  0.00     0.270 C 
HETATM   18  O   UNL     1      -5.273   1.122 -32.363  1.00  0.00    -0.266 OA
HETATM   19  H   UNL     1      -7.999  -0.304 -31.522  1.00  0.00     0.190 HD
BRANCH  17  20
HETATM   20  C   UNL     1      -6.040  -0.969 -33.193  1.00  0.00     0.033 A 
HETATM   21  C   UNL     1      -4.820  -1.619 -33.408  1.00  0.00     0.017 A 
HETATM   22  C   UNL     1      -4.776  -2.782 -34.184  1.00  0.00     0.007 A 
HETATM   23  C   UNL     1      -5.945  -3.304 -34.752  1.00  0.00    -0.062 A 
HETATM   24  C   UNL     1      -5.908  -4.577 -35.549  1.00  0.00     0.048 C 
HETATM   25  C   UNL     1      -7.166  -2.665 -34.508  1.00  0.00     0.007 A 
HETATM   26  C   UNL     1      -7.215  -1.504 -33.734  1.00  0.00     0.017 A 
ENDBRANCH  17  20
ENDBRANCH   1  16
TORSDOF 2
ENDMDL
