MODEL 1
REMARK VINA RESULT:      -8.2      0.000      0.000
REMARK  10 active torsions:
REMARK  status: ('A' for Active; 'I' for Inactive)
REMARK    1  A    between atoms: C_2  and  N_3 
REMARK    2  A    between atoms: N_3  and  N_4 
REMARK       I    between atoms: N_4  and  C_5 
REMARK    3  A    between atoms: C_5  and  C_6 
REMARK    4  A    between atoms: C_7  and  N_8 
REMARK    5  A    between atoms: C_14  and  C_15 
REMARK       I    between atoms: C_15  and  N_16 
REMARK    6  A    between atoms: N_16  and  C_17 
REMARK    7  A    between atoms: C_17  and  C_18 
REMARK    8  A    between atoms: C_18  and  C_19 
REMARK    9  A    between atoms: C_21  and  O_22 
REMARK   10  A    between atoms: C_24  and  O_25 
ROOT
HETATM    1  C   UNL     1      -6.030   1.004 -29.798  1.00  0.00     0.070 C 
HETATM    2  C   UNL     1      -6.163   2.424 -30.302  1.00  0.00     0.027 C 
HETATM    3  C   UNL     1      -7.112   2.776 -31.196  1.00  0.00     0.100 C 
ENDROOT
BRANCH   2   4
HETATM    4  N   UNL     1      -5.247   3.314 -29.756  1.00  0.00    -0.302 N 
HETATM    5  H   UNL     1      -5.116   3.243 -28.739  1.00  0.00     0.186 HD
BRANCH   4   6
HETATM    6  N   UNL     1      -4.114   3.786 -30.421  1.00  0.00    -0.266 N 
HETATM    7  C   UNL     1      -4.283   4.944 -31.164  1.00  0.00     0.271 C 
HETATM    8  O   UNL     1      -5.158   5.776 -30.947  1.00  0.00    -0.266 OA
HETATM    9  H   UNL     1      -3.490   3.072 -30.799  1.00  0.00     0.190 HD
BRANCH   7  10
HETATM   10  C   UNL     1      -3.321   5.113 -32.286  1.00  0.00     0.054 A 
HETATM   11  C   UNL     1      -1.934   4.908 -32.124  1.00  0.00     0.021 A 
HETATM   12  C   UNL     1      -1.087   5.234 -33.191  1.00  0.00     0.024 A 
HETATM   13  C   UNL     1      -1.610   5.622 -34.429  1.00  0.00     0.002 A 
HETATM   14  C   UNL     1      -2.988   5.727 -34.605  1.00  0.00     0.001 A 
HETATM   15  C   UNL     1      -3.844   5.481 -33.534  1.00  0.00     0.019 A 
BRANCH  11  16
HETATM   16  N   UNL     1      -1.351   4.571 -30.879  1.00  0.00    -0.302 NA
HETATM   17  H   UNL     1      -1.057   3.592 -30.849  1.00  0.00     0.124 HD
HETATM   18  H   UNL     1      -0.560   5.169 -30.646  1.00  0.00     0.124 HD
ENDBRANCH  11  16
ENDBRANCH   7  10
ENDBRANCH   4   6
ENDBRANCH   2   4
BRANCH   3  19
HETATM   19  C   UNL     1      -8.142   1.871 -31.777  1.00  0.00     0.243 C 
HETATM   20  N   UNL     1      -7.771   1.371 -33.004  1.00  0.00    -0.357 N 
HETATM   21  H   UNL     1      -6.869   1.599 -33.395  1.00  0.00     0.162 HD
HETATM   22  O   UNL     1      -9.206   1.608 -31.236  1.00  0.00    -0.269 OA
BRANCH  20  23
HETATM   23  C   UNL     1      -8.624   0.460 -33.745  1.00  0.00     0.127 C 
BRANCH  23  24
HETATM   24  C   UNL     1      -7.933  -0.126 -34.981  1.00  0.00     0.058 C 
BRANCH  24  25
HETATM   25  C   UNL     1      -6.796  -1.043 -34.599  1.00  0.00    -0.054 A 
HETATM   26  C   UNL     1      -5.646  -0.530 -33.977  1.00  0.00     0.046 A 
HETATM   27  C   UNL     1      -4.570  -1.368 -33.654  1.00  0.00     0.102 A 
HETATM   28  C   UNL     1      -4.643  -2.742 -33.957  1.00  0.00     0.101 A 
HETATM   29  C   UNL     1      -5.795  -3.253 -34.566  1.00  0.00     0.040 A 
HETATM   30  C   UNL     1      -6.860  -2.409 -34.887  1.00  0.00     0.010 A 
BRANCH  27  31
HETATM   31  O   UNL     1      -3.409  -0.944 -33.056  1.00  0.00    -0.353 OA
HETATM   32  C   UNL     1      -3.403   0.348 -32.466  1.00  0.00     0.210 C 
ENDBRANCH  27  31
BRANCH  28  33
HETATM   33  O   UNL     1      -3.548  -3.497 -33.616  1.00  0.00    -0.353 OA
HETATM   34  C   UNL     1      -3.707  -4.908 -33.576  1.00  0.00     0.210 C 
ENDBRANCH  28  33
ENDBRANCH  24  25
ENDBRANCH  23  24
ENDBRANCH  20  23
ENDBRANCH   3  19
TORSDOF 10
ENDMDL
MODEL 2
REMARK VINA RESULT:      -8.2      2.521      3.129
REMARK  10 active torsions:
REMARK  status: ('A' for Active; 'I' for Inactive)
REMARK    1  A    between atoms: C_2  and  N_3 
REMARK    2  A    between atoms: N_3  and  N_4 
REMARK       I    between atoms: N_4  and  C_5 
REMARK    3  A    between atoms: C_5  and  C_6 
REMARK    4  A    between atoms: C_7  and  N_8 
REMARK    5  A    between atoms: C_14  and  C_15 
REMARK       I    between atoms: C_15  and  N_16 
REMARK    6  A    between atoms: N_16  and  C_17 
REMARK    7  A    between atoms: C_17  and  C_18 
REMARK    8  A    between atoms: C_18  and  C_19 
REMARK    9  A    between atoms: C_21  and  O_22 
REMARK   10  A    between atoms: C_24  and  O_25 
ROOT
HETATM    1  C   UNL     1      -4.526   2.443 -30.786  1.00  0.00     0.070 C 
HETATM    2  C   UNL     1      -4.057   3.274 -31.961  1.00  0.00     0.027 C 
HETATM    3  C   UNL     1      -4.855   3.521 -33.022  1.00  0.00     0.100 C 
ENDROOT
BRANCH   2   4
HETATM    4  N   UNL     1      -2.762   3.760 -31.838  1.00  0.00    -0.302 N 
HETATM    5  H   UNL     1      -2.216   3.786 -32.710  1.00  0.00     0.186 HD
BRANCH   4   6
HETATM    6  N   UNL     1      -2.369   4.735 -30.919  1.00  0.00    -0.266 N 
HETATM    7  C   UNL     1      -1.308   5.541 -31.305  1.00  0.00     0.271 C 
HETATM    8  O   UNL     1      -0.998   5.754 -32.472  1.00  0.00    -0.266 OA
HETATM    9  H   UNL     1      -2.422   4.467 -29.936  1.00  0.00     0.190 HD
BRANCH   7  10
HETATM   10  C   UNL     1      -0.535   6.137 -30.181  1.00  0.00     0.054 A 
HETATM   11  C   UNL     1       0.370   5.380 -29.408  1.00  0.00     0.021 A 
HETATM   12  C   UNL     1       0.941   5.983 -28.279  1.00  0.00     0.024 A 
HETATM   13  C   UNL     1       0.727   7.337 -28.004  1.00  0.00     0.002 A 
HETATM   14  C   UNL     1      -0.094   8.099 -28.832  1.00  0.00     0.001 A 
HETATM   15  C   UNL     1      -0.732   7.500 -29.916  1.00  0.00     0.019 A 
BRANCH  11  16
HETATM   16  N   UNL     1       0.578   3.995 -29.610  1.00  0.00    -0.302 NA
HETATM   17  H   UNL     1       0.167   3.435 -28.859  1.00  0.00     0.124 HD
HETATM   18  H   UNL     1       0.217   3.674 -30.507  1.00  0.00     0.124 HD
ENDBRANCH  11  16
ENDBRANCH   7  10
ENDBRANCH   4   6
ENDBRANCH   2   4
BRANCH   3  19
HETATM   19  C   UNL     1      -6.262   3.058 -33.181  1.00  0.00     0.243 C 
HETATM   20  N   UNL     1      -6.369   1.979 -34.029  1.00  0.00    -0.357 N 
HETATM   21  H   UNL     1      -5.541   1.568 -34.435  1.00  0.00     0.162 HD
HETATM   22  O   UNL     1      -7.221   3.582 -32.634  1.00  0.00    -0.269 OA
BRANCH  20  23
HETATM   23  C   UNL     1      -7.650   1.362 -34.319  1.00  0.00     0.127 C 
BRANCH  23  24
HETATM   24  C   UNL     1      -7.907   0.108 -33.478  1.00  0.00     0.058 C 
BRANCH  24  25
HETATM   25  C   UNL     1      -6.801  -0.906 -33.639  1.00  0.00    -0.054 A 
HETATM   26  C   UNL     1      -5.739  -0.952 -32.722  1.00  0.00     0.046 A 
HETATM   27  C   UNL     1      -4.688  -1.865 -32.885  1.00  0.00     0.102 A 
HETATM   28  C   UNL     1      -4.698  -2.749 -33.982  1.00  0.00     0.101 A 
HETATM   29  C   UNL     1      -5.764  -2.710 -34.888  1.00  0.00     0.040 A 
HETATM   30  C   UNL     1      -6.804  -1.794 -34.719  1.00  0.00     0.010 A 
BRANCH  27  31
HETATM   31  O   UNL     1      -3.609  -1.966 -32.040  1.00  0.00    -0.353 OA
HETATM   32  C   UNL     1      -2.746  -0.843 -31.936  1.00  0.00     0.210 C 
ENDBRANCH  27  31
BRANCH  28  33
HETATM   33  O   UNL     1      -3.632  -3.609 -34.077  1.00  0.00    -0.353 OA
HETATM   34  C   UNL     1      -3.853  -4.972 -33.744  1.00  0.00     0.210 C 
ENDBRANCH  28  33
ENDBRANCH  24  25
ENDBRANCH  23  24
ENDBRANCH  20  23
ENDBRANCH   3  19
TORSDOF 10
ENDMDL
MODEL 3
REMARK VINA RESULT:      -8.0      2.222      3.301
REMARK  10 active torsions:
REMARK  status: ('A' for Active; 'I' for Inactive)
REMARK    1  A    between atoms: C_2  and  N_3 
REMARK    2  A    between atoms: N_3  and  N_4 
REMARK       I    between atoms: N_4  and  C_5 
REMARK    3  A    between atoms: C_5  and  C_6 
REMARK    4  A    between atoms: C_7  and  N_8 
REMARK    5  A    between atoms: C_14  and  C_15 
REMARK       I    between atoms: C_15  and  N_16 
REMARK    6  A    between atoms: N_16  and  C_17 
REMARK    7  A    between atoms: C_17  and  C_18 
REMARK    8  A    between atoms: C_18  and  C_19 
REMARK    9  A    between atoms: C_21  and  O_22 
REMARK   10  A    between atoms: C_24  and  O_25 
ROOT
HETATM    1  C   UNL     1      -5.277   2.901 -33.008  1.00  0.00     0.070 C 
HETATM    2  C   UNL     1      -5.789   4.169 -33.654  1.00  0.00     0.027 C 
HETATM    3  C   UNL     1      -7.099   4.497 -33.640  1.00  0.00     0.100 C 
ENDROOT
BRANCH   2   4
HETATM    4  N   UNL     1      -4.803   4.955 -34.236  1.00  0.00    -0.302 N 
HETATM    5  H   UNL     1      -5.065   5.408 -35.121  1.00  0.00     0.186 HD
BRANCH   4   6
HETATM    6  N   UNL     1      -3.840   5.670 -33.521  1.00  0.00    -0.266 N 
HETATM    7  C   UNL     1      -2.519   5.352 -33.795  1.00  0.00     0.271 C 
HETATM    8  O   UNL     1      -2.139   4.855 -34.850  1.00  0.00    -0.266 OA
HETATM    9  H   UNL     1      -4.079   5.893 -32.554  1.00  0.00     0.190 HD
BRANCH   7  10
HETATM   10  C   UNL     1      -1.563   5.644 -32.692  1.00  0.00     0.054 A 
HETATM   11  C   UNL     1      -1.449   4.812 -31.558  1.00  0.00     0.021 A 
HETATM   12  C   UNL     1      -0.634   5.242 -30.502  1.00  0.00     0.024 A 
HETATM   13  C   UNL     1       0.150   6.393 -30.624  1.00  0.00     0.002 A 
HETATM   14  C   UNL     1       0.101   7.154 -31.790  1.00  0.00     0.001 A 
HETATM   15  C   UNL     1      -0.760   6.785 -32.822  1.00  0.00     0.019 A 
BRANCH  11  16
HETATM   16  N   UNL     1      -2.260   3.670 -31.362  1.00  0.00    -0.302 NA
HETATM   17  H   UNL     1      -3.254   3.882 -31.490  1.00  0.00     0.124 HD
HETATM   18  H   UNL     1      -1.999   2.898 -31.972  1.00  0.00     0.124 HD
ENDBRANCH  11  16
ENDBRANCH   7  10
ENDBRANCH   4   6
ENDBRANCH   2   4
BRANCH   3  19
HETATM   19  C   UNL     1      -8.188   3.710 -32.994  1.00  0.00     0.243 C 
HETATM   20  N   UNL     1      -8.692   2.733 -33.820  1.00  0.00    -0.357 N 
HETATM   21  H   UNL     1      -8.298   2.588 -34.738  1.00  0.00     0.162 HD
HETATM   22  O   UNL     1      -8.601   3.915 -31.862  1.00  0.00    -0.269 OA
BRANCH  20  23
HETATM   23  C   UNL     1      -9.755   1.844 -33.388  1.00  0.00     0.127 C 
BRANCH  23  24
HETATM   24  C   UNL     1      -9.415   0.366 -33.605  1.00  0.00     0.058 C 
BRANCH  24  25
HETATM   25  C   UNL     1      -8.061   0.017 -33.038  1.00  0.00    -0.054 A 
HETATM   26  C   UNL     1      -7.111  -0.654 -33.826  1.00  0.00     0.046 A 
HETATM   27  C   UNL     1      -5.865  -1.015 -33.296  1.00  0.00     0.102 A 
HETATM   28  C   UNL     1      -5.561  -0.701 -31.957  1.00  0.00     0.101 A 
HETATM   29  C   UNL     1      -6.504  -0.021 -31.178  1.00  0.00     0.040 A 
HETATM   30  C   UNL     1      -7.744   0.331 -31.714  1.00  0.00     0.010 A 
BRANCH  27  31
HETATM   31  O   UNL     1      -4.888  -1.681 -33.995  1.00  0.00    -0.353 OA
HETATM   32  C   UNL     1      -5.291  -2.754 -34.833  1.00  0.00     0.210 C 
ENDBRANCH  27  31
BRANCH  28  33
HETATM   33  O   UNL     1      -4.324  -1.093 -31.508  1.00  0.00    -0.353 OA
HETATM   34  C   UNL     1      -3.413  -0.077 -31.115  1.00  0.00     0.210 C 
ENDBRANCH  28  33
ENDBRANCH  24  25
ENDBRANCH  23  24
ENDBRANCH  20  23
ENDBRANCH   3  19
TORSDOF 10
ENDMDL
MODEL 4
REMARK VINA RESULT:      -8.0      2.618      7.909
REMARK  10 active torsions:
REMARK  status: ('A' for Active; 'I' for Inactive)
REMARK    1  A    between atoms: C_2  and  N_3 
REMARK    2  A    between atoms: N_3  and  N_4 
REMARK       I    between atoms: N_4  and  C_5 
REMARK    3  A    between atoms: C_5  and  C_6 
REMARK    4  A    between atoms: C_7  and  N_8 
REMARK    5  A    between atoms: C_14  and  C_15 
REMARK       I    between atoms: C_15  and  N_16 
REMARK    6  A    between atoms: N_16  and  C_17 
REMARK    7  A    between atoms: C_17  and  C_18 
REMARK    8  A    between atoms: C_18  and  C_19 
REMARK    9  A    between atoms: C_21  and  O_22 
REMARK   10  A    between atoms: C_24  and  O_25 
ROOT
HETATM    1  C   UNL     1      -4.604   3.799 -30.911  1.00  0.00     0.070 C 
HETATM    2  C   UNL     1      -5.758   3.399 -31.806  1.00  0.00     0.027 C 
HETATM    3  C   UNL     1      -5.975   3.998 -32.997  1.00  0.00     0.100 C 
ENDROOT
BRANCH   2   4
HETATM    4  N   UNL     1      -6.543   2.371 -31.303  1.00  0.00    -0.302 N 
HETATM    5  H   UNL     1      -7.338   2.667 -30.721  1.00  0.00     0.186 HD
BRANCH   4   6
HETATM    6  N   UNL     1      -6.769   1.158 -31.957  1.00  0.00    -0.266 N 
HETATM    7  C   UNL     1      -5.870   0.140 -31.675  1.00  0.00     0.271 C 
HETATM    8  O   UNL     1      -5.211   0.074 -30.643  1.00  0.00    -0.266 OA
HETATM    9  H   UNL     1      -7.116   1.226 -32.914  1.00  0.00     0.190 HD
BRANCH   7  10
HETATM   10  C   UNL     1      -5.739  -0.891 -32.741  1.00  0.00     0.054 A 
HETATM   11  C   UNL     1      -4.534  -1.592 -32.962  1.00  0.00     0.021 A 
HETATM   12  C   UNL     1      -4.456  -2.435 -34.079  1.00  0.00     0.024 A 
HETATM   13  C   UNL     1      -5.580  -2.679 -34.874  1.00  0.00     0.002 A 
HETATM   14  C   UNL     1      -6.791  -2.054 -34.586  1.00  0.00     0.001 A 
HETATM   15  C   UNL     1      -6.871  -1.154 -33.525  1.00  0.00     0.019 A 
BRANCH  11  16
HETATM   16  N   UNL     1      -3.354  -1.340 -32.223  1.00  0.00    -0.302 NA
HETATM   17  H   UNL     1      -3.339  -1.860 -31.342  1.00  0.00     0.124 HD
HETATM   18  H   UNL     1      -2.511  -1.550 -32.754  1.00  0.00     0.124 HD
ENDBRANCH  11  16
ENDBRANCH   7  10
ENDBRANCH   4   6
ENDBRANCH   2   4
BRANCH   3  19
HETATM   19  C   UNL     1      -5.138   5.074 -33.598  1.00  0.00     0.243 C 
HETATM   20  N   UNL     1      -4.157   4.578 -34.425  1.00  0.00    -0.357 N 
HETATM   21  H   UNL     1      -4.090   3.585 -34.597  1.00  0.00     0.162 HD
HETATM   22  O   UNL     1      -5.291   6.265 -33.374  1.00  0.00    -0.269 OA
BRANCH  20  23
HETATM   23  C   UNL     1      -3.233   5.454 -35.123  1.00  0.00     0.127 C 
BRANCH  23  24
HETATM   24  C   UNL     1      -1.795   5.324 -34.612  1.00  0.00     0.058 C 
BRANCH  24  25
HETATM   25  C   UNL     1      -1.585   6.101 -33.335  1.00  0.00    -0.054 A 
HETATM   26  C   UNL     1      -1.080   5.464 -32.190  1.00  0.00     0.046 A 
HETATM   27  C   UNL     1      -0.918   6.168 -30.989  1.00  0.00     0.102 A 
HETATM   28  C   UNL     1      -1.265   7.532 -30.931  1.00  0.00     0.101 A 
HETATM   29  C   UNL     1      -1.757   8.168 -32.076  1.00  0.00     0.040 A 
HETATM   30  C   UNL     1      -1.918   7.456 -33.267  1.00  0.00     0.010 A 
BRANCH  27  31
HETATM   31  O   UNL     1      -0.442   5.617 -29.825  1.00  0.00    -0.353 OA
HETATM   32  C   UNL     1       0.720   4.804 -29.906  1.00  0.00     0.210 C 
ENDBRANCH  27  31
BRANCH  28  33
HETATM   33  O   UNL     1      -1.084   8.153 -29.719  1.00  0.00    -0.353 OA
HETATM   34  C   UNL     1      -2.238   8.412 -28.933  1.00  0.00     0.210 C 
ENDBRANCH  28  33
ENDBRANCH  24  25
ENDBRANCH  23  24
ENDBRANCH  20  23
ENDBRANCH   3  19
TORSDOF 10
ENDMDL
MODEL 5
REMARK VINA RESULT:      -7.9      2.603      3.699
REMARK  10 active torsions:
REMARK  status: ('A' for Active; 'I' for Inactive)
REMARK    1  A    between atoms: C_2  and  N_3 
REMARK    2  A    between atoms: N_3  and  N_4 
REMARK       I    between atoms: N_4  and  C_5 
REMARK    3  A    between atoms: C_5  and  C_6 
REMARK    4  A    between atoms: C_7  and  N_8 
REMARK    5  A    between atoms: C_14  and  C_15 
REMARK       I    between atoms: C_15  and  N_16 
REMARK    6  A    between atoms: N_16  and  C_17 
REMARK    7  A    between atoms: C_17  and  C_18 
REMARK    8  A    between atoms: C_18  and  C_19 
REMARK    9  A    between atoms: C_21  and  O_22 
REMARK   10  A    between atoms: C_24  and  O_25 
ROOT
HETATM    1  C   UNL     1      -3.168   2.719 -31.974  1.00  0.00     0.070 C 
HETATM    2  C   UNL     1      -3.903   4.040 -32.042  1.00  0.00     0.027 C 
HETATM    3  C   UNL     1      -5.183   4.163 -31.632  1.00  0.00     0.100 C 
ENDROOT
BRANCH   2   4
HETATM    4  N   UNL     1      -3.146   5.091 -32.542  1.00  0.00    -0.302 N 
HETATM    5  H   UNL     1      -3.511   5.529 -33.398  1.00  0.00     0.186 HD
BRANCH   4   6
HETATM    6  N   UNL     1      -2.401   5.971 -31.754  1.00  0.00    -0.266 N 
HETATM    7  C   UNL     1      -1.082   5.610 -31.524  1.00  0.00     0.271 C 
HETATM    8  O   UNL     1      -0.433   4.876 -32.262  1.00  0.00    -0.266 OA
HETATM    9  H   UNL     1      -2.905   6.419 -30.989  1.00  0.00     0.190 HD
BRANCH   7  10
HETATM   10  C   UNL     1      -0.487   6.174 -30.281  1.00  0.00     0.054 A 
HETATM   11  C   UNL     1       0.395   5.431 -29.467  1.00  0.00     0.021 A 
HETATM   12  C   UNL     1       0.788   5.985 -28.241  1.00  0.00     0.024 A 
HETATM   13  C   UNL     1       0.426   7.291 -27.895  1.00  0.00     0.002 A 
HETATM   14  C   UNL     1      -0.366   8.049 -28.753  1.00  0.00     0.001 A 
HETATM   15  C   UNL     1      -0.830   7.490 -29.942  1.00  0.00     0.019 A 
BRANCH  11  16
HETATM   16  N   UNL     1       0.744   4.089 -29.744  1.00  0.00    -0.302 NA
HETATM   17  H   UNL     1       0.962   3.568 -28.890  1.00  0.00     0.124 HD
HETATM   18  H   UNL     1       0.019   3.597 -30.263  1.00  0.00     0.124 HD
ENDBRANCH  11  16
ENDBRANCH   7  10
ENDBRANCH   4   6
ENDBRANCH   2   4
BRANCH   3  19
HETATM   19  C   UNL     1      -6.022   3.078 -31.051  1.00  0.00     0.243 C 
HETATM   20  N   UNL     1      -6.727   2.387 -32.010  1.00  0.00    -0.357 N 
HETATM   21  H   UNL     1      -6.613   2.614 -32.987  1.00  0.00     0.162 HD
HETATM   22  O   UNL     1      -6.092   2.832 -29.856  1.00  0.00    -0.269 OA
BRANCH  20  23
HETATM   23  C   UNL     1      -7.601   1.281 -31.664  1.00  0.00     0.127 C 
BRANCH  23  24
HETATM   24  C   UNL     1      -7.895   0.364 -32.855  1.00  0.00     0.058 C 
BRANCH  24  25
HETATM   25  C   UNL     1      -6.746  -0.575 -33.131  1.00  0.00    -0.054 A 
HETATM   26  C   UNL     1      -6.815  -1.491 -34.193  1.00  0.00     0.046 A 
HETATM   27  C   UNL     1      -5.769  -2.392 -34.434  1.00  0.00     0.102 A 
HETATM   28  C   UNL     1      -4.633  -2.378 -33.600  1.00  0.00     0.101 A 
HETATM   29  C   UNL     1      -4.562  -1.456 -32.549  1.00  0.00     0.040 A 
HETATM   30  C   UNL     1      -5.611  -0.565 -32.316  1.00  0.00     0.010 A 
BRANCH  27  31
HETATM   31  O   UNL     1      -5.764  -3.324 -35.442  1.00  0.00    -0.353 OA
HETATM   32  C   UNL     1      -6.586  -4.471 -35.286  1.00  0.00     0.210 C 
ENDBRANCH  27  31
BRANCH  28  33
HETATM   33  O   UNL     1      -3.654  -3.294 -33.894  1.00  0.00    -0.353 OA
HETATM   34  C   UNL     1      -3.366  -4.287 -32.920  1.00  0.00     0.210 C 
ENDBRANCH  28  33
ENDBRANCH  24  25
ENDBRANCH  23  24
ENDBRANCH  20  23
ENDBRANCH   3  19
TORSDOF 10
ENDMDL
MODEL 6
REMARK VINA RESULT:      -7.9      3.162      8.827
REMARK  10 active torsions:
REMARK  status: ('A' for Active; 'I' for Inactive)
REMARK    1  A    between atoms: C_2  and  N_3 
REMARK    2  A    between atoms: N_3  and  N_4 
REMARK       I    between atoms: N_4  and  C_5 
REMARK    3  A    between atoms: C_5  and  C_6 
REMARK    4  A    between atoms: C_7  and  N_8 
REMARK    5  A    between atoms: C_14  and  C_15 
REMARK       I    between atoms: C_15  and  N_16 
REMARK    6  A    between atoms: N_16  and  C_17 
REMARK    7  A    between atoms: C_17  and  C_18 
REMARK    8  A    between atoms: C_18  and  C_19 
REMARK    9  A    between atoms: C_21  and  O_22 
REMARK   10  A    between atoms: C_24  and  O_25 
ROOT
HETATM    1  C   UNL     1      -4.878   4.415 -30.876  1.00  0.00     0.070 C 
HETATM    2  C   UNL     1      -4.628   3.260 -31.821  1.00  0.00     0.027 C 
HETATM    3  C   UNL     1      -3.483   3.155 -32.529  1.00  0.00     0.100 C 
ENDROOT
BRANCH   2   4
HETATM    4  N   UNL     1      -5.659   2.331 -31.877  1.00  0.00    -0.302 N 
HETATM    5  H   UNL     1      -6.566   2.658 -31.518  1.00  0.00     0.186 HD
BRANCH   4   6
HETATM    6  N   UNL     1      -5.784   1.348 -32.860  1.00  0.00    -0.266 N 
HETATM    7  C   UNL     1      -6.398   0.170 -32.466  1.00  0.00     0.271 C 
HETATM    8  O   UNL     1      -7.184   0.087 -31.528  1.00  0.00    -0.266 OA
HETATM    9  H   UNL     1      -5.007   1.276 -33.518  1.00  0.00     0.190 HD
BRANCH   7  10
HETATM   10  C   UNL     1      -6.023  -1.029 -33.265  1.00  0.00     0.054 A 
HETATM   11  C   UNL     1      -4.685  -1.459 -33.391  1.00  0.00     0.021 A 
HETATM   12  C   UNL     1      -4.407  -2.505 -34.281  1.00  0.00     0.024 A 
HETATM   13  C   UNL     1      -5.441  -3.193 -34.924  1.00  0.00     0.002 A 
HETATM   14  C   UNL     1      -6.767  -2.820 -34.716  1.00  0.00     0.001 A 
HETATM   15  C   UNL     1      -7.060  -1.734 -33.894  1.00  0.00     0.019 A 
BRANCH  11  16
HETATM   16  N   UNL     1      -3.600  -0.763 -32.807  1.00  0.00    -0.302 NA
HETATM   17  H   UNL     1      -3.450  -1.040 -31.833  1.00  0.00     0.124 HD
HETATM   18  H   UNL     1      -2.734  -0.885 -33.330  1.00  0.00     0.124 HD
ENDBRANCH  11  16
ENDBRANCH   7  10
ENDBRANCH   4   6
ENDBRANCH   2   4
BRANCH   3  19
HETATM   19  C   UNL     1      -2.333   4.100 -32.473  1.00  0.00     0.243 C 
HETATM   20  N   UNL     1      -2.259   4.906 -33.585  1.00  0.00    -0.357 N 
HETATM   21  H   UNL     1      -2.961   4.842 -34.307  1.00  0.00     0.162 HD
HETATM   22  O   UNL     1      -1.532   4.149 -31.550  1.00  0.00    -0.269 OA
BRANCH  20  23
HETATM   23  C   UNL     1      -1.218   5.907 -33.733  1.00  0.00     0.127 C 
BRANCH  23  24
HETATM   24  C   UNL     1      -1.724   7.330 -33.474  1.00  0.00     0.058 C 
BRANCH  24  25
HETATM   25  C   UNL     1      -1.550   7.727 -32.028  1.00  0.00    -0.054 A 
HETATM   26  C   UNL     1      -0.511   7.179 -31.259  1.00  0.00     0.046 A 
HETATM   27  C   UNL     1      -0.365   7.513 -29.906  1.00  0.00     0.102 A 
HETATM   28  C   UNL     1      -1.272   8.412 -29.310  1.00  0.00     0.101 A 
HETATM   29  C   UNL     1      -2.299   8.966 -30.081  1.00  0.00     0.040 A 
HETATM   30  C   UNL     1      -2.438   8.624 -31.427  1.00  0.00     0.010 A 
BRANCH  27  31
HETATM   31  O   UNL     1       0.616   7.013 -29.084  1.00  0.00    -0.353 OA
HETATM   32  C   UNL     1       0.563   5.632 -28.758  1.00  0.00     0.210 C 
ENDBRANCH  27  31
BRANCH  28  33
HETATM   33  O   UNL     1      -1.068   8.686 -27.980  1.00  0.00    -0.353 OA
HETATM   34  C   UNL     1      -2.011   8.173 -27.050  1.00  0.00     0.210 C 
ENDBRANCH  28  33
ENDBRANCH  24  25
ENDBRANCH  23  24
ENDBRANCH  20  23
ENDBRANCH   3  19
TORSDOF 10
ENDMDL
MODEL 7
REMARK VINA RESULT:      -7.9      3.086      8.795
REMARK  10 active torsions:
REMARK  status: ('A' for Active; 'I' for Inactive)
REMARK    1  A    between atoms: C_2  and  N_3 
REMARK    2  A    between atoms: N_3  and  N_4 
REMARK       I    between atoms: N_4  and  C_5 
REMARK    3  A    between atoms: C_5  and  C_6 
REMARK    4  A    between atoms: C_7  and  N_8 
REMARK    5  A    between atoms: C_14  and  C_15 
REMARK       I    between atoms: C_15  and  N_16 
REMARK    6  A    between atoms: N_16  and  C_17 
REMARK    7  A    between atoms: C_17  and  C_18 
REMARK    8  A    between atoms: C_18  and  C_19 
REMARK    9  A    between atoms: C_21  and  O_22 
REMARK   10  A    between atoms: C_24  and  O_25 
ROOT
HETATM    1  C   UNL     1      -4.920   4.490 -30.994  1.00  0.00     0.070 C 
HETATM    2  C   UNL     1      -4.710   3.413 -32.036  1.00  0.00     0.027 C 
HETATM    3  C   UNL     1      -3.560   3.314 -32.736  1.00  0.00     0.100 C 
ENDROOT
BRANCH   2   4
HETATM    4  N   UNL     1      -5.784   2.546 -32.187  1.00  0.00    -0.302 N 
HETATM    5  H   UNL     1      -6.709   2.951 -31.991  1.00  0.00     0.186 HD
BRANCH   4   6
HETATM    6  N   UNL     1      -5.831   1.502 -33.113  1.00  0.00    -0.266 N 
HETATM    7  C   UNL     1      -6.517   0.365 -32.713  1.00  0.00     0.271 C 
HETATM    8  O   UNL     1      -7.399   0.361 -31.861  1.00  0.00    -0.266 OA
HETATM    9  H   UNL     1      -4.992   1.370 -33.678  1.00  0.00     0.190 HD
BRANCH   7  10
HETATM   10  C   UNL     1      -6.093  -0.891 -33.389  1.00  0.00     0.054 A 
HETATM   11  C   UNL     1      -4.739  -1.283 -33.466  1.00  0.00     0.021 A 
HETATM   12  C   UNL     1      -4.417  -2.400 -34.248  1.00  0.00     0.024 A 
HETATM   13  C   UNL     1      -5.420  -3.185 -34.824  1.00  0.00     0.002 A 
HETATM   14  C   UNL     1      -6.760  -2.842 -34.660  1.00  0.00     0.001 A 
HETATM   15  C   UNL     1      -7.098  -1.692 -33.949  1.00  0.00     0.019 A 
BRANCH  11  16
HETATM   16  N   UNL     1      -3.684  -0.494 -32.949  1.00  0.00    -0.302 NA
HETATM   17  H   UNL     1      -2.973  -0.297 -33.659  1.00  0.00     0.124 HD
HETATM   18  H   UNL     1      -4.014   0.382 -32.549  1.00  0.00     0.124 HD
ENDBRANCH  11  16
ENDBRANCH   7  10
ENDBRANCH   4   6
ENDBRANCH   2   4
BRANCH   3  19
HETATM   19  C   UNL     1      -2.366   4.191 -32.580  1.00  0.00     0.243 C 
HETATM   20  N   UNL     1      -2.265   5.125 -33.585  1.00  0.00    -0.357 N 
HETATM   21  H   UNL     1      -2.977   5.184 -34.299  1.00  0.00     0.162 HD
HETATM   22  O   UNL     1      -1.555   4.089 -31.672  1.00  0.00    -0.269 OA
BRANCH  20  23
HETATM   23  C   UNL     1      -1.180   6.089 -33.624  1.00  0.00     0.127 C 
BRANCH  23  24
HETATM   24  C   UNL     1      -1.527   7.401 -32.914  1.00  0.00     0.058 C 
BRANCH  24  25
HETATM   25  C   UNL     1      -1.150   7.360 -31.453  1.00  0.00    -0.054 A 
HETATM   26  C   UNL     1      -2.108   7.632 -30.463  1.00  0.00     0.046 A 
HETATM   27  C   UNL     1      -1.758   7.634 -29.106  1.00  0.00     0.102 A 
HETATM   28  C   UNL     1      -0.429   7.357 -28.730  1.00  0.00     0.101 A 
HETATM   29  C   UNL     1       0.521   7.074 -29.718  1.00  0.00     0.040 A 
HETATM   30  C   UNL     1       0.163   7.079 -31.068  1.00  0.00     0.010 A 
BRANCH  27  31
HETATM   31  O   UNL     1      -2.631   7.901 -28.080  1.00  0.00    -0.353 OA
HETATM   32  C   UNL     1      -3.869   7.206 -28.069  1.00  0.00     0.210 C 
ENDBRANCH  27  31
BRANCH  28  33
HETATM   33  O   UNL     1      -0.161   7.383 -27.384  1.00  0.00    -0.353 OA
HETATM   34  C   UNL     1       1.201   7.401 -26.983  1.00  0.00     0.210 C 
ENDBRANCH  28  33
ENDBRANCH  24  25
ENDBRANCH  23  24
ENDBRANCH  20  23
ENDBRANCH   3  19
TORSDOF 10
ENDMDL
MODEL 8
REMARK VINA RESULT:      -7.8      2.779      4.850
REMARK  10 active torsions:
REMARK  status: ('A' for Active; 'I' for Inactive)
REMARK    1  A    between atoms: C_2  and  N_3 
REMARK    2  A    between atoms: N_3  and  N_4 
REMARK       I    between atoms: N_4  and  C_5 
REMARK    3  A    between atoms: C_5  and  C_6 
REMARK    4  A    between atoms: C_7  and  N_8 
REMARK    5  A    between atoms: C_14  and  C_15 
REMARK       I    between atoms: C_15  and  N_16 
REMARK    6  A    between atoms: N_16  and  C_17 
REMARK    7  A    between atoms: C_17  and  C_18 
REMARK    8  A    between atoms: C_18  and  C_19 
REMARK    9  A    between atoms: C_21  and  O_22 
REMARK   10  A    between atoms: C_24  and  O_25 
ROOT
HETATM    1  C   UNL     1      -4.883   3.243 -32.304  1.00  0.00     0.070 C 
HETATM    2  C   UNL     1      -3.453   2.999 -31.872  1.00  0.00     0.027 C 
HETATM    3  C   UNL     1      -3.048   1.800 -31.401  1.00  0.00     0.100 C 
ENDROOT
BRANCH   2   4
HETATM    4  N   UNL     1      -2.614   4.095 -32.019  1.00  0.00    -0.302 N 
HETATM    5  H   UNL     1      -2.653   4.560 -32.936  1.00  0.00     0.186 HD
BRANCH   4   6
HETATM    6  N   UNL     1      -2.259   4.961 -30.983  1.00  0.00    -0.266 N 
HETATM    7  C   UNL     1      -1.229   5.848 -31.259  1.00  0.00     0.271 C 
HETATM    8  O   UNL     1      -0.928   6.218 -32.389  1.00  0.00    -0.266 OA
HETATM    9  H   UNL     1      -2.301   4.570 -30.042  1.00  0.00     0.190 HD
BRANCH   7  10
HETATM   10  C   UNL     1      -0.479   6.327 -30.066  1.00  0.00     0.054 A 
HETATM   11  C   UNL     1       0.419   5.497 -29.361  1.00  0.00     0.021 A 
HETATM   12  C   UNL     1       0.967   5.981 -28.166  1.00  0.00     0.024 A 
HETATM   13  C   UNL     1       0.738   7.297 -27.753  1.00  0.00     0.002 A 
HETATM   14  C   UNL     1      -0.074   8.138 -28.510  1.00  0.00     0.001 A 
HETATM   15  C   UNL     1      -0.689   7.653 -29.662  1.00  0.00     0.019 A 
BRANCH  11  16
HETATM   16  N   UNL     1       0.640   4.142 -29.705  1.00  0.00    -0.302 NA
HETATM   17  H   UNL     1       1.025   3.609 -28.921  1.00  0.00     0.124 HD
HETATM   18  H   UNL     1      -0.205   3.684 -30.042  1.00  0.00     0.124 HD
ENDBRANCH  11  16
ENDBRANCH   7  10
ENDBRANCH   4   6
ENDBRANCH   2   4
BRANCH   3  19
HETATM   19  C   UNL     1      -3.897   0.583 -31.264  1.00  0.00     0.243 C 
HETATM   20  N   UNL     1      -3.736  -0.292 -32.313  1.00  0.00    -0.357 N 
HETATM   21  H   UNL     1      -3.070  -0.092 -33.045  1.00  0.00     0.162 HD
HETATM   22  O   UNL     1      -4.664   0.386 -30.333  1.00  0.00    -0.269 OA
BRANCH  20  23
HETATM   23  C   UNL     1      -4.462  -1.547 -32.377  1.00  0.00     0.127 C 
BRANCH  23  24
HETATM   24  C   UNL     1      -5.166  -1.756 -33.722  1.00  0.00     0.058 C 
BRANCH  24  25
HETATM   25  C   UNL     1      -6.396  -0.890 -33.846  1.00  0.00    -0.054 A 
HETATM   26  C   UNL     1      -7.084  -0.462 -32.700  1.00  0.00     0.046 A 
HETATM   27  C   UNL     1      -8.249   0.311 -32.807  1.00  0.00     0.102 A 
HETATM   28  C   UNL     1      -8.734   0.663 -34.082  1.00  0.00     0.101 A 
HETATM   29  C   UNL     1      -8.040   0.245 -35.223  1.00  0.00     0.040 A 
HETATM   30  C   UNL     1      -6.883  -0.528 -35.105  1.00  0.00     0.010 A 
BRANCH  27  31
HETATM   31  O   UNL     1      -8.984   0.759 -31.738  1.00  0.00    -0.353 OA
HETATM   32  C   UNL     1      -8.511   1.906 -31.046  1.00  0.00     0.210 C 
ENDBRANCH  27  31
BRANCH  28  33
HETATM   33  O   UNL     1      -9.883   1.415 -34.107  1.00  0.00    -0.353 OA
HETATM   34  C   UNL     1      -9.767   2.783 -34.469  1.00  0.00     0.210 C 
ENDBRANCH  28  33
ENDBRANCH  24  25
ENDBRANCH  23  24
ENDBRANCH  20  23
ENDBRANCH   3  19
TORSDOF 10
ENDMDL
MODEL 9
REMARK VINA RESULT:      -7.8      2.799      4.174
REMARK  10 active torsions:
REMARK  status: ('A' for Active; 'I' for Inactive)
REMARK    1  A    between atoms: C_2  and  N_3 
REMARK    2  A    between atoms: N_3  and  N_4 
REMARK       I    between atoms: N_4  and  C_5 
REMARK    3  A    between atoms: C_5  and  C_6 
REMARK    4  A    between atoms: C_7  and  N_8 
REMARK    5  A    between atoms: C_14  and  C_15 
REMARK       I    between atoms: C_15  and  N_16 
REMARK    6  A    between atoms: N_16  and  C_17 
REMARK    7  A    between atoms: C_17  and  C_18 
REMARK    8  A    between atoms: C_18  and  C_19 
REMARK    9  A    between atoms: C_21  and  O_22 
REMARK   10  A    between atoms: C_24  and  O_25 
ROOT
HETATM    1  C   UNL     1      -5.007   4.960 -33.097  1.00  0.00     0.070 C 
HETATM    2  C   UNL     1      -3.751   5.094 -32.264  1.00  0.00     0.027 C 
HETATM    3  C   UNL     1      -3.202   4.036 -31.628  1.00  0.00     0.100 C 
ENDROOT
BRANCH   2   4
HETATM    4  N   UNL     1      -3.219   6.376 -32.231  1.00  0.00    -0.302 N 
HETATM    5  H   UNL     1      -3.759   7.090 -32.737  1.00  0.00     0.186 HD
BRANCH   4   6
HETATM    6  N   UNL     1      -2.487   6.900 -31.163  1.00  0.00    -0.266 N 
HETATM    7  C   UNL     1      -1.108   6.853 -31.292  1.00  0.00     0.271 C 
HETATM    8  O   UNL     1      -0.520   6.806 -32.368  1.00  0.00    -0.266 OA
HETATM    9  H   UNL     1      -2.879   6.739 -30.235  1.00  0.00     0.190 HD
BRANCH   7  10
HETATM   10  C   UNL     1      -0.360   6.846 -30.005  1.00  0.00     0.054 A 
HETATM   11  C   UNL     1       0.197   5.666 -29.466  1.00  0.00     0.021 A 
HETATM   12  C   UNL     1       0.753   5.724 -28.181  1.00  0.00     0.024 A 
HETATM   13  C   UNL     1       0.876   6.943 -27.507  1.00  0.00     0.002 A 
HETATM   14  C   UNL     1       0.409   8.118 -28.093  1.00  0.00     0.001 A 
HETATM   15  C   UNL     1      -0.216   8.070 -29.337  1.00  0.00     0.019 A 
BRANCH  11  16
HETATM   16  N   UNL     1       0.050   4.401 -30.081  1.00  0.00    -0.302 NA
HETATM   17  H   UNL     1       0.618   4.321 -30.928  1.00  0.00     0.124 HD
HETATM   18  H   UNL     1       0.275   3.633 -29.450  1.00  0.00     0.124 HD
ENDBRANCH  11  16
ENDBRANCH   7  10
ENDBRANCH   4   6
ENDBRANCH   2   4
BRANCH   3  19
HETATM   19  C   UNL     1      -3.710   2.636 -31.667  1.00  0.00     0.243 C 
HETATM   20  N   UNL     1      -4.746   2.427 -30.787  1.00  0.00    -0.357 N 
HETATM   21  H   UNL     1      -5.104   3.191 -30.232  1.00  0.00     0.162 HD
HETATM   22  O   UNL     1      -3.251   1.762 -32.388  1.00  0.00    -0.269 OA
BRANCH  20  23
HETATM   23  C   UNL     1      -5.396   1.135 -30.667  1.00  0.00     0.127 C 
BRANCH  23  24
HETATM   24  C   UNL     1      -6.565   0.967 -31.643  1.00  0.00     0.058 C 
BRANCH  24  25
HETATM   25  C   UNL     1      -6.329  -0.174 -32.603  1.00  0.00    -0.054 A 
HETATM   26  C   UNL     1      -5.206  -1.003 -32.461  1.00  0.00     0.046 A 
HETATM   27  C   UNL     1      -4.959  -2.041 -33.370  1.00  0.00     0.102 A 
HETATM   28  C   UNL     1      -5.851  -2.255 -34.439  1.00  0.00     0.101 A 
HETATM   29  C   UNL     1      -6.977  -1.435 -34.572  1.00  0.00     0.040 A 
HETATM   30  C   UNL     1      -7.211  -0.401 -33.663  1.00  0.00     0.010 A 
BRANCH  27  31
HETATM   31  O   UNL     1      -3.879  -2.888 -33.307  1.00  0.00    -0.353 OA
HETATM   32  C   UNL     1      -3.163  -2.954 -32.083  1.00  0.00     0.210 C 
ENDBRANCH  27  31
BRANCH  28  33
HETATM   33  O   UNL     1      -5.539  -3.286 -35.291  1.00  0.00    -0.353 OA
HETATM   34  C   UNL     1      -6.366  -4.440 -35.259  1.00  0.00     0.210 C 
ENDBRANCH  28  33
ENDBRANCH  24  25
ENDBRANCH  23  24
ENDBRANCH  20  23
ENDBRANCH   3  19
TORSDOF 10
ENDMDL
MODEL 10
REMARK VINA RESULT:      -7.5      1.590      2.151
REMARK  10 active torsions:
REMARK  status: ('A' for Active; 'I' for Inactive)
REMARK    1  A    between atoms: C_2  and  N_3 
REMARK    2  A    between atoms: N_3  and  N_4 
REMARK       I    between atoms: N_4  and  C_5 
REMARK    3  A    between atoms: C_5  and  C_6 
REMARK    4  A    between atoms: C_7  and  N_8 
REMARK    5  A    between atoms: C_14  and  C_15 
REMARK       I    between atoms: C_15  and  N_16 
REMARK    6  A    between atoms: N_16  and  C_17 
REMARK    7  A    between atoms: C_17  and  C_18 
REMARK    8  A    between atoms: C_18  and  C_19 
REMARK    9  A    between atoms: C_21  and  O_22 
REMARK   10  A    between atoms: C_24  and  O_25 
ROOT
HETATM    1  C   UNL     1      -6.203   4.189 -32.529  1.00  0.00     0.070 C 
HETATM    2  C   UNL     1      -6.040   3.544 -31.170  1.00  0.00     0.027 C 
HETATM    3  C   UNL     1      -6.884   2.586 -30.731  1.00  0.00     0.100 C 
ENDROOT
BRANCH   2   4
HETATM    4  N   UNL     1      -4.956   4.012 -30.440  1.00  0.00    -0.302 N 
HETATM    5  H   UNL     1      -4.569   3.352 -29.752  1.00  0.00     0.186 HD
BRANCH   4   6
HETATM    6  N   UNL     1      -4.004   4.910 -30.928  1.00  0.00    -0.266 N 
HETATM    7  C   UNL     1      -2.793   4.359 -31.319  1.00  0.00     0.271 C 
HETATM    8  O   UNL     1      -2.653   3.192 -31.669  1.00  0.00    -0.266 OA
HETATM    9  H   UNL     1      -3.980   5.823 -30.473  1.00  0.00     0.190 HD
BRANCH   7  10
HETATM   10  C   UNL     1      -1.637   5.294 -31.272  1.00  0.00     0.054 A 
HETATM   11  C   UNL     1      -1.639   6.526 -31.959  1.00  0.00     0.021 A 
HETATM   12  C   UNL     1      -0.454   7.274 -31.982  1.00  0.00     0.024 A 
HETATM   13  C   UNL     1       0.658   6.877 -31.232  1.00  0.00     0.002 A 
HETATM   14  C   UNL     1       0.614   5.706 -30.479  1.00  0.00     0.001 A 
HETATM   15  C   UNL     1      -0.529   4.910 -30.503  1.00  0.00     0.019 A 
BRANCH  11  16
HETATM   16  N   UNL     1      -2.715   6.945 -32.777  1.00  0.00    -0.302 NA
HETATM   17  H   UNL     1      -3.106   6.169 -33.318  1.00  0.00     0.124 HD
HETATM   18  H   UNL     1      -3.459   7.391 -32.243  1.00  0.00     0.124 HD
ENDBRANCH  11  16
ENDBRANCH   7  10
ENDBRANCH   4   6
ENDBRANCH   2   4
BRANCH   3  19
HETATM   19  C   UNL     1      -8.034   2.022 -31.492  1.00  0.00     0.243 C 
HETATM   20  N   UNL     1      -7.661   0.991 -32.323  1.00  0.00    -0.357 N 
HETATM   21  H   UNL     1      -6.704   0.673 -32.341  1.00  0.00     0.162 HD
HETATM   22  O   UNL     1      -9.182   2.433 -31.401  1.00  0.00    -0.269 OA
BRANCH  20  23
HETATM   23  C   UNL     1      -8.628   0.292 -33.151  1.00  0.00     0.127 C 
BRANCH  23  24
HETATM   24  C   UNL     1      -8.057  -0.113 -34.514  1.00  0.00     0.058 C 
BRANCH  24  25
HETATM   25  C   UNL     1      -6.898  -1.069 -34.370  1.00  0.00    -0.054 A 
HETATM   26  C   UNL     1      -5.677  -0.632 -33.833  1.00  0.00     0.046 A 
HETATM   27  C   UNL     1      -4.584  -1.503 -33.731  1.00  0.00     0.102 A 
HETATM   28  C   UNL     1      -4.713  -2.835 -34.172  1.00  0.00     0.101 A 
HETATM   29  C   UNL     1      -5.934  -3.272 -34.695  1.00  0.00     0.040 A 
HETATM   30  C   UNL     1      -7.016  -2.395 -34.796  1.00  0.00     0.010 A 
BRANCH  27  31
HETATM   31  O   UNL     1      -3.355  -1.151 -33.229  1.00  0.00    -0.353 OA
HETATM   32  C   UNL     1      -3.277  -0.811 -31.853  1.00  0.00     0.210 C 
ENDBRANCH  27  31
BRANCH  28  33
HETATM   33  O   UNL     1      -3.597  -3.626 -34.046  1.00  0.00    -0.353 OA
HETATM   34  C   UNL     1      -3.783  -4.960 -33.597  1.00  0.00     0.210 C 
ENDBRANCH  28  33
ENDBRANCH  24  25
ENDBRANCH  23  24
ENDBRANCH  20  23
ENDBRANCH   3  19
TORSDOF 10
ENDMDL
