MODEL 1
REMARK VINA RESULT:      -8.5      0.000      0.000
REMARK  5 active torsions:
REMARK  status: ('A' for Active; 'I' for Inactive)
REMARK    1  A    between atoms: C_3  and  S_4 
REMARK    2  A    between atoms: S_4  and  C_5 
REMARK    3  A    between atoms: C_5  and  C_6 
REMARK       I    between atoms: C_6  and  N_7 
REMARK    4  A    between atoms: N_7  and  C_8 
REMARK    5  A    between atoms: C_10  and  C_11 
ROOT
HETATM    1  C   UNL     1      -5.310   2.043 -31.572  1.00  0.00     0.231 C 
HETATM    2  N   UNL     1      -4.899   1.480 -32.773  1.00  0.00    -0.327 N 
HETATM    3  O   UNL     1      -6.404   1.897 -31.034  1.00  0.00    -0.272 OA
HETATM    4  H   UNL     1      -4.038   1.843 -33.163  1.00  0.00     0.169 HD
ENDROOT
BRANCH   2   5
HETATM    5  C   UNL     1      -5.579   0.512 -33.541  1.00  0.00     0.035 A 
HETATM    6  C   UNL     1      -5.205  -0.834 -33.604  1.00  0.00     0.042 A 
HETATM    7  C   UNL     1      -5.895  -1.747 -34.420  1.00  0.00    -0.021 A 
HETATM    8  C   UNL     1      -6.974  -1.284 -35.183  1.00  0.00     0.012 A 
HETATM    9  C   UNL     1      -7.356   0.058 -35.129  1.00  0.00     0.003 A 
HETATM   10  C   UNL     1      -6.661   0.951 -34.313  1.00  0.00     0.029 A 
BRANCH   7  11
HETATM   11  C   UNL     1      -5.493  -3.145 -34.493  1.00  0.00     0.010 A 
HETATM   12  C   UNL     1      -6.182  -4.288 -34.968  1.00  0.00     0.152 A 
HETATM   13  N   UNL     1      -5.466  -5.410 -34.861  1.00  0.00    -0.187 NA
HETATM   14  N   UNL     1      -4.312  -4.993 -34.318  1.00  0.00    -0.289 N 
HETATM   15  H   UNL     1      -3.588  -5.680 -34.137  1.00  0.00     0.188 HD
HETATM   16  C   UNL     1      -4.279  -3.651 -34.075  1.00  0.00     0.123 A 
ENDBRANCH   7  11
ENDBRANCH   2   5
BRANCH   1  17
HETATM   17  C   UNL     1      -4.216   2.850 -30.897  1.00  0.00     0.182 C 
BRANCH  17  18
HETATM   18  S   UNL     1      -4.494   4.632 -31.129  1.00  0.00    -0.120 SA
BRANCH  18  19
HETATM   19  C   UNL     1      -3.504   4.878 -32.601  1.00  0.00     0.006 A 
HETATM   20  C   UNL     1      -4.032   4.938 -33.906  1.00  0.00    -0.045 A 
HETATM   21  C   UNL     1      -5.494   4.768 -34.218  1.00  0.00     0.049 C 
HETATM   22  C   UNL     1      -3.160   5.205 -34.978  1.00  0.00     0.008 A 
HETATM   23  C   UNL     1      -1.790   5.362 -34.771  1.00  0.00     0.001 A 
HETATM   24  C   UNL     1      -1.268   5.256 -33.487  1.00  0.00     0.001 A 
HETATM   25  C   UNL     1      -2.120   5.015 -32.410  1.00  0.00     0.019 A 
ENDBRANCH  18  19
ENDBRANCH  17  18
ENDBRANCH   1  17
TORSDOF 5
ENDMDL
MODEL 2
REMARK VINA RESULT:      -8.1      4.864      7.057
REMARK  5 active torsions:
REMARK  status: ('A' for Active; 'I' for Inactive)
REMARK    1  A    between atoms: C_3  and  S_4 
REMARK    2  A    between atoms: S_4  and  C_5 
REMARK    3  A    between atoms: C_5  and  C_6 
REMARK       I    between atoms: C_6  and  N_7 
REMARK    4  A    between atoms: N_7  and  C_8 
REMARK    5  A    between atoms: C_10  and  C_11 
ROOT
HETATM    1  C   UNL     1      -9.501   1.346 -33.802  1.00  0.00     0.231 C 
HETATM    2  N   UNL     1      -8.431   1.085 -34.647  1.00  0.00    -0.327 N 
HETATM    3  O   UNL     1      -9.673   0.882 -32.678  1.00  0.00    -0.272 OA
HETATM    4  H   UNL     1      -8.531   1.403 -35.603  1.00  0.00     0.169 HD
ENDROOT
BRANCH   2   5
HETATM    5  C   UNL     1      -7.254   0.370 -34.341  1.00  0.00     0.035 A 
HETATM    6  C   UNL     1      -7.072  -0.987 -34.628  1.00  0.00     0.042 A 
HETATM    7  C   UNL     1      -5.893  -1.659 -34.264  1.00  0.00    -0.021 A 
HETATM    8  C   UNL     1      -4.892  -0.945 -33.596  1.00  0.00     0.012 A 
HETATM    9  C   UNL     1      -5.062   0.409 -33.303  1.00  0.00     0.003 A 
HETATM   10  C   UNL     1      -6.238   1.062 -33.673  1.00  0.00     0.029 A 
BRANCH   7  11
HETATM   11  C   UNL     1      -5.715  -3.075 -34.553  1.00  0.00     0.010 A 
HETATM   12  C   UNL     1      -6.594  -4.026 -35.128  1.00  0.00     0.152 A 
HETATM   13  N   UNL     1      -6.055  -5.244 -35.225  1.00  0.00    -0.187 NA
HETATM   14  N   UNL     1      -4.824  -5.081 -34.715  1.00  0.00    -0.289 N 
HETATM   15  H   UNL     1      -4.206  -5.885 -34.681  1.00  0.00     0.188 HD
HETATM   16  C   UNL     1      -4.573  -3.808 -34.296  1.00  0.00     0.123 A 
ENDBRANCH   7  11
ENDBRANCH   2   5
BRANCH   1  17
HETATM   17  C   UNL     1     -10.472   2.360 -34.380  1.00  0.00     0.182 C 
BRANCH  17  18
HETATM   18  S   UNL     1     -12.004   1.547 -34.927  1.00  0.00    -0.120 SA
BRANCH  18  19
HETATM   19  C   UNL     1     -13.111   2.161 -33.660  1.00  0.00     0.006 A 
HETATM   20  C   UNL     1     -14.420   1.683 -33.456  1.00  0.00    -0.045 A 
HETATM   21  C   UNL     1     -15.056   0.618 -34.307  1.00  0.00     0.049 C 
HETATM   22  C   UNL     1     -15.171   2.198 -32.383  1.00  0.00     0.008 A 
HETATM   23  C   UNL     1     -14.656   3.197 -31.557  1.00  0.00     0.001 A 
HETATM   24  C   UNL     1     -13.380   3.698 -31.790  1.00  0.00     0.001 A 
HETATM   25  C   UNL     1     -12.614   3.183 -32.835  1.00  0.00     0.019 A 
ENDBRANCH  18  19
ENDBRANCH  17  18
ENDBRANCH   1  17
TORSDOF 5
ENDMDL
MODEL 3
REMARK VINA RESULT:      -8.0      4.300      7.245
REMARK  5 active torsions:
REMARK  status: ('A' for Active; 'I' for Inactive)
REMARK    1  A    between atoms: C_3  and  S_4 
REMARK    2  A    between atoms: S_4  and  C_5 
REMARK    3  A    between atoms: C_5  and  C_6 
REMARK       I    between atoms: C_6  and  N_7 
REMARK    4  A    between atoms: N_7  and  C_8 
REMARK    5  A    between atoms: C_10  and  C_11 
ROOT
HETATM    1  C   UNL     1      -6.952   0.571 -31.819  1.00  0.00     0.231 C 
HETATM    2  N   UNL     1      -7.565   0.635 -33.063  1.00  0.00    -0.327 N 
HETATM    3  O   UNL     1      -7.218   1.261 -30.839  1.00  0.00    -0.272 OA
HETATM    4  H   UNL     1      -7.109   0.126 -33.810  1.00  0.00     0.169 HD
ENDROOT
BRANCH   2   5
HETATM    5  C   UNL     1      -8.707   1.383 -33.417  1.00  0.00     0.035 A 
HETATM    6  C   UNL     1      -9.992   0.839 -33.516  1.00  0.00     0.042 A 
HETATM    7  C   UNL     1     -11.089   1.622 -33.913  1.00  0.00    -0.021 A 
HETATM    8  C   UNL     1     -10.875   2.972 -34.218  1.00  0.00     0.012 A 
HETATM    9  C   UNL     1      -9.597   3.526 -34.123  1.00  0.00     0.003 A 
HETATM   10  C   UNL     1      -8.519   2.734 -33.726  1.00  0.00     0.029 A 
BRANCH   7  11
HETATM   11  C   UNL     1     -12.422   1.048 -34.028  1.00  0.00     0.010 A 
HETATM   12  C   UNL     1     -13.616   1.570 -34.586  1.00  0.00     0.152 A 
HETATM   13  N   UNL     1     -14.646   0.725 -34.494  1.00  0.00    -0.187 NA
HETATM   14  N   UNL     1     -14.120  -0.345 -33.879  1.00  0.00    -0.289 N 
HETATM   15  H   UNL     1     -14.722  -1.140 -33.694  1.00  0.00     0.188 HD
HETATM   16  C   UNL     1     -12.798  -0.201 -33.575  1.00  0.00     0.123 A 
ENDBRANCH   7  11
ENDBRANCH   2   5
BRANCH   1  17
HETATM   17  C   UNL     1      -5.909  -0.528 -31.734  1.00  0.00     0.182 C 
BRANCH  17  18
HETATM   18  S   UNL     1      -4.770  -0.446 -33.150  1.00  0.00    -0.120 SA
BRANCH  18  19
HETATM   19  C   UNL     1      -4.755  -2.181 -33.593  1.00  0.00     0.006 A 
HETATM   20  C   UNL     1      -5.725  -2.797 -34.409  1.00  0.00    -0.045 A 
HETATM   21  C   UNL     1      -6.913  -2.068 -34.978  1.00  0.00     0.049 C 
HETATM   22  C   UNL     1      -5.567  -4.154 -34.744  1.00  0.00     0.008 A 
HETATM   23  C   UNL     1      -4.500  -4.900 -34.245  1.00  0.00     0.001 A 
HETATM   24  C   UNL     1      -3.570  -4.300 -33.404  1.00  0.00     0.001 A 
HETATM   25  C   UNL     1      -3.698  -2.950 -33.080  1.00  0.00     0.019 A 
ENDBRANCH  18  19
ENDBRANCH  17  18
ENDBRANCH   1  17
TORSDOF 5
ENDMDL
MODEL 4
REMARK VINA RESULT:      -7.9      2.763      8.052
REMARK  5 active torsions:
REMARK  status: ('A' for Active; 'I' for Inactive)
REMARK    1  A    between atoms: C_3  and  S_4 
REMARK    2  A    between atoms: S_4  and  C_5 
REMARK    3  A    between atoms: C_5  and  C_6 
REMARK       I    between atoms: C_6  and  N_7 
REMARK    4  A    between atoms: N_7  and  C_8 
REMARK    5  A    between atoms: C_10  and  C_11 
ROOT
HETATM    1  C   UNL     1      -4.840   0.773 -31.600  1.00  0.00     0.231 C 
HETATM    2  N   UNL     1      -4.489   1.524 -32.713  1.00  0.00    -0.327 N 
HETATM    3  O   UNL     1      -5.367   1.192 -30.574  1.00  0.00    -0.272 OA
HETATM    4  H   UNL     1      -3.903   1.060 -33.396  1.00  0.00     0.169 HD
ENDROOT
BRANCH   2   5
HETATM    5  C   UNL     1      -4.800   2.876 -32.965  1.00  0.00     0.035 A 
HETATM    6  C   UNL     1      -3.852   3.905 -32.965  1.00  0.00     0.042 A 
HETATM    7  C   UNL     1      -4.224   5.243 -33.183  1.00  0.00    -0.021 A 
HETATM    8  C   UNL     1      -5.576   5.537 -33.397  1.00  0.00     0.012 A 
HETATM    9  C   UNL     1      -6.532   4.519 -33.398  1.00  0.00     0.003 A 
HETATM   10  C   UNL     1      -6.144   3.196 -33.182  1.00  0.00     0.029 A 
BRANCH   7  11
HETATM   11  C   UNL     1      -3.235   6.311 -33.168  1.00  0.00     0.010 A 
HETATM   12  C   UNL     1      -2.262   6.691 -34.125  1.00  0.00     0.152 A 
HETATM   13  N   UNL     1      -1.529   7.738 -33.736  1.00  0.00    -0.187 NA
HETATM   14  N   UNL     1      -2.029   8.037 -32.528  1.00  0.00    -0.289 N 
HETATM   15  H   UNL     1      -1.627   8.816 -32.018  1.00  0.00     0.188 HD
HETATM   16  C   UNL     1      -3.045   7.213 -32.141  1.00  0.00     0.123 A 
ENDBRANCH   7  11
ENDBRANCH   2   5
BRANCH   1  17
HETATM   17  C   UNL     1      -4.566  -0.709 -31.781  1.00  0.00     0.182 C 
BRANCH  17  18
HETATM   18  S   UNL     1      -3.736  -1.021 -33.369  1.00  0.00    -0.120 SA
BRANCH  18  19
HETATM   19  C   UNL     1      -4.755  -2.374 -33.952  1.00  0.00     0.006 A 
HETATM   20  C   UNL     1      -6.057  -2.217 -34.467  1.00  0.00    -0.045 A 
HETATM   21  C   UNL     1      -6.759  -0.889 -34.555  1.00  0.00     0.049 C 
HETATM   22  C   UNL     1      -6.733  -3.349 -34.959  1.00  0.00     0.008 A 
HETATM   23  C   UNL     1      -6.153  -4.616 -34.900  1.00  0.00     0.001 A 
HETATM   24  C   UNL     1      -4.886  -4.773 -34.349  1.00  0.00     0.001 A 
HETATM   25  C   UNL     1      -4.193  -3.659 -33.878  1.00  0.00     0.019 A 
ENDBRANCH  18  19
ENDBRANCH  17  18
ENDBRANCH   1  17
TORSDOF 5
ENDMDL
MODEL 5
REMARK VINA RESULT:      -7.7      3.247      8.483
REMARK  5 active torsions:
REMARK  status: ('A' for Active; 'I' for Inactive)
REMARK    1  A    between atoms: C_3  and  S_4 
REMARK    2  A    between atoms: S_4  and  C_5 
REMARK    3  A    between atoms: C_5  and  C_6 
REMARK       I    between atoms: C_6  and  N_7 
REMARK    4  A    between atoms: N_7  and  C_8 
REMARK    5  A    between atoms: C_10  and  C_11 
ROOT
HETATM    1  C   UNL     1      -4.176   2.145 -32.046  1.00  0.00     0.231 C 
HETATM    2  N   UNL     1      -3.993   3.336 -32.734  1.00  0.00    -0.327 N 
HETATM    3  O   UNL     1      -3.332   1.547 -31.385  1.00  0.00    -0.272 OA
HETATM    4  H   UNL     1      -4.733   3.600 -33.373  1.00  0.00     0.169 HD
ENDROOT
BRANCH   2   5
HETATM    5  C   UNL     1      -2.865   4.182 -32.695  1.00  0.00     0.035 A 
HETATM    6  C   UNL     1      -2.227   4.573 -31.513  1.00  0.00     0.042 A 
HETATM    7  C   UNL     1      -1.130   5.452 -31.531  1.00  0.00    -0.021 A 
HETATM    8  C   UNL     1      -0.683   5.943 -32.763  1.00  0.00     0.012 A 
HETATM    9  C   UNL     1      -1.312   5.561 -33.949  1.00  0.00     0.003 A 
HETATM   10  C   UNL     1      -2.398   4.686 -33.914  1.00  0.00     0.029 A 
BRANCH   7  11
HETATM   11  C   UNL     1      -0.478   5.867 -30.297  1.00  0.00     0.010 A 
HETATM   12  C   UNL     1      -0.597   7.056 -29.536  1.00  0.00     0.152 A 
HETATM   13  N   UNL     1       0.183   7.060 -28.451  1.00  0.00    -0.187 NA
HETATM   14  N   UNL     1       0.805   5.873 -28.509  1.00  0.00    -0.289 N 
HETATM   15  H   UNL     1       1.464   5.637 -27.775  1.00  0.00     0.188 HD
HETATM   16  C   UNL     1       0.449   5.125 -29.593  1.00  0.00     0.123 A 
ENDBRANCH   7  11
ENDBRANCH   2   5
BRANCH   1  17
HETATM   17  C   UNL     1      -5.605   1.637 -32.122  1.00  0.00     0.182 C 
BRANCH  17  18
HETATM   18  S   UNL     1      -5.764   0.033 -31.280  1.00  0.00    -0.120 SA
BRANCH  18  19
HETATM   19  C   UNL     1      -5.630  -1.042 -32.706  1.00  0.00     0.006 A 
HETATM   20  C   UNL     1      -4.501  -1.835 -32.995  1.00  0.00    -0.045 A 
HETATM   21  C   UNL     1      -3.256  -1.842 -32.150  1.00  0.00     0.049 C 
HETATM   22  C   UNL     1      -4.541  -2.692 -34.110  1.00  0.00     0.008 A 
HETATM   23  C   UNL     1      -5.654  -2.732 -34.948  1.00  0.00     0.001 A 
HETATM   24  C   UNL     1      -6.748  -1.915 -34.686  1.00  0.00     0.001 A 
HETATM   25  C   UNL     1      -6.734  -1.075 -33.572  1.00  0.00     0.019 A 
ENDBRANCH  18  19
ENDBRANCH  17  18
ENDBRANCH   1  17
TORSDOF 5
ENDMDL
MODEL 6
REMARK VINA RESULT:      -7.6      3.236      8.407
REMARK  5 active torsions:
REMARK  status: ('A' for Active; 'I' for Inactive)
REMARK    1  A    between atoms: C_3  and  S_4 
REMARK    2  A    between atoms: S_4  and  C_5 
REMARK    3  A    between atoms: C_5  and  C_6 
REMARK       I    between atoms: C_6  and  N_7 
REMARK    4  A    between atoms: N_7  and  C_8 
REMARK    5  A    between atoms: C_10  and  C_11 
ROOT
HETATM    1  C   UNL     1      -4.136   2.319 -32.156  1.00  0.00     0.231 C 
HETATM    2  N   UNL     1      -3.962   3.507 -32.853  1.00  0.00    -0.327 N 
HETATM    3  O   UNL     1      -3.281   1.722 -31.508  1.00  0.00    -0.272 OA
HETATM    4  H   UNL     1      -4.714   3.770 -33.478  1.00  0.00     0.169 HD
ENDROOT
BRANCH   2   5
HETATM    5  C   UNL     1      -2.832   4.350 -32.839  1.00  0.00     0.035 A 
HETATM    6  C   UNL     1      -2.145   4.712 -31.675  1.00  0.00     0.042 A 
HETATM    7  C   UNL     1      -1.048   5.590 -31.716  1.00  0.00    -0.021 A 
HETATM    8  C   UNL     1      -0.649   6.108 -32.954  1.00  0.00     0.012 A 
HETATM    9  C   UNL     1      -1.327   5.755 -34.123  1.00  0.00     0.003 A 
HETATM   10  C   UNL     1      -2.413   4.881 -34.064  1.00  0.00     0.029 A 
BRANCH   7  11
HETATM   11  C   UNL     1      -0.346   5.974 -30.500  1.00  0.00     0.010 A 
HETATM   12  C   UNL     1       0.309   5.191 -29.517  1.00  0.00     0.152 A 
HETATM   13  N   UNL     1       0.838   5.925 -28.534  1.00  0.00    -0.187 NA
HETATM   14  N   UNL     1       0.527   7.183 -28.882  1.00  0.00    -0.289 N 
HETATM   15  H   UNL     1       0.830   7.940 -28.277  1.00  0.00     0.188 HD
HETATM   16  C   UNL     1      -0.182   7.267 -30.044  1.00  0.00     0.123 A 
ENDBRANCH   7  11
ENDBRANCH   2   5
BRANCH   1  17
HETATM   17  C   UNL     1      -5.567   1.815 -32.201  1.00  0.00     0.182 C 
BRANCH  17  18
HETATM   18  S   UNL     1      -5.725   0.242 -31.304  1.00  0.00    -0.120 SA
BRANCH  18  19
HETATM   19  C   UNL     1      -5.776  -0.872 -32.706  1.00  0.00     0.006 A 
HETATM   20  C   UNL     1      -6.913  -1.075 -33.513  1.00  0.00    -0.045 A 
HETATM   21  C   UNL     1      -8.235  -0.399 -33.266  1.00  0.00     0.049 C 
HETATM   22  C   UNL     1      -6.811  -1.925 -34.629  1.00  0.00     0.008 A 
HETATM   23  C   UNL     1      -5.623  -2.597 -34.916  1.00  0.00     0.001 A 
HETATM   24  C   UNL     1      -4.516  -2.430 -34.091  1.00  0.00     0.001 A 
HETATM   25  C   UNL     1      -4.594  -1.573 -32.994  1.00  0.00     0.019 A 
ENDBRANCH  18  19
ENDBRANCH  17  18
ENDBRANCH   1  17
TORSDOF 5
ENDMDL
MODEL 7
REMARK VINA RESULT:      -7.5      2.879      7.948
REMARK  5 active torsions:
REMARK  status: ('A' for Active; 'I' for Inactive)
REMARK    1  A    between atoms: C_3  and  S_4 
REMARK    2  A    between atoms: S_4  and  C_5 
REMARK    3  A    between atoms: C_5  and  C_6 
REMARK       I    between atoms: C_6  and  N_7 
REMARK    4  A    between atoms: N_7  and  C_8 
REMARK    5  A    between atoms: C_10  and  C_11 
ROOT
HETATM    1  C   UNL     1      -6.836   1.088 -32.122  1.00  0.00     0.231 C 
HETATM    2  N   UNL     1      -5.528   1.494 -31.890  1.00  0.00    -0.327 N 
HETATM    3  O   UNL     1      -7.839   1.793 -32.066  1.00  0.00    -0.272 OA
HETATM    4  H   UNL     1      -4.842   0.755 -31.800  1.00  0.00     0.169 HD
ENDROOT
BRANCH   2   5
HETATM    5  C   UNL     1      -5.063   2.812 -31.700  1.00  0.00     0.035 A 
HETATM    6  C   UNL     1      -4.150   3.445 -32.550  1.00  0.00     0.042 A 
HETATM    7  C   UNL     1      -3.688   4.746 -32.289  1.00  0.00    -0.021 A 
HETATM    8  C   UNL     1      -4.156   5.407 -31.147  1.00  0.00     0.012 A 
HETATM    9  C   UNL     1      -5.066   4.786 -30.290  1.00  0.00     0.003 A 
HETATM   10  C   UNL     1      -5.515   3.494 -30.565  1.00  0.00     0.029 A 
BRANCH   7  11
HETATM   11  C   UNL     1      -2.728   5.395 -33.170  1.00  0.00     0.010 A 
HETATM   12  C   UNL     1      -2.310   6.746 -33.256  1.00  0.00     0.152 A 
HETATM   13  N   UNL     1      -1.400   6.950 -34.213  1.00  0.00    -0.187 NA
HETATM   14  N   UNL     1      -1.228   5.730 -34.745  1.00  0.00    -0.289 N 
HETATM   15  H   UNL     1      -0.567   5.625 -35.508  1.00  0.00     0.188 HD
HETATM   16  C   UNL     1      -2.000   4.769 -34.162  1.00  0.00     0.123 A 
ENDBRANCH   7  11
ENDBRANCH   2   5
BRANCH   1  17
HETATM   17  C   UNL     1      -6.933  -0.368 -32.538  1.00  0.00     0.182 C 
BRANCH  17  18
HETATM   18  S   UNL     1      -6.738  -0.538 -34.338  1.00  0.00    -0.120 SA
BRANCH  18  19
HETATM   19  C   UNL     1      -5.972  -2.157 -34.382  1.00  0.00     0.006 A 
HETATM   20  C   UNL     1      -4.637  -2.409 -34.010  1.00  0.00    -0.045 A 
HETATM   21  C   UNL     1      -3.684  -1.335 -33.563  1.00  0.00     0.049 C 
HETATM   22  C   UNL     1      -4.169  -3.737 -34.022  1.00  0.00     0.008 A 
HETATM   23  C   UNL     1      -4.989  -4.786 -34.437  1.00  0.00     0.001 A 
HETATM   24  C   UNL     1      -6.292  -4.526 -34.847  1.00  0.00     0.001 A 
HETATM   25  C   UNL     1      -6.779  -3.219 -34.819  1.00  0.00     0.019 A 
ENDBRANCH  18  19
ENDBRANCH  17  18
ENDBRANCH   1  17
TORSDOF 5
ENDMDL
MODEL 8
REMARK VINA RESULT:      -7.4      2.726      3.922
REMARK  5 active torsions:
REMARK  status: ('A' for Active; 'I' for Inactive)
REMARK    1  A    between atoms: C_3  and  S_4 
REMARK    2  A    between atoms: S_4  and  C_5 
REMARK    3  A    between atoms: C_5  and  C_6 
REMARK       I    between atoms: C_6  and  N_7 
REMARK    4  A    between atoms: N_7  and  C_8 
REMARK    5  A    between atoms: C_10  and  C_11 
ROOT
HETATM    1  C   UNL     1      -9.324   0.993 -33.223  1.00  0.00     0.231 C 
HETATM    2  N   UNL     1      -8.301   0.836 -34.149  1.00  0.00    -0.327 N 
HETATM    3  O   UNL     1      -9.400   0.455 -32.123  1.00  0.00    -0.272 OA
HETATM    4  H   UNL     1      -8.478   1.206 -35.075  1.00  0.00     0.169 HD
ENDROOT
BRANCH   2   5
HETATM    5  C   UNL     1      -7.077   0.161 -33.965  1.00  0.00     0.035 A 
HETATM    6  C   UNL     1      -6.868  -1.179 -34.310  1.00  0.00     0.042 A 
HETATM    7  C   UNL     1      -5.638  -1.814 -34.066  1.00  0.00    -0.021 A 
HETATM    8  C   UNL     1      -4.612  -1.078 -33.461  1.00  0.00     0.012 A 
HETATM    9  C   UNL     1      -4.808   0.259 -33.111  1.00  0.00     0.003 A 
HETATM   10  C   UNL     1      -6.035   0.874 -33.362  1.00  0.00     0.029 A 
BRANCH   7  11
HETATM   11  C   UNL     1      -5.431  -3.212 -34.414  1.00  0.00     0.010 A 
HETATM   12  C   UNL     1      -6.255  -4.129 -35.113  1.00  0.00     0.152 A 
HETATM   13  N   UNL     1      -5.704  -5.341 -35.228  1.00  0.00    -0.187 NA
HETATM   14  N   UNL     1      -4.523  -5.208 -34.606  1.00  0.00    -0.289 N 
HETATM   15  H   UNL     1      -3.908  -6.013 -34.562  1.00  0.00     0.188 HD
HETATM   16  C   UNL     1      -4.313  -3.959 -34.099  1.00  0.00     0.123 A 
ENDBRANCH   7  11
ENDBRANCH   2   5
BRANCH   1  17
HETATM   17  C   UNL     1     -10.374   1.993 -33.672  1.00  0.00     0.182 C 
BRANCH  17  18
HETATM   18  S   UNL     1     -10.456   3.400 -32.524  1.00  0.00    -0.120 SA
BRANCH  18  19
HETATM   19  C   UNL     1      -8.732   3.886 -32.558  1.00  0.00     0.006 A 
HETATM   20  C   UNL     1      -7.851   3.748 -31.467  1.00  0.00    -0.045 A 
HETATM   21  C   UNL     1      -8.269   3.204 -30.128  1.00  0.00     0.049 C 
HETATM   22  C   UNL     1      -6.500   4.103 -31.637  1.00  0.00     0.008 A 
HETATM   23  C   UNL     1      -6.040   4.627 -32.845  1.00  0.00     0.001 A 
HETATM   24  C   UNL     1      -6.923   4.805 -33.904  1.00  0.00     0.001 A 
HETATM   25  C   UNL     1      -8.260   4.437 -33.760  1.00  0.00     0.019 A 
ENDBRANCH  18  19
ENDBRANCH  17  18
ENDBRANCH   1  17
TORSDOF 5
ENDMDL
MODEL 9
REMARK VINA RESULT:      -7.2      4.841      7.475
REMARK  5 active torsions:
REMARK  status: ('A' for Active; 'I' for Inactive)
REMARK    1  A    between atoms: C_3  and  S_4 
REMARK    2  A    between atoms: S_4  and  C_5 
REMARK    3  A    between atoms: C_5  and  C_6 
REMARK       I    between atoms: C_6  and  N_7 
REMARK    4  A    between atoms: N_7  and  C_8 
REMARK    5  A    between atoms: C_10  and  C_11 
ROOT
HETATM    1  C   UNL     1      -7.802   1.489 -31.648  1.00  0.00     0.231 C 
HETATM    2  N   UNL     1      -8.415   1.348 -32.886  1.00  0.00    -0.327 N 
HETATM    3  O   UNL     1      -8.021   2.370 -30.822  1.00  0.00    -0.272 OA
HETATM    4  H   UNL     1      -7.994   0.678 -33.517  1.00  0.00     0.169 HD
ENDROOT
BRANCH   2   5
HETATM    5  C   UNL     1      -9.512   2.080 -33.386  1.00  0.00     0.035 A 
HETATM    6  C   UNL     1     -10.836   1.631 -33.332  1.00  0.00     0.042 A 
HETATM    7  C   UNL     1     -11.886   2.385 -33.884  1.00  0.00    -0.021 A 
HETATM    8  C   UNL     1     -11.585   3.605 -34.501  1.00  0.00     0.012 A 
HETATM    9  C   UNL     1     -10.268   4.063 -34.561  1.00  0.00     0.003 A 
HETATM   10  C   UNL     1      -9.237   3.304 -34.007  1.00  0.00     0.029 A 
BRANCH   7  11
HETATM   11  C   UNL     1     -13.261   1.907 -33.838  1.00  0.00     0.010 A 
HETATM   12  C   UNL     1     -13.899   0.843 -34.522  1.00  0.00     0.152 A 
HETATM   13  N   UNL     1     -15.192   0.722 -34.208  1.00  0.00    -0.187 NA
HETATM   14  N   UNL     1     -15.390   1.707 -33.318  1.00  0.00    -0.289 N 
HETATM   15  H   UNL     1     -16.317   1.821 -32.923  1.00  0.00     0.188 HD
HETATM   16  C   UNL     1     -14.271   2.445 -33.066  1.00  0.00     0.123 A 
ENDBRANCH   7  11
ENDBRANCH   2   5
BRANCH   1  17
HETATM   17  C   UNL     1      -6.827   0.366 -31.345  1.00  0.00     0.182 C 
BRANCH  17  18
HETATM   18  S   UNL     1      -5.237   0.651 -32.181  1.00  0.00    -0.120 SA
BRANCH  18  19
HETATM   19  C   UNL     1      -5.162  -0.853 -33.152  1.00  0.00     0.006 A 
HETATM   20  C   UNL     1      -4.190  -1.858 -32.977  1.00  0.00    -0.045 A 
HETATM   21  C   UNL     1      -3.076  -1.767 -31.970  1.00  0.00     0.049 C 
HETATM   22  C   UNL     1      -4.276  -3.027 -33.756  1.00  0.00     0.008 A 
HETATM   23  C   UNL     1      -5.273  -3.179 -34.719  1.00  0.00     0.001 A 
HETATM   24  C   UNL     1      -6.202  -2.165 -34.920  1.00  0.00     0.001 A 
HETATM   25  C   UNL     1      -6.146  -1.010 -34.141  1.00  0.00     0.019 A 
ENDBRANCH  18  19
ENDBRANCH  17  18
ENDBRANCH   1  17
TORSDOF 5
ENDMDL
MODEL 10
REMARK VINA RESULT:      -7.2      3.000      3.893
REMARK  5 active torsions:
REMARK  status: ('A' for Active; 'I' for Inactive)
REMARK    1  A    between atoms: C_3  and  S_4 
REMARK    2  A    between atoms: S_4  and  C_5 
REMARK    3  A    between atoms: C_5  and  C_6 
REMARK       I    between atoms: C_6  and  N_7 
REMARK    4  A    between atoms: N_7  and  C_8 
REMARK    5  A    between atoms: C_10  and  C_11 
ROOT
HETATM    1  C   UNL     1      -2.763   3.705 -32.294  1.00  0.00     0.231 C 
HETATM    2  N   UNL     1      -3.503   2.690 -31.703  1.00  0.00    -0.327 N 
HETATM    3  O   UNL     1      -2.510   3.823 -33.489  1.00  0.00    -0.272 OA
HETATM    4  H   UNL     1      -3.466   2.643 -30.693  1.00  0.00     0.169 HD
ENDROOT
BRANCH   2   5
HETATM    5  C   UNL     1      -4.241   1.679 -32.354  1.00  0.00     0.035 A 
HETATM    6  C   UNL     1      -3.842   0.340 -32.413  1.00  0.00     0.042 A 
HETATM    7  C   UNL     1      -4.597  -0.618 -33.111  1.00  0.00    -0.021 A 
HETATM    8  C   UNL     1      -5.767  -0.207 -33.760  1.00  0.00     0.012 A 
HETATM    9  C   UNL     1      -6.176   1.126 -33.709  1.00  0.00     0.003 A 
HETATM   10  C   UNL     1      -5.415   2.065 -33.010  1.00  0.00     0.029 A 
BRANCH   7  11
HETATM   11  C   UNL     1      -4.169  -2.008 -33.180  1.00  0.00     0.010 A 
HETATM   12  C   UNL     1      -3.407  -2.793 -32.280  1.00  0.00     0.152 A 
HETATM   13  N   UNL     1      -3.220  -4.044 -32.709  1.00  0.00    -0.187 NA
HETATM   14  N   UNL     1      -3.864  -4.070 -33.886  1.00  0.00    -0.289 N 
HETATM   15  H   UNL     1      -3.866  -4.935 -34.416  1.00  0.00     0.188 HD
HETATM   16  C   UNL     1      -4.443  -2.880 -34.215  1.00  0.00     0.123 A 
ENDBRANCH   7  11
ENDBRANCH   2   5
BRANCH   1  17
HETATM   17  C   UNL     1      -2.318   4.762 -31.299  1.00  0.00     0.182 C 
BRANCH  17  18
HETATM   18  S   UNL     1      -0.929   5.729 -31.965  1.00  0.00    -0.120 SA
BRANCH  18  19
HETATM   19  C   UNL     1      -0.705   6.868 -30.601  1.00  0.00     0.006 A 
HETATM   20  C   UNL     1      -1.512   8.001 -30.377  1.00  0.00    -0.045 A 
HETATM   21  C   UNL     1      -2.642   8.406 -31.285  1.00  0.00     0.049 C 
HETATM   22  C   UNL     1      -1.281   8.783 -29.230  1.00  0.00     0.008 A 
HETATM   23  C   UNL     1      -0.244   8.479 -28.348  1.00  0.00     0.001 A 
HETATM   24  C   UNL     1       0.578   7.386 -28.597  1.00  0.00     0.001 A 
HETATM   25  C   UNL     1       0.349   6.587 -29.717  1.00  0.00     0.019 A 
ENDBRANCH  18  19
ENDBRANCH  17  18
ENDBRANCH   1  17
TORSDOF 5
ENDMDL
