MODEL 1
REMARK VINA RESULT:      -8.7      0.000      0.000
REMARK  1 active torsions:
REMARK  status: ('A' for Active; 'I' for Inactive)
REMARK    1  A    between atoms: C_5  and  N_6 
ROOT
HETATM    1  N   UNL     1      -5.792   1.719 -32.157  1.00  0.00    -0.320 N 
HETATM    2  C   UNL     1      -6.000   1.823 -30.752  1.00  0.00     0.141 C 
HETATM    3  N   UNL     1      -6.510   0.864 -30.033  1.00  0.00    -0.380 N 
HETATM    4  H   UNL     1      -6.623   0.991 -29.036  1.00  0.00     0.158 HD
HETATM    5  H   UNL     1      -6.784  -0.003 -30.477  1.00  0.00     0.158 HD
HETATM    6  S   UNL     1      -5.486   3.323 -30.098  1.00  0.00    -0.086 SA
HETATM    7  C   UNL     1      -5.227   4.030 -31.785  1.00  0.00     0.093 C 
HETATM    8  C   UNL     1      -4.946   2.809 -32.696  1.00  0.00     0.121 C 
HETATM    9  C   UNL     1      -4.072   5.004 -31.889  1.00  0.00     0.158 C 
HETATM   10  S   UNL     1      -2.647   4.039 -32.319  1.00  0.00     0.147 S 
HETATM   11  O   UNL     1      -1.786   3.928 -31.163  1.00  0.00    -0.228 OA
HETATM   12  O   UNL     1      -2.168   4.493 -33.606  1.00  0.00    -0.228 OA
HETATM   13  C   UNL     1      -3.459   2.481 -32.561  1.00  0.00     0.167 C 
ENDROOT
BRANCH   1  14
HETATM   14  C   UNL     1      -6.320   0.760 -33.050  1.00  0.00     0.048 A 
HETATM   15  C   UNL     1      -5.656  -0.484 -33.305  1.00  0.00     0.001 A 
HETATM   16  C   UNL     1      -6.156  -1.339 -34.323  1.00  0.00    -0.024 A 
HETATM   17  C   UNL     1      -4.530  -0.952 -32.580  1.00  0.00     0.014 A 
HETATM   18  C   UNL     1      -5.499  -2.541 -34.630  1.00  0.00     0.012 A 
HETATM   19  C   UNL     1      -7.318  -0.993 -35.020  1.00  0.00     0.012 A 
HETATM   20  C   UNL     1      -4.365  -2.941 -33.929  1.00  0.00     0.001 A 
HETATM   21  C   UNL     1      -3.888  -2.153 -32.893  1.00  0.00     0.001 A 
HETATM   22  C   UNL     1      -7.997   0.183 -34.729  1.00  0.00     0.003 A 
HETATM   23  C   UNL     1      -7.499   1.049 -33.758  1.00  0.00     0.030 A 
ENDBRANCH   1  14
TORSDOF 1
ENDMDL
MODEL 2
REMARK VINA RESULT:      -8.3      1.758      2.851
REMARK  1 active torsions:
REMARK  status: ('A' for Active; 'I' for Inactive)
REMARK    1  A    between atoms: C_5  and  N_6 
ROOT
HETATM    1  N   UNL     1      -5.622   1.753 -32.132  1.00  0.00    -0.320 N 
HETATM    2  C   UNL     1      -6.658   1.984 -31.182  1.00  0.00     0.141 C 
HETATM    3  N   UNL     1      -6.843   1.238 -30.130  1.00  0.00    -0.380 N 
HETATM    4  H   UNL     1      -7.589   1.459 -29.485  1.00  0.00     0.158 HD
HETATM    5  H   UNL     1      -6.234   0.448 -29.965  1.00  0.00     0.158 HD
HETATM    6  S   UNL     1      -7.619   3.357 -31.548  1.00  0.00    -0.086 SA
HETATM    7  C   UNL     1      -6.837   3.528 -33.212  1.00  0.00     0.093 C 
HETATM    8  C   UNL     1      -5.436   2.885 -33.069  1.00  0.00     0.121 C 
HETATM    9  C   UNL     1      -6.683   4.956 -33.692  1.00  0.00     0.158 C 
HETATM   10  S   UNL     1      -5.086   5.495 -33.134  1.00  0.00     0.147 S 
HETATM   11  O   UNL     1      -5.258   6.420 -32.036  1.00  0.00    -0.228 OA
HETATM   12  O   UNL     1      -4.285   5.809 -34.298  1.00  0.00    -0.228 OA
HETATM   13  C   UNL     1      -4.511   3.951 -32.480  1.00  0.00     0.167 C 
ENDROOT
BRANCH   1  14
HETATM   14  C   UNL     1      -4.826   0.597 -32.292  1.00  0.00     0.048 A 
HETATM   15  C   UNL     1      -5.199  -0.463 -33.181  1.00  0.00     0.001 A 
HETATM   16  C   UNL     1      -4.437  -1.662 -33.186  1.00  0.00    -0.024 A 
HETATM   17  C   UNL     1      -6.276  -0.393 -34.100  1.00  0.00     0.014 A 
HETATM   18  C   UNL     1      -4.806  -2.738 -34.009  1.00  0.00     0.012 A 
HETATM   19  C   UNL     1      -3.302  -1.775 -32.377  1.00  0.00     0.012 A 
HETATM   20  C   UNL     1      -5.903  -2.648 -34.861  1.00  0.00     0.001 A 
HETATM   21  C   UNL     1      -6.631  -1.470 -34.918  1.00  0.00     0.001 A 
HETATM   22  C   UNL     1      -2.905  -0.722 -31.562  1.00  0.00     0.003 A 
HETATM   23  C   UNL     1      -3.661   0.446 -31.519  1.00  0.00     0.030 A 
ENDBRANCH   1  14
TORSDOF 1
ENDMDL
MODEL 3
REMARK VINA RESULT:      -8.2      1.197      2.551
REMARK  1 active torsions:
REMARK  status: ('A' for Active; 'I' for Inactive)
REMARK    1  A    between atoms: C_5  and  N_6 
ROOT
HETATM    1  N   UNL     1      -4.892   1.699 -31.426  1.00  0.00    -0.320 N 
HETATM    2  C   UNL     1      -5.709   1.970 -30.290  1.00  0.00     0.141 C 
HETATM    3  N   UNL     1      -5.991   1.078 -29.384  1.00  0.00    -0.380 N 
HETATM    4  H   UNL     1      -6.568   1.332 -28.594  1.00  0.00     0.158 HD
HETATM    5  H   UNL     1      -5.625   0.139 -29.477  1.00  0.00     0.158 HD
HETATM    6  S   UNL     1      -6.260   3.593 -30.222  1.00  0.00    -0.086 SA
HETATM    7  C   UNL     1      -5.643   3.930 -31.930  1.00  0.00     0.093 C 
HETATM    8  C   UNL     1      -4.484   2.927 -32.147  1.00  0.00     0.121 C 
HETATM    9  C   UNL     1      -5.130   5.338 -32.148  1.00  0.00     0.158 C 
HETATM   10  S   UNL     1      -3.396   5.297 -31.772  1.00  0.00     0.147 S 
HETATM   11  O   UNL     1      -3.173   5.956 -30.504  1.00  0.00    -0.228 OA
HETATM   12  O   UNL     1      -2.667   5.648 -32.971  1.00  0.00    -0.228 OA
HETATM   13  C   UNL     1      -3.231   3.548 -31.528  1.00  0.00     0.167 C 
ENDROOT
BRANCH   1  14
HETATM   14  C   UNL     1      -4.490   0.444 -31.933  1.00  0.00     0.048 A 
HETATM   15  C   UNL     1      -5.250  -0.249 -32.932  1.00  0.00     0.001 A 
HETATM   16  C   UNL     1      -4.875  -1.571 -33.291  1.00  0.00    -0.024 A 
HETATM   17  C   UNL     1      -6.352   0.309 -33.627  1.00  0.00     0.014 A 
HETATM   18  C   UNL     1      -5.629  -2.295 -34.230  1.00  0.00     0.012 A 
HETATM   19  C   UNL     1      -3.743  -2.159 -32.720  1.00  0.00     0.012 A 
HETATM   20  C   UNL     1      -6.737  -1.728 -34.853  1.00  0.00     0.001 A 
HETATM   21  C   UNL     1      -7.092  -0.420 -34.562  1.00  0.00     0.001 A 
HETATM   22  C   UNL     1      -2.970  -1.463 -31.800  1.00  0.00     0.003 A 
HETATM   23  C   UNL     1      -3.343  -0.179 -31.409  1.00  0.00     0.030 A 
ENDBRANCH   1  14
TORSDOF 1
ENDMDL
MODEL 4
REMARK VINA RESULT:      -8.2      1.993      2.403
REMARK  1 active torsions:
REMARK  status: ('A' for Active; 'I' for Inactive)
REMARK    1  A    between atoms: C_5  and  N_6 
ROOT
HETATM    1  N   UNL     1      -6.958   1.598 -32.849  1.00  0.00    -0.320 N 
HETATM    2  C   UNL     1      -7.729   1.967 -31.710  1.00  0.00     0.141 C 
HETATM    3  N   UNL     1      -7.981   1.155 -30.724  1.00  0.00    -0.380 N 
HETATM    4  H   UNL     1      -8.526   1.478 -29.936  1.00  0.00     0.158 HD
HETATM    5  H   UNL     1      -7.626   0.209 -30.752  1.00  0.00     0.158 HD
HETATM    6  S   UNL     1      -8.267   3.596 -31.754  1.00  0.00    -0.086 SA
HETATM    7  C   UNL     1      -7.714   3.787 -33.506  1.00  0.00     0.093 C 
HETATM    8  C   UNL     1      -6.570   2.759 -33.683  1.00  0.00     0.121 C 
HETATM    9  C   UNL     1      -7.201   5.168 -33.857  1.00  0.00     0.158 C 
HETATM   10  S   UNL     1      -5.454   5.141 -33.544  1.00  0.00     0.147 S 
HETATM   11  O   UNL     1      -5.179   5.899 -32.344  1.00  0.00    -0.228 OA
HETATM   12  O   UNL     1      -4.769   5.386 -34.794  1.00  0.00    -0.228 OA
HETATM   13  C   UNL     1      -5.291   3.417 -33.165  1.00  0.00     0.167 C 
ENDROOT
BRANCH   1  14
HETATM   14  C   UNL     1      -6.583   0.302 -33.267  1.00  0.00     0.048 A 
HETATM   15  C   UNL     1      -5.401  -0.341 -32.774  1.00  0.00     0.001 A 
HETATM   16  C   UNL     1      -4.998  -1.579 -33.344  1.00  0.00    -0.024 A 
HETATM   17  C   UNL     1      -4.602   0.159 -31.715  1.00  0.00     0.014 A 
HETATM   18  C   UNL     1      -3.818  -2.209 -32.917  1.00  0.00     0.012 A 
HETATM   19  C   UNL     1      -5.784  -2.186 -34.328  1.00  0.00     0.012 A 
HETATM   20  C   UNL     1      -3.032  -1.659 -31.909  1.00  0.00     0.001 A 
HETATM   21  C   UNL     1      -3.431  -0.480 -31.296  1.00  0.00     0.001 A 
HETATM   22  C   UNL     1      -6.963  -1.593 -34.760  1.00  0.00     0.003 A 
HETATM   23  C   UNL     1      -7.353  -0.362 -34.237  1.00  0.00     0.030 A 
ENDBRANCH   1  14
TORSDOF 1
ENDMDL
MODEL 5
REMARK VINA RESULT:      -7.7      4.760      6.081
REMARK  1 active torsions:
REMARK  status: ('A' for Active; 'I' for Inactive)
REMARK    1  A    between atoms: C_5  and  N_6 
ROOT
HETATM    1  N   UNL     1      -8.858   2.271 -32.948  1.00  0.00    -0.320 N 
HETATM    2  C   UNL     1      -8.755   3.530 -33.606  1.00  0.00     0.141 C 
HETATM    3  N   UNL     1      -7.626   4.026 -34.024  1.00  0.00    -0.380 N 
HETATM    4  H   UNL     1      -7.616   4.921 -34.495  1.00  0.00     0.158 HD
HETATM    5  H   UNL     1      -6.768   3.510 -33.879  1.00  0.00     0.158 HD
HETATM    6  S   UNL     1     -10.267   4.313 -33.816  1.00  0.00    -0.086 SA
HETATM    7  C   UNL     1     -11.115   3.083 -32.730  1.00  0.00     0.093 C 
HETATM    8  C   UNL     1     -10.257   1.797 -32.829  1.00  0.00     0.121 C 
HETATM    9  C   UNL     1     -12.539   2.763 -33.134  1.00  0.00     0.158 C 
HETATM   10  S   UNL     1     -12.440   1.380 -34.243  1.00  0.00     0.147 S 
HETATM   11  O   UNL     1     -12.700   1.838 -35.590  1.00  0.00    -0.228 OA
HETATM   12  O   UNL     1     -13.154   0.273 -33.646  1.00  0.00    -0.228 OA
HETATM   13  C   UNL     1     -10.704   1.054 -34.089  1.00  0.00     0.167 C 
ENDROOT
BRANCH   1  14
HETATM   14  C   UNL     1      -7.824   1.490 -32.387  1.00  0.00     0.048 A 
HETATM   15  C   UNL     1      -7.183   0.440 -33.122  1.00  0.00     0.001 A 
HETATM   16  C   UNL     1      -6.256  -0.405 -32.454  1.00  0.00    -0.024 A 
HETATM   17  C   UNL     1      -7.383   0.195 -34.504  1.00  0.00     0.014 A 
HETATM   18  C   UNL     1      -5.649  -1.473 -33.134  1.00  0.00     0.012 A 
HETATM   19  C   UNL     1      -5.932  -0.170 -31.115  1.00  0.00     0.012 A 
HETATM   20  C   UNL     1      -5.912  -1.713 -34.480  1.00  0.00     0.001 A 
HETATM   21  C   UNL     1      -6.769  -0.870 -35.170  1.00  0.00     0.001 A 
HETATM   22  C   UNL     1      -6.506   0.887 -30.421  1.00  0.00     0.003 A 
HETATM   23  C   UNL     1      -7.443   1.703 -31.050  1.00  0.00     0.030 A 
ENDBRANCH   1  14
TORSDOF 1
ENDMDL
MODEL 6
REMARK VINA RESULT:      -7.5      2.984      3.902
REMARK  1 active torsions:
REMARK  status: ('A' for Active; 'I' for Inactive)
REMARK    1  A    between atoms: C_5  and  N_6 
ROOT
HETATM    1  N   UNL     1      -6.824   2.001 -31.934  1.00  0.00    -0.320 N 
HETATM    2  C   UNL     1      -7.340   2.099 -30.610  1.00  0.00     0.141 C 
HETATM    3  N   UNL     1      -6.688   1.696 -29.558  1.00  0.00    -0.380 N 
HETATM    4  H   UNL     1      -7.101   1.801 -28.641  1.00  0.00     0.158 HD
HETATM    5  H   UNL     1      -5.769   1.285 -29.666  1.00  0.00     0.158 HD
HETATM    6  S   UNL     1      -8.893   2.824 -30.539  1.00  0.00    -0.086 SA
HETATM    7  C   UNL     1      -9.064   2.765 -32.376  1.00  0.00     0.093 C 
HETATM    8  C   UNL     1      -7.614   2.778 -32.918  1.00  0.00     0.121 C 
HETATM    9  C   UNL     1      -9.829   3.927 -32.976  1.00  0.00     0.158 C 
HETATM   10  S   UNL     1      -8.622   5.172 -33.353  1.00  0.00     0.147 S 
HETATM   11  O   UNL     1      -8.740   6.248 -32.394  1.00  0.00    -0.228 OA
HETATM   12  O   UNL     1      -8.638   5.397 -34.782  1.00  0.00    -0.228 OA
HETATM   13  C   UNL     1      -7.165   4.239 -32.966  1.00  0.00     0.167 C 
ENDROOT
BRANCH   1  14
HETATM   14  C   UNL     1      -5.722   1.244 -32.389  1.00  0.00     0.048 A 
HETATM   15  C   UNL     1      -5.891   0.006 -33.091  1.00  0.00     0.001 A 
HETATM   16  C   UNL     1      -4.747  -0.781 -33.389  1.00  0.00    -0.024 A 
HETATM   17  C   UNL     1      -7.138  -0.489 -33.549  1.00  0.00     0.014 A 
HETATM   18  C   UNL     1      -4.883  -2.023 -34.031  1.00  0.00     0.012 A 
HETATM   19  C   UNL     1      -3.470  -0.319 -33.054  1.00  0.00     0.012 A 
HETATM   20  C   UNL     1      -6.133  -2.498 -34.419  1.00  0.00     0.001 A 
HETATM   21  C   UNL     1      -7.260  -1.724 -34.191  1.00  0.00     0.001 A 
HETATM   22  C   UNL     1      -3.303   0.911 -32.431  1.00  0.00     0.003 A 
HETATM   23  C   UNL     1      -4.417   1.679 -32.099  1.00  0.00     0.030 A 
ENDBRANCH   1  14
TORSDOF 1
ENDMDL
MODEL 7
REMARK VINA RESULT:      -7.5      3.801      4.933
REMARK  1 active torsions:
REMARK  status: ('A' for Active; 'I' for Inactive)
REMARK    1  A    between atoms: C_5  and  N_6 
ROOT
HETATM    1  N   UNL     1      -9.078   1.076 -33.631  1.00  0.00    -0.320 N 
HETATM    2  C   UNL     1     -10.396   0.690 -33.254  1.00  0.00     0.141 C 
HETATM    3  N   UNL     1     -10.666  -0.431 -32.648  1.00  0.00    -0.380 N 
HETATM    4  H   UNL     1     -11.621  -0.646 -32.395  1.00  0.00     0.158 HD
HETATM    5  H   UNL     1      -9.917  -1.075 -32.431  1.00  0.00     0.158 HD
HETATM    6  S   UNL     1     -11.587   1.859 -33.652  1.00  0.00    -0.086 SA
HETATM    7  C   UNL     1     -10.373   2.833 -34.646  1.00  0.00     0.093 C 
HETATM    8  C   UNL     1      -8.989   2.498 -34.038  1.00  0.00     0.121 C 
HETATM    9  C   UNL     1     -10.584   4.333 -34.605  1.00  0.00     0.158 C 
HETATM   10  S   UNL     1      -9.611   4.932 -33.246  1.00  0.00     0.147 S 
HETATM   11  O   UNL     1     -10.493   5.289 -32.157  1.00  0.00    -0.228 OA
HETATM   12  O   UNL     1      -8.615   5.840 -33.771  1.00  0.00    -0.228 OA
HETATM   13  C   UNL     1      -8.796   3.414 -32.829  1.00  0.00     0.167 C 
ENDROOT
BRANCH   1  14
HETATM   14  C   UNL     1      -7.918   0.273 -33.696  1.00  0.00     0.048 A 
HETATM   15  C   UNL     1      -6.992   0.189 -32.605  1.00  0.00     0.001 A 
HETATM   16  C   UNL     1      -5.771  -0.514 -32.788  1.00  0.00    -0.024 A 
HETATM   17  C   UNL     1      -7.222   0.738 -31.319  1.00  0.00     0.014 A 
HETATM   18  C   UNL     1      -4.822  -0.573 -31.755  1.00  0.00     0.012 A 
HETATM   19  C   UNL     1      -5.510  -1.165 -33.998  1.00  0.00     0.012 A 
HETATM   20  C   UNL     1      -5.063   0.024 -30.521  1.00  0.00     0.001 A 
HETATM   21  C   UNL     1      -6.270   0.669 -30.297  1.00  0.00     0.001 A 
HETATM   22  C   UNL     1      -6.436  -1.135 -35.033  1.00  0.00     0.003 A 
HETATM   23  C   UNL     1      -7.623  -0.421 -34.883  1.00  0.00     0.030 A 
ENDBRANCH   1  14
TORSDOF 1
ENDMDL
MODEL 8
REMARK VINA RESULT:      -7.3      1.465      3.239
REMARK  1 active torsions:
REMARK  status: ('A' for Active; 'I' for Inactive)
REMARK    1  A    between atoms: C_5  and  N_6 
ROOT
HETATM    1  N   UNL     1      -5.857   2.333 -31.669  1.00  0.00    -0.320 N 
HETATM    2  C   UNL     1      -5.944   2.669 -30.288  1.00  0.00     0.141 C 
HETATM    3  N   UNL     1      -6.497   1.895 -29.398  1.00  0.00    -0.380 N 
HETATM    4  H   UNL     1      -6.520   2.182 -28.429  1.00  0.00     0.158 HD
HETATM    5  H   UNL     1      -6.895   1.010 -29.684  1.00  0.00     0.158 HD
HETATM    6  S   UNL     1      -5.224   4.180 -29.909  1.00  0.00    -0.086 SA
HETATM    7  C   UNL     1      -5.021   4.591 -31.698  1.00  0.00     0.093 C 
HETATM    8  C   UNL     1      -4.943   3.224 -32.422  1.00  0.00     0.121 C 
HETATM    9  C   UNL     1      -3.781   5.397 -32.022  1.00  0.00     0.158 C 
HETATM   10  S   UNL     1      -2.503   4.218 -32.379  1.00  0.00     0.147 S 
HETATM   11  O   UNL     1      -1.573   4.181 -31.273  1.00  0.00    -0.228 OA
HETATM   12  O   UNL     1      -2.078   4.415 -33.748  1.00  0.00    -0.228 OA
HETATM   13  C   UNL     1      -3.493   2.748 -32.325  1.00  0.00     0.167 C 
ENDROOT
BRANCH   1  14
HETATM   14  C   UNL     1      -6.550   1.320 -32.368  1.00  0.00     0.048 A 
HETATM   15  C   UNL     1      -7.937   1.447 -32.708  1.00  0.00     0.001 A 
HETATM   16  C   UNL     1      -8.613   0.335 -33.276  1.00  0.00    -0.024 A 
HETATM   17  C   UNL     1      -8.694   2.635 -32.547  1.00  0.00     0.014 A 
HETATM   18  C   UNL     1      -9.984   0.411 -33.574  1.00  0.00     0.012 A 
HETATM   19  C   UNL     1      -7.915  -0.844 -33.554  1.00  0.00     0.012 A 
HETATM   20  C   UNL     1     -10.704   1.581 -33.352  1.00  0.00     0.001 A 
HETATM   21  C   UNL     1     -10.056   2.699 -32.851  1.00  0.00     0.001 A 
HETATM   22  C   UNL     1      -6.556  -0.944 -33.283  1.00  0.00     0.003 A 
HETATM   23  C   UNL     1      -5.886   0.125 -32.693  1.00  0.00     0.030 A 
ENDBRANCH   1  14
TORSDOF 1
ENDMDL
MODEL 9
REMARK VINA RESULT:      -7.3      3.258      4.250
REMARK  1 active torsions:
REMARK  status: ('A' for Active; 'I' for Inactive)
REMARK    1  A    between atoms: C_5  and  N_6 
ROOT
HETATM    1  N   UNL     1      -4.062   4.250 -32.808  1.00  0.00    -0.320 N 
HETATM    2  C   UNL     1      -4.706   4.633 -34.020  1.00  0.00     0.141 C 
HETATM    3  N   UNL     1      -5.986   4.497 -34.222  1.00  0.00    -0.380 N 
HETATM    4  H   UNL     1      -6.389   4.797 -35.099  1.00  0.00     0.158 HD
HETATM    5  H   UNL     1      -6.566   4.097 -33.496  1.00  0.00     0.158 HD
HETATM    6  S   UNL     1      -3.635   5.315 -35.173  1.00  0.00    -0.086 SA
HETATM    7  C   UNL     1      -2.162   4.835 -34.167  1.00  0.00     0.093 C 
HETATM    8  C   UNL     1      -2.675   4.762 -32.707  1.00  0.00     0.121 C 
HETATM    9  C   UNL     1      -1.005   5.810 -34.239  1.00  0.00     0.158 C 
HETATM   10  S   UNL     1      -1.251   6.968 -32.916  1.00  0.00     0.147 S 
HETATM   11  O   UNL     1      -1.687   8.231 -33.471  1.00  0.00    -0.228 OA
HETATM   12  O   UNL     1      -0.128   6.861 -32.011  1.00  0.00    -0.228 OA
HETATM   13  C   UNL     1      -2.644   6.185 -32.149  1.00  0.00     0.167 C 
ENDROOT
BRANCH   1  14
HETATM   14  C   UNL     1      -4.566   3.438 -31.769  1.00  0.00     0.048 A 
HETATM   15  C   UNL     1      -4.375   2.018 -31.755  1.00  0.00     0.001 A 
HETATM   16  C   UNL     1      -5.033   1.241 -30.764  1.00  0.00    -0.024 A 
HETATM   17  C   UNL     1      -3.534   1.317 -32.656  1.00  0.00     0.014 A 
HETATM   18  C   UNL     1      -4.906  -0.157 -30.755  1.00  0.00     0.012 A 
HETATM   19  C   UNL     1      -5.806   1.867 -29.781  1.00  0.00     0.012 A 
HETATM   20  C   UNL     1      -4.111  -0.814 -31.690  1.00  0.00     0.001 A 
HETATM   21  C   UNL     1      -3.413  -0.075 -32.633  1.00  0.00     0.001 A 
HETATM   22  C   UNL     1      -5.939   3.250 -29.757  1.00  0.00     0.003 A 
HETATM   23  C   UNL     1      -5.329   4.023 -30.742  1.00  0.00     0.030 A 
ENDBRANCH   1  14
TORSDOF 1
ENDMDL
MODEL 10
REMARK VINA RESULT:      -7.2      2.727      4.000
REMARK  1 active torsions:
REMARK  status: ('A' for Active; 'I' for Inactive)
REMARK    1  A    between atoms: C_5  and  N_6 
ROOT
HETATM    1  N   UNL     1      -4.789   2.280 -31.746  1.00  0.00    -0.320 N 
HETATM    2  C   UNL     1      -4.063   3.465 -32.060  1.00  0.00     0.141 C 
HETATM    3  N   UNL     1      -3.136   3.515 -32.973  1.00  0.00    -0.380 N 
HETATM    4  H   UNL     1      -2.662   4.388 -33.158  1.00  0.00     0.158 HD
HETATM    5  H   UNL     1      -2.901   2.679 -33.492  1.00  0.00     0.158 HD
HETATM    6  S   UNL     1      -4.552   4.825 -31.135  1.00  0.00    -0.086 SA
HETATM    7  C   UNL     1      -5.591   3.768 -30.032  1.00  0.00     0.093 C 
HETATM    8  C   UNL     1      -5.971   2.538 -30.892  1.00  0.00     0.121 C 
HETATM    9  C   UNL     1      -6.855   4.434 -29.530  1.00  0.00     0.158 C 
HETATM   10  S   UNL     1      -8.120   4.051 -30.715  1.00  0.00     0.147 S 
HETATM   11  O   UNL     1      -8.412   5.235 -31.493  1.00  0.00    -0.228 OA
HETATM   12  O   UNL     1      -9.149   3.288 -30.044  1.00  0.00    -0.228 OA
HETATM   13  C   UNL     1      -7.189   2.933 -31.728  1.00  0.00     0.167 C 
ENDROOT
BRANCH   1  14
HETATM   14  C   UNL     1      -4.487   0.949 -32.110  1.00  0.00     0.048 A 
HETATM   15  C   UNL     1      -5.222   0.256 -33.126  1.00  0.00     0.001 A 
HETATM   16  C   UNL     1      -4.970  -1.126 -33.341  1.00  0.00    -0.024 A 
HETATM   17  C   UNL     1      -6.181   0.865 -33.975  1.00  0.00     0.014 A 
HETATM   18  C   UNL     1      -5.708  -1.845 -34.295  1.00  0.00     0.012 A 
HETATM   19  C   UNL     1      -3.973  -1.779 -32.610  1.00  0.00     0.012 A 
HETATM   20  C   UNL     1      -6.678  -1.221 -35.073  1.00  0.00     0.001 A 
HETATM   21  C   UNL     1      -6.906   0.138 -34.924  1.00  0.00     0.001 A 
HETATM   22  C   UNL     1      -3.217  -1.090 -31.670  1.00  0.00     0.003 A 
HETATM   23  C   UNL     1      -3.476   0.256 -31.422  1.00  0.00     0.030 A 
ENDBRANCH   1  14
TORSDOF 1
ENDMDL
