MODEL 1
REMARK VINA RESULT:      -8.6      0.000      0.000
REMARK  9 active torsions:
REMARK  status: ('A' for Active; 'I' for Inactive)
REMARK    1  A    between atoms: C_4  and  C_5 
REMARK    2  A    between atoms: C_11  and  C_12 
REMARK    3  A    between atoms: C_15  and  C_16 
REMARK    4  A    between atoms: C_16  and  N_17 
REMARK    5  A    between atoms: N_17  and  C_18 
REMARK    6  A    between atoms: C_18  and  N_19 
REMARK    7  A    between atoms: N_19  and  C_20 
REMARK    8  A    between atoms: C_22  and  C_23 
REMARK    9  A    between atoms: C_23  and  O_24 
ROOT
HETATM    1  C   UNL     1      -6.773   2.396 -30.980  1.00  0.00     0.067 C 
HETATM    2  C   UNL     1      -6.900   3.751 -31.731  1.00  0.00     0.001 C 
HETATM    3  C   UNL     1      -5.632   4.046 -32.562  1.00  0.00     0.040 C 
HETATM    4  C   UNL     1      -4.408   4.202 -31.645  1.00  0.00     0.206 C 
HETATM    5  N   UNL     1      -4.832   3.783 -30.233  1.00  0.00    -0.065 N 
HETATM    6  H   UNL     1      -3.994   3.775 -29.633  1.00  0.00     0.280 HD
HETATM    7  C   UNL     1      -5.453   2.397 -30.177  1.00  0.00     0.246 C 
HETATM    8  C   UNL     1      -7.013   4.859 -30.658  1.00  0.00     0.033 C 
HETATM    9  C   UNL     1      -5.821   4.801 -29.693  1.00  0.00     0.236 C 
ENDROOT
BRANCH   4  10
HETATM   10  C   UNL     1      -3.123   3.490 -32.117  1.00  0.00     0.155 C 
BRANCH  10  11
HETATM   11  N   UNL     1      -1.917   4.313 -32.091  1.00  0.00    -0.365 N 
HETATM   12  H   UNL     1      -1.125   3.947 -31.575  1.00  0.00     0.161 HD
BRANCH  11  13
HETATM   13  C   UNL     1      -1.553   5.210 -33.059  1.00  0.00     0.172 C 
HETATM   14  S   UNL     1      -2.110   5.161 -34.631  1.00  0.00    -0.041 SA
BRANCH  13  15
HETATM   15  N   UNL     1      -0.787   6.269 -32.650  1.00  0.00    -0.333 N 
HETATM   16  H   UNL     1       0.032   6.438 -33.229  1.00  0.00     0.168 HD
BRANCH  15  17
HETATM   17  C   UNL     1      -0.894   7.073 -31.491  1.00  0.00     0.035 A 
HETATM   18  C   UNL     1       0.044   7.049 -30.459  1.00  0.00     0.047 A 
HETATM   19  C   UNL     1      -0.135   7.816 -29.300  1.00  0.00     0.041 A 
HETATM   20  C   UNL     1      -1.229   8.674 -29.200  1.00  0.00     0.018 A 
HETATM   21  C   UNL     1      -2.136   8.757 -30.261  1.00  0.00     0.003 A 
HETATM   22  C   UNL     1      -1.966   7.963 -31.402  1.00  0.00     0.029 A 
BRANCH  19  23
HETATM   23  C   UNL     1       0.857   7.631 -28.211  1.00  0.00     0.293 C 
HETATM   24  O   UNL     1       1.637   8.514 -27.881  1.00  0.00    -0.259 OA
BRANCH  23  25
HETATM   25  O   UNL     1       0.744   6.403 -27.659  1.00  0.00    -0.323 OA
HETATM   26  C   UNL     1      -0.247   6.315 -26.633  1.00  0.00     0.213 C 
ENDBRANCH  23  25
ENDBRANCH  19  23
ENDBRANCH  15  17
ENDBRANCH  13  15
ENDBRANCH  11  13
ENDBRANCH  10  11
ENDBRANCH   4  10
BRANCH   1  27
HETATM   27  C   UNL     1      -6.930   1.174 -31.846  1.00  0.00     0.038 A 
HETATM   28  N   UNL     1      -8.113   0.833 -32.474  1.00  0.00    -0.277 N 
HETATM   29  C   UNL     1      -9.377   1.537 -32.460  1.00  0.00     0.179 C 
HETATM   30  N   UNL     1      -8.036  -0.298 -33.186  1.00  0.00    -0.170 NA
HETATM   31  C   UNL     1      -6.750  -0.649 -33.123  1.00  0.00     0.112 A 
HETATM   32  C   UNL     1      -6.024   0.223 -32.285  1.00  0.00     0.063 A 
BRANCH  31  33
HETATM   33  C   UNL     1      -6.183  -1.800 -33.880  1.00  0.00     0.105 A 
HETATM   34  O   UNL     1      -4.849  -1.987 -34.127  1.00  0.00    -0.320 OA
HETATM   35  C   UNL     1      -4.735  -3.114 -34.878  1.00  0.00     0.142 A 
HETATM   36  C   UNL     1      -5.971  -3.665 -35.114  1.00  0.00     0.027 A 
HETATM   37  C   UNL     1      -6.905  -2.823 -34.465  1.00  0.00     0.041 A 
ENDBRANCH  31  33
ENDBRANCH   1  27
TORSDOF 9
ENDMDL
MODEL 2
REMARK VINA RESULT:      -8.4      2.251      9.105
REMARK  9 active torsions:
REMARK  status: ('A' for Active; 'I' for Inactive)
REMARK    1  A    between atoms: C_4  and  C_5 
REMARK    2  A    between atoms: C_11  and  C_12 
REMARK    3  A    between atoms: C_15  and  C_16 
REMARK    4  A    between atoms: C_16  and  N_17 
REMARK    5  A    between atoms: N_17  and  C_18 
REMARK    6  A    between atoms: C_18  and  N_19 
REMARK    7  A    between atoms: N_19  and  C_20 
REMARK    8  A    between atoms: C_22  and  C_23 
REMARK    9  A    between atoms: C_23  and  O_24 
ROOT
HETATM    1  C   UNL     1      -3.364   4.819 -33.012  1.00  0.00     0.067 C 
HETATM    2  C   UNL     1      -4.755   5.504 -33.130  1.00  0.00     0.001 C 
HETATM    3  C   UNL     1      -5.588   5.293 -31.846  1.00  0.00     0.040 C 
HETATM    4  C   UNL     1      -5.885   3.800 -31.632  1.00  0.00     0.206 C 
HETATM    5  N   UNL     1      -5.055   3.012 -32.651  1.00  0.00    -0.065 N 
HETATM    6  H   UNL     1      -5.158   2.008 -32.446  1.00  0.00     0.280 HD
HETATM    7  C   UNL     1      -3.572   3.343 -32.604  1.00  0.00     0.246 C 
HETATM    8  C   UNL     1      -5.511   4.807 -34.285  1.00  0.00     0.033 C 
HETATM    9  C   UNL     1      -5.590   3.294 -34.045  1.00  0.00     0.236 C 
ENDROOT
BRANCH   4  10
HETATM   10  C   UNL     1      -5.706   3.281 -30.190  1.00  0.00     0.155 C 
BRANCH  10  11
HETATM   11  N   UNL     1      -6.869   2.599 -29.632  1.00  0.00    -0.365 N 
HETATM   12  H   UNL     1      -7.069   2.763 -28.652  1.00  0.00     0.161 HD
BRANCH  11  13
HETATM   13  C   UNL     1      -7.975   2.212 -30.341  1.00  0.00     0.172 C 
HETATM   14  S   UNL     1      -9.227   3.238 -30.745  1.00  0.00    -0.041 SA
BRANCH  13  15
HETATM   15  N   UNL     1      -7.961   0.938 -30.843  1.00  0.00    -0.333 N 
HETATM   16  H   UNL     1      -8.287   0.231 -30.189  1.00  0.00     0.168 HD
BRANCH  15  17
HETATM   17  C   UNL     1      -7.456   0.450 -32.071  1.00  0.00     0.035 A 
HETATM   18  C   UNL     1      -6.248  -0.240 -32.176  1.00  0.00     0.047 A 
HETATM   19  C   UNL     1      -5.753  -0.650 -33.420  1.00  0.00     0.041 A 
HETATM   20  C   UNL     1      -6.509  -0.430 -34.571  1.00  0.00     0.018 A 
HETATM   21  C   UNL     1      -7.754   0.198 -34.466  1.00  0.00     0.003 A 
HETATM   22  C   UNL     1      -8.225   0.632 -33.221  1.00  0.00     0.029 A 
BRANCH  19  23
HETATM   23  C   UNL     1      -4.406  -1.272 -33.438  1.00  0.00     0.293 C 
HETATM   24  O   UNL     1      -4.210  -2.394 -33.884  1.00  0.00    -0.259 OA
BRANCH  23  25
HETATM   25  O   UNL     1      -3.479  -0.430 -32.931  1.00  0.00    -0.323 OA
HETATM   26  C   UNL     1      -2.613  -1.030 -31.965  1.00  0.00     0.213 C 
ENDBRANCH  23  25
ENDBRANCH  19  23
ENDBRANCH  15  17
ENDBRANCH  13  15
ENDBRANCH  11  13
ENDBRANCH  10  11
ENDBRANCH   4  10
BRANCH   1  27
HETATM   27  C   UNL     1      -2.377   5.536 -32.129  1.00  0.00     0.038 A 
HETATM   28  N   UNL     1      -1.538   6.537 -32.583  1.00  0.00    -0.277 N 
HETATM   29  C   UNL     1      -1.439   7.098 -33.913  1.00  0.00     0.179 C 
HETATM   30  N   UNL     1      -0.732   7.031 -31.636  1.00  0.00    -0.170 NA
HETATM   31  C   UNL     1      -1.126   6.431 -30.511  1.00  0.00     0.112 A 
HETATM   32  C   UNL     1      -2.133   5.477 -30.768  1.00  0.00     0.063 A 
BRANCH  31  33
HETATM   33  C   UNL     1      -0.574   6.772 -29.170  1.00  0.00     0.105 A 
HETATM   34  O   UNL     1      -1.292   6.750 -28.004  1.00  0.00    -0.320 OA
HETATM   35  C   UNL     1      -0.460   7.163 -27.013  1.00  0.00     0.142 A 
HETATM   36  C   UNL     1       0.787   7.445 -27.514  1.00  0.00     0.027 A 
HETATM   37  C   UNL     1       0.718   7.187 -28.904  1.00  0.00     0.041 A 
ENDBRANCH  31  33
ENDBRANCH   1  27
TORSDOF 9
ENDMDL
MODEL 3
REMARK VINA RESULT:      -8.4      1.517      1.822
REMARK  9 active torsions:
REMARK  status: ('A' for Active; 'I' for Inactive)
REMARK    1  A    between atoms: C_4  and  C_5 
REMARK    2  A    between atoms: C_11  and  C_12 
REMARK    3  A    between atoms: C_15  and  C_16 
REMARK    4  A    between atoms: C_16  and  N_17 
REMARK    5  A    between atoms: N_17  and  C_18 
REMARK    6  A    between atoms: C_18  and  N_19 
REMARK    7  A    between atoms: N_19  and  C_20 
REMARK    8  A    between atoms: C_22  and  C_23 
REMARK    9  A    between atoms: C_23  and  O_24 
ROOT
HETATM    1  C   UNL     1      -7.061   1.976 -30.888  1.00  0.00     0.067 C 
HETATM    2  C   UNL     1      -7.133   3.380 -31.551  1.00  0.00     0.001 C 
HETATM    3  C   UNL     1      -5.801   3.732 -32.251  1.00  0.00     0.040 C 
HETATM    4  C   UNL     1      -4.658   3.823 -31.227  1.00  0.00     0.206 C 
HETATM    5  N   UNL     1      -5.196   3.307 -29.887  1.00  0.00    -0.065 N 
HETATM    6  H   UNL     1      -4.411   3.257 -29.222  1.00  0.00     0.280 HD
HETATM    7  C   UNL     1      -5.812   1.921 -29.980  1.00  0.00     0.246 C 
HETATM    8  C   UNL     1      -7.340   4.411 -30.417  1.00  0.00     0.033 C 
HETATM    9  C   UNL     1      -6.233   4.286 -29.363  1.00  0.00     0.236 C 
ENDROOT
BRANCH   4  10
HETATM   10  C   UNL     1      -3.335   3.145 -31.638  1.00  0.00     0.155 C 
BRANCH  10  11
HETATM   11  N   UNL     1      -2.788   3.586 -32.918  1.00  0.00    -0.365 N 
HETATM   12  H   UNL     1      -3.283   3.292 -33.752  1.00  0.00     0.161 HD
BRANCH  11  13
HETATM   13  C   UNL     1      -2.048   4.722 -33.112  1.00  0.00     0.172 C 
HETATM   14  S   UNL     1      -2.422   5.894 -34.237  1.00  0.00    -0.041 SA
BRANCH  13  15
HETATM   15  N   UNL     1      -1.024   4.938 -32.229  1.00  0.00    -0.333 N 
HETATM   16  H   UNL     1      -0.277   4.251 -32.283  1.00  0.00     0.168 HD
BRANCH  15  17
HETATM   17  C   UNL     1      -0.908   5.888 -31.187  1.00  0.00     0.035 A 
HETATM   18  C   UNL     1      -2.006   6.387 -30.486  1.00  0.00     0.047 A 
HETATM   19  C   UNL     1      -1.852   7.374 -29.505  1.00  0.00     0.041 A 
HETATM   20  C   UNL     1      -0.575   7.819 -29.167  1.00  0.00     0.018 A 
HETATM   21  C   UNL     1       0.537   7.273 -29.814  1.00  0.00     0.003 A 
HETATM   22  C   UNL     1       0.370   6.309 -30.817  1.00  0.00     0.029 A 
BRANCH  19  23
HETATM   23  C   UNL     1      -3.092   7.922 -28.900  1.00  0.00     0.293 C 
HETATM   24  O   UNL     1      -3.452   9.077 -29.082  1.00  0.00    -0.259 OA
BRANCH  23  25
HETATM   25  O   UNL     1      -3.734   6.978 -28.178  1.00  0.00    -0.323 OA
HETATM   26  C   UNL     1      -3.384   6.968 -26.792  1.00  0.00     0.213 C 
ENDBRANCH  23  25
ENDBRANCH  19  23
ENDBRANCH  15  17
ENDBRANCH  13  15
ENDBRANCH  11  13
ENDBRANCH  10  11
ENDBRANCH   4  10
BRANCH   1  27
HETATM   27  C   UNL     1      -7.139   0.817 -31.847  1.00  0.00     0.038 A 
HETATM   28  N   UNL     1      -8.249   0.548 -32.627  1.00  0.00    -0.277 N 
HETATM   29  C   UNL     1      -9.493   1.281 -32.709  1.00  0.00     0.179 C 
HETATM   30  N   UNL     1      -8.110  -0.535 -33.400  1.00  0.00    -0.170 NA
HETATM   31  C   UNL     1      -6.846  -0.922 -33.217  1.00  0.00     0.112 A 
HETATM   32  C   UNL     1      -6.205  -0.125 -32.245  1.00  0.00     0.063 A 
BRANCH  31  33
HETATM   33  C   UNL     1      -6.216  -2.035 -33.980  1.00  0.00     0.105 A 
HETATM   34  O   UNL     1      -4.873  -2.150 -34.223  1.00  0.00    -0.320 OA
HETATM   35  C   UNL     1      -4.697  -3.262 -34.983  1.00  0.00     0.142 A 
HETATM   36  C   UNL     1      -5.901  -3.876 -35.230  1.00  0.00     0.027 A 
HETATM   37  C   UNL     1      -6.881  -3.089 -34.578  1.00  0.00     0.041 A 
ENDBRANCH  31  33
ENDBRANCH   1  27
TORSDOF 9
ENDMDL
MODEL 4
REMARK VINA RESULT:      -8.4      5.877     10.584
REMARK  9 active torsions:
REMARK  status: ('A' for Active; 'I' for Inactive)
REMARK    1  A    between atoms: C_4  and  C_5 
REMARK    2  A    between atoms: C_11  and  C_12 
REMARK    3  A    between atoms: C_15  and  C_16 
REMARK    4  A    between atoms: C_16  and  N_17 
REMARK    5  A    between atoms: N_17  and  C_18 
REMARK    6  A    between atoms: C_18  and  N_19 
REMARK    7  A    between atoms: N_19  and  C_20 
REMARK    8  A    between atoms: C_22  and  C_23 
REMARK    9  A    between atoms: C_23  and  O_24 
ROOT
HETATM    1  C   UNL     1      -6.129   2.065 -32.660  1.00  0.00     0.067 C 
HETATM    2  C   UNL     1      -6.927   2.136 -31.328  1.00  0.00     0.001 C 
HETATM    3  C   UNL     1      -8.353   1.567 -31.504  1.00  0.00     0.040 C 
HETATM    4  C   UNL     1      -9.155   2.413 -32.505  1.00  0.00     0.206 C 
HETATM    5  N   UNL     1      -8.182   3.402 -33.158  1.00  0.00    -0.065 N 
HETATM    6  H   UNL     1      -8.682   3.898 -33.910  1.00  0.00     0.280 HD
HETATM    7  C   UNL     1      -6.966   2.732 -33.775  1.00  0.00     0.246 C 
HETATM    8  C   UNL     1      -7.074   3.632 -30.963  1.00  0.00     0.033 C 
HETATM    9  C   UNL     1      -7.728   4.408 -32.113  1.00  0.00     0.236 C 
ENDROOT
BRANCH   4  10
HETATM   10  C   UNL     1      -9.982   1.622 -33.540  1.00  0.00     0.155 C 
BRANCH  10  11
HETATM   11  N   UNL     1     -11.286   1.168 -33.068  1.00  0.00    -0.365 N 
HETATM   12  H   UNL     1     -11.355   0.911 -32.090  1.00  0.00     0.161 HD
BRANCH  11  13
HETATM   13  C   UNL     1     -12.492   1.529 -33.608  1.00  0.00     0.172 C 
HETATM   14  S   UNL     1     -12.727   1.849 -35.228  1.00  0.00    -0.041 SA
BRANCH  13  15
HETATM   15  N   UNL     1     -13.571   1.492 -32.766  1.00  0.00    -0.333 N 
HETATM   16  H   UNL     1     -13.837   0.555 -32.473  1.00  0.00     0.168 HD
BRANCH  15  17
HETATM   17  C   UNL     1     -14.433   2.533 -32.347  1.00  0.00     0.035 A 
HETATM   18  C   UNL     1     -15.821   2.467 -32.470  1.00  0.00     0.047 A 
HETATM   19  C   UNL     1     -16.632   3.547 -32.101  1.00  0.00     0.041 A 
HETATM   20  C   UNL     1     -16.057   4.683 -31.534  1.00  0.00     0.018 A 
HETATM   21  C   UNL     1     -14.673   4.728 -31.341  1.00  0.00     0.003 A 
HETATM   22  C   UNL     1     -13.866   3.656 -31.742  1.00  0.00     0.029 A 
BRANCH  19  23
HETATM   23  C   UNL     1     -18.085   3.424 -32.380  1.00  0.00     0.293 C 
HETATM   24  O   UNL     1     -18.637   2.340 -32.506  1.00  0.00    -0.259 OA
BRANCH  23  25
HETATM   25  O   UNL     1     -18.668   4.641 -32.444  1.00  0.00    -0.323 OA
HETATM   26  C   UNL     1     -19.209   4.961 -33.728  1.00  0.00     0.213 C 
ENDBRANCH  23  25
ENDBRANCH  19  23
ENDBRANCH  15  17
ENDBRANCH  13  15
ENDBRANCH  11  13
ENDBRANCH  10  11
ENDBRANCH   4  10
BRANCH   1  27
HETATM   27  C   UNL     1      -5.645   0.689 -33.036  1.00  0.00     0.038 A 
HETATM   28  N   UNL     1      -4.403   0.196 -32.682  1.00  0.00    -0.277 N 
HETATM   29  C   UNL     1      -3.366   0.838 -31.904  1.00  0.00     0.179 C 
HETATM   30  N   UNL     1      -4.171  -1.044 -33.128  1.00  0.00    -0.170 NA
HETATM   31  C   UNL     1      -5.323  -1.423 -33.686  1.00  0.00     0.112 A 
HETATM   32  C   UNL     1      -6.265  -0.373 -33.673  1.00  0.00     0.063 A 
BRANCH  31  33
HETATM   33  C   UNL     1      -5.558  -2.795 -34.217  1.00  0.00     0.105 A 
HETATM   34  O   UNL     1      -4.636  -3.806 -34.194  1.00  0.00    -0.320 OA
HETATM   35  C   UNL     1      -5.202  -4.879 -34.805  1.00  0.00     0.142 A 
HETATM   36  C   UNL     1      -6.479  -4.584 -35.216  1.00  0.00     0.027 A 
HETATM   37  C   UNL     1      -6.713  -3.242 -34.832  1.00  0.00     0.041 A 
ENDBRANCH  31  33
ENDBRANCH   1  27
TORSDOF 9
ENDMDL
MODEL 5
REMARK VINA RESULT:      -8.3      5.155      9.216
REMARK  9 active torsions:
REMARK  status: ('A' for Active; 'I' for Inactive)
REMARK    1  A    between atoms: C_4  and  C_5 
REMARK    2  A    between atoms: C_11  and  C_12 
REMARK    3  A    between atoms: C_15  and  C_16 
REMARK    4  A    between atoms: C_16  and  N_17 
REMARK    5  A    between atoms: N_17  and  C_18 
REMARK    6  A    between atoms: C_18  and  N_19 
REMARK    7  A    between atoms: N_19  and  C_20 
REMARK    8  A    between atoms: C_22  and  C_23 
REMARK    9  A    between atoms: C_23  and  O_24 
ROOT
HETATM    1  C   UNL     1      -5.523   3.510 -32.768  1.00  0.00     0.067 C 
HETATM    2  C   UNL     1      -6.462   3.851 -31.577  1.00  0.00     0.001 C 
HETATM    3  C   UNL     1      -7.933   3.524 -31.918  1.00  0.00     0.040 C 
HETATM    4  C   UNL     1      -8.424   4.393 -33.087  1.00  0.00     0.206 C 
HETATM    5  N   UNL     1      -7.207   5.128 -33.660  1.00  0.00    -0.065 N 
HETATM    6  H   UNL     1      -7.502   5.626 -34.512  1.00  0.00     0.280 HD
HETATM    7  C   UNL     1      -6.067   4.198 -34.040  1.00  0.00     0.246 C 
HETATM    8  C   UNL     1      -6.374   5.378 -31.349  1.00  0.00     0.033 C 
HETATM    9  C   UNL     1      -6.715   6.138 -32.637  1.00  0.00     0.236 C 
ENDROOT
BRANCH   4  10
HETATM   10  C   UNL     1      -9.242   3.660 -34.170  1.00  0.00     0.155 C 
BRANCH  10  11
HETATM   11  N   UNL     1      -9.040   2.216 -34.223  1.00  0.00    -0.365 N 
HETATM   12  H   UNL     1      -8.104   1.878 -34.029  1.00  0.00     0.161 HD
BRANCH  11  13
HETATM   13  C   UNL     1     -10.005   1.274 -33.986  1.00  0.00     0.172 C 
HETATM   14  S   UNL     1      -9.862   0.062 -32.848  1.00  0.00    -0.041 SA
BRANCH  13  15
HETATM   15  N   UNL     1     -11.193   1.441 -34.645  1.00  0.00    -0.333 N 
HETATM   16  H   UNL     1     -11.094   1.599 -35.645  1.00  0.00     0.168 HD
BRANCH  15  17
HETATM   17  C   UNL     1     -12.508   1.548 -34.136  1.00  0.00     0.035 A 
HETATM   18  C   UNL     1     -12.962   2.660 -33.427  1.00  0.00     0.047 A 
HETATM   19  C   UNL     1     -14.252   2.697 -32.885  1.00  0.00     0.041 A 
HETATM   20  C   UNL     1     -15.129   1.638 -33.114  1.00  0.00     0.018 A 
HETATM   21  C   UNL     1     -14.706   0.550 -33.883  1.00  0.00     0.003 A 
HETATM   22  C   UNL     1     -13.403   0.508 -34.395  1.00  0.00     0.029 A 
BRANCH  19  23
HETATM   23  C   UNL     1     -14.598   3.874 -32.049  1.00  0.00     0.293 C 
HETATM   24  O   UNL     1     -15.756   4.185 -31.805  1.00  0.00    -0.259 OA
BRANCH  23  25
HETATM   25  O   UNL     1     -13.483   4.495 -31.606  1.00  0.00    -0.323 OA
HETATM   26  C   UNL     1     -13.230   4.313 -30.211  1.00  0.00     0.213 C 
ENDBRANCH  23  25
ENDBRANCH  19  23
ENDBRANCH  15  17
ENDBRANCH  13  15
ENDBRANCH  11  13
ENDBRANCH  10  11
ENDBRANCH   4  10
BRANCH   1  27
HETATM   27  C   UNL     1      -5.260   2.040 -32.966  1.00  0.00     0.038 A 
HETATM   28  N   UNL     1      -4.266   1.349 -32.298  1.00  0.00    -0.277 N 
HETATM   29  C   UNL     1      -3.332   1.841 -31.310  1.00  0.00     0.179 C 
HETATM   30  N   UNL     1      -4.197   0.054 -32.632  1.00  0.00    -0.170 NA
HETATM   31  C   UNL     1      -5.237  -0.141 -33.445  1.00  0.00     0.112 A 
HETATM   32  C   UNL     1      -5.918   1.068 -33.700  1.00  0.00     0.063 A 
BRANCH  31  33
HETATM   33  C   UNL     1      -5.619  -1.481 -33.971  1.00  0.00     0.105 A 
HETATM   34  O   UNL     1      -4.729  -2.439 -34.379  1.00  0.00    -0.320 OA
HETATM   35  C   UNL     1      -5.456  -3.494 -34.831  1.00  0.00     0.142 A 
HETATM   36  C   UNL     1      -6.801  -3.241 -34.716  1.00  0.00     0.027 A 
HETATM   37  C   UNL     1      -6.908  -1.946 -34.155  1.00  0.00     0.041 A 
ENDBRANCH  31  33
ENDBRANCH   1  27
TORSDOF 9
ENDMDL
MODEL 6
REMARK VINA RESULT:      -8.3      4.284      7.793
REMARK  9 active torsions:
REMARK  status: ('A' for Active; 'I' for Inactive)
REMARK    1  A    between atoms: C_4  and  C_5 
REMARK    2  A    between atoms: C_11  and  C_12 
REMARK    3  A    between atoms: C_15  and  C_16 
REMARK    4  A    between atoms: C_16  and  N_17 
REMARK    5  A    between atoms: N_17  and  C_18 
REMARK    6  A    between atoms: C_18  and  N_19 
REMARK    7  A    between atoms: N_19  and  C_20 
REMARK    8  A    between atoms: C_22  and  C_23 
REMARK    9  A    between atoms: C_23  and  O_24 
ROOT
HETATM    1  C   UNL     1      -6.455   5.476 -33.513  1.00  0.00     0.067 C 
HETATM    2  C   UNL     1      -5.417   4.493 -34.125  1.00  0.00     0.001 C 
HETATM    3  C   UNL     1      -5.087   3.350 -33.140  1.00  0.00     0.040 C 
HETATM    4  C   UNL     1      -4.423   3.905 -31.869  1.00  0.00     0.206 C 
HETATM    5  N   UNL     1      -4.526   5.433 -31.924  1.00  0.00    -0.065 N 
HETATM    6  H   UNL     1      -4.186   5.812 -31.028  1.00  0.00     0.280 HD
HETATM    7  C   UNL     1      -5.946   5.934 -32.129  1.00  0.00     0.246 C 
HETATM    8  C   UNL     1      -4.112   5.291 -34.354  1.00  0.00     0.033 C 
HETATM    9  C   UNL     1      -3.643   5.946 -33.049  1.00  0.00     0.236 C 
ENDROOT
BRANCH   4  10
HETATM   10  C   UNL     1      -4.935   3.321 -30.536  1.00  0.00     0.155 C 
BRANCH  10  11
HETATM   11  N   UNL     1      -5.710   2.091 -30.658  1.00  0.00    -0.365 N 
HETATM   12  H   UNL     1      -5.266   1.238 -30.338  1.00  0.00     0.161 HD
BRANCH  11  13
HETATM   13  C   UNL     1      -7.077   2.014 -30.652  1.00  0.00     0.172 C 
HETATM   14  S   UNL     1      -8.076   3.252 -30.150  1.00  0.00    -0.041 SA
BRANCH  13  15
HETATM   15  N   UNL     1      -7.625   0.892 -31.215  1.00  0.00    -0.333 N 
HETATM   16  H   UNL     1      -8.364   0.468 -30.659  1.00  0.00     0.168 HD
BRANCH  15  17
HETATM   17  C   UNL     1      -7.243   0.177 -32.373  1.00  0.00     0.035 A 
HETATM   18  C   UNL     1      -6.160  -0.702 -32.402  1.00  0.00     0.047 A 
HETATM   19  C   UNL     1      -5.778  -1.341 -33.588  1.00  0.00     0.041 A 
HETATM   20  C   UNL     1      -6.529  -1.155 -34.748  1.00  0.00     0.018 A 
HETATM   21  C   UNL     1      -7.658  -0.331 -34.710  1.00  0.00     0.003 A 
HETATM   22  C   UNL     1      -8.015   0.328 -33.527  1.00  0.00     0.029 A 
BRANCH  19  23
HETATM   23  C   UNL     1      -4.544  -2.164 -33.542  1.00  0.00     0.293 C 
HETATM   24  O   UNL     1      -4.191  -2.867 -34.478  1.00  0.00    -0.259 OA
BRANCH  23  25
HETATM   25  O   UNL     1      -3.897  -1.997 -32.367  1.00  0.00    -0.323 OA
HETATM   26  C   UNL     1      -3.078  -3.107 -31.990  1.00  0.00     0.213 C 
ENDBRANCH  23  25
ENDBRANCH  19  23
ENDBRANCH  15  17
ENDBRANCH  13  15
ENDBRANCH  11  13
ENDBRANCH  10  11
ENDBRANCH   4  10
BRANCH   1  27
HETATM   27  C   UNL     1      -7.870   4.960 -33.474  1.00  0.00     0.038 A 
HETATM   28  N   UNL     1      -8.952   5.734 -33.097  1.00  0.00    -0.277 N 
HETATM   29  C   UNL     1      -8.972   7.125 -32.702  1.00  0.00     0.179 C 
HETATM   30  N   UNL     1     -10.117   5.075 -33.123  1.00  0.00    -0.170 NA
HETATM   31  C   UNL     1      -9.818   3.881 -33.638  1.00  0.00     0.112 A 
HETATM   32  C   UNL     1      -8.430   3.752 -33.854  1.00  0.00     0.063 A 
BRANCH  31  33
HETATM   33  C   UNL     1     -10.847   2.852 -33.958  1.00  0.00     0.105 A 
HETATM   34  O   UNL     1     -11.156   1.786 -33.157  1.00  0.00    -0.320 OA
HETATM   35  C   UNL     1     -12.101   1.057 -33.807  1.00  0.00     0.142 A 
HETATM   36  C   UNL     1     -12.415   1.637 -35.012  1.00  0.00     0.027 A 
HETATM   37  C   UNL     1     -11.612   2.798 -35.108  1.00  0.00     0.041 A 
ENDBRANCH  31  33
ENDBRANCH   1  27
TORSDOF 9
ENDMDL
MODEL 7
REMARK VINA RESULT:      -8.3      2.255     10.171
REMARK  9 active torsions:
REMARK  status: ('A' for Active; 'I' for Inactive)
REMARK    1  A    between atoms: C_4  and  C_5 
REMARK    2  A    between atoms: C_11  and  C_12 
REMARK    3  A    between atoms: C_15  and  C_16 
REMARK    4  A    between atoms: C_16  and  N_17 
REMARK    5  A    between atoms: N_17  and  C_18 
REMARK    6  A    between atoms: C_18  and  N_19 
REMARK    7  A    between atoms: N_19  and  C_20 
REMARK    8  A    between atoms: C_22  and  C_23 
REMARK    9  A    between atoms: C_23  and  O_24 
ROOT
HETATM    1  C   UNL     1      -0.784   6.239 -31.561  1.00  0.00     0.067 C 
HETATM    2  C   UNL     1      -1.524   7.367 -32.333  1.00  0.00     0.001 C 
HETATM    3  C   UNL     1      -3.056   7.194 -32.234  1.00  0.00     0.040 C 
HETATM    4  C   UNL     1      -3.498   5.883 -32.904  1.00  0.00     0.206 C 
HETATM    5  N   UNL     1      -2.232   5.087 -33.241  1.00  0.00    -0.065 N 
HETATM    6  H   UNL     1      -2.516   4.160 -33.588  1.00  0.00     0.280 HD
HETATM    7  C   UNL     1      -1.319   4.874 -32.046  1.00  0.00     0.246 C 
HETATM    8  C   UNL     1      -1.144   7.226 -33.825  1.00  0.00     0.033 C 
HETATM    9  C   UNL     1      -1.469   5.816 -34.335  1.00  0.00     0.236 C 
ENDROOT
BRANCH   4  10
HETATM   10  C   UNL     1      -4.536   5.049 -32.125  1.00  0.00     0.155 C 
BRANCH  10  11
HETATM   11  N   UNL     1      -4.912   3.788 -32.756  1.00  0.00    -0.365 N 
HETATM   12  H   UNL     1      -4.832   3.740 -33.766  1.00  0.00     0.161 HD
BRANCH  11  13
HETATM   13  C   UNL     1      -4.850   2.557 -32.160  1.00  0.00     0.172 C 
HETATM   14  S   UNL     1      -3.570   2.039 -31.224  1.00  0.00    -0.041 SA
BRANCH  13  15
HETATM   15  N   UNL     1      -5.975   1.781 -32.250  1.00  0.00    -0.333 N 
HETATM   16  H   UNL     1      -6.616   1.885 -31.467  1.00  0.00     0.168 HD
BRANCH  15  17
HETATM   17  C   UNL     1      -6.317   0.781 -33.191  1.00  0.00     0.035 A 
HETATM   18  C   UNL     1      -5.644  -0.437 -33.285  1.00  0.00     0.047 A 
HETATM   19  C   UNL     1      -5.974  -1.372 -34.274  1.00  0.00     0.041 A 
HETATM   20  C   UNL     1      -7.038  -1.119 -35.138  1.00  0.00     0.018 A 
HETATM   21  C   UNL     1      -7.763   0.069 -35.005  1.00  0.00     0.003 A 
HETATM   22  C   UNL     1      -7.406   1.012 -34.033  1.00  0.00     0.029 A 
BRANCH  19  23
HETATM   23  C   UNL     1      -5.123  -2.586 -34.364  1.00  0.00     0.293 C 
HETATM   24  O   UNL     1      -4.208  -2.802 -33.582  1.00  0.00    -0.259 OA
BRANCH  23  25
HETATM   25  O   UNL     1      -5.522  -3.379 -35.382  1.00  0.00    -0.323 OA
HETATM   26  C   UNL     1      -5.987  -4.666 -34.970  1.00  0.00     0.213 C 
ENDBRANCH  23  25
ENDBRANCH  19  23
ENDBRANCH  15  17
ENDBRANCH  13  15
ENDBRANCH  11  13
ENDBRANCH  10  11
ENDBRANCH   4  10
BRANCH   1  27
HETATM   27  C   UNL     1      -0.807   6.378 -30.061  1.00  0.00     0.038 A 
HETATM   28  N   UNL     1       0.062   5.705 -29.221  1.00  0.00    -0.277 N 
HETATM   29  C   UNL     1       1.131   4.795 -29.570  1.00  0.00     0.179 C 
HETATM   30  N   UNL     1      -0.139   5.964 -27.924  1.00  0.00    -0.170 NA
HETATM   31  C   UNL     1      -1.079   6.912 -27.910  1.00  0.00     0.112 A 
HETATM   32  C   UNL     1      -1.541   7.190 -29.213  1.00  0.00     0.063 A 
BRANCH  31  33
HETATM   33  C   UNL     1      -1.533   7.589 -26.663  1.00  0.00     0.105 A 
HETATM   34  O   UNL     1      -0.912   8.668 -26.094  1.00  0.00    -0.320 OA
HETATM   35  C   UNL     1      -1.590   8.967 -24.955  1.00  0.00     0.142 A 
HETATM   36  C   UNL     1      -2.646   8.105 -24.781  1.00  0.00     0.027 A 
HETATM   37  C   UNL     1      -2.615   7.220 -25.885  1.00  0.00     0.041 A 
ENDBRANCH  31  33
ENDBRANCH   1  27
TORSDOF 9
ENDMDL
MODEL 8
REMARK VINA RESULT:      -8.0      2.904      4.789
REMARK  9 active torsions:
REMARK  status: ('A' for Active; 'I' for Inactive)
REMARK    1  A    between atoms: C_4  and  C_5 
REMARK    2  A    between atoms: C_11  and  C_12 
REMARK    3  A    between atoms: C_15  and  C_16 
REMARK    4  A    between atoms: C_16  and  N_17 
REMARK    5  A    between atoms: N_17  and  C_18 
REMARK    6  A    between atoms: C_18  and  N_19 
REMARK    7  A    between atoms: N_19  and  C_20 
REMARK    8  A    between atoms: C_22  and  C_23 
REMARK    9  A    between atoms: C_23  and  O_24 
ROOT
HETATM    1  C   UNL     1      -6.967   0.618 -33.528  1.00  0.00     0.067 C 
HETATM    2  C   UNL     1      -6.665  -0.552 -32.550  1.00  0.00     0.001 C 
HETATM    3  C   UNL     1      -6.551  -0.044 -31.095  1.00  0.00     0.040 C 
HETATM    4  C   UNL     1      -5.367   0.925 -30.951  1.00  0.00     0.206 C 
HETATM    5  N   UNL     1      -4.843   1.228 -32.359  1.00  0.00    -0.065 N 
HETATM    6  H   UNL     1      -4.124   1.962 -32.285  1.00  0.00     0.280 HD
HETATM    7  C   UNL     1      -5.920   1.732 -33.306  1.00  0.00     0.246 C 
HETATM    8  C   UNL     1      -5.285  -1.130 -32.942  1.00  0.00     0.033 C 
HETATM    9  C   UNL     1      -4.215  -0.030 -32.934  1.00  0.00     0.236 C 
ENDROOT
BRANCH   4  10
HETATM   10  C   UNL     1      -5.641   2.201 -30.129  1.00  0.00     0.155 C 
BRANCH  10  11
HETATM   11  N   UNL     1      -4.663   3.269 -30.305  1.00  0.00    -0.365 N 
HETATM   12  H   UNL     1      -3.687   2.996 -30.336  1.00  0.00     0.161 HD
BRANCH  11  13
HETATM   13  C   UNL     1      -4.900   4.462 -30.934  1.00  0.00     0.172 C 
HETATM   14  S   UNL     1      -5.951   5.624 -30.362  1.00  0.00    -0.041 SA
BRANCH  13  15
HETATM   15  N   UNL     1      -4.119   4.740 -32.024  1.00  0.00    -0.333 N 
HETATM   16  H   UNL     1      -4.406   4.262 -32.875  1.00  0.00     0.168 HD
BRANCH  15  17
HETATM   17  C   UNL     1      -2.919   5.484 -32.117  1.00  0.00     0.035 A 
HETATM   18  C   UNL     1      -1.745   5.120 -31.457  1.00  0.00     0.047 A 
HETATM   19  C   UNL     1      -0.598   5.921 -31.525  1.00  0.00     0.041 A 
HETATM   20  C   UNL     1      -0.599   7.065 -32.321  1.00  0.00     0.018 A 
HETATM   21  C   UNL     1      -1.749   7.399 -33.042  1.00  0.00     0.003 A 
HETATM   22  C   UNL     1      -2.902   6.610 -32.943  1.00  0.00     0.029 A 
BRANCH  19  23
HETATM   23  C   UNL     1       0.561   5.508 -30.694  1.00  0.00     0.293 C 
HETATM   24  O   UNL     1       1.212   4.501 -30.934  1.00  0.00    -0.259 OA
BRANCH  23  25
HETATM   25  O   UNL     1       0.780   6.396 -29.698  1.00  0.00    -0.323 OA
HETATM   26  C   UNL     1       0.319   5.960 -28.418  1.00  0.00     0.213 C 
ENDBRANCH  23  25
ENDBRANCH  19  23
ENDBRANCH  15  17
ENDBRANCH  13  15
ENDBRANCH  11  13
ENDBRANCH  10  11
ENDBRANCH   4  10
BRANCH   1  27
HETATM   27  C   UNL     1      -8.383   1.129 -33.486  1.00  0.00     0.038 A 
HETATM   28  N   UNL     1      -8.712   2.469 -33.582  1.00  0.00    -0.277 N 
HETATM   29  C   UNL     1      -7.832   3.604 -33.755  1.00  0.00     0.179 C 
HETATM   30  N   UNL     1     -10.028   2.704 -33.510  1.00  0.00    -0.170 NA
HETATM   31  C   UNL     1     -10.587   1.493 -33.484  1.00  0.00     0.112 A 
HETATM   32  C   UNL     1      -9.605   0.480 -33.447  1.00  0.00     0.063 A 
BRANCH  31  33
HETATM   33  C   UNL     1     -12.060   1.275 -33.522  1.00  0.00     0.105 A 
HETATM   34  O   UNL     1     -12.996   2.256 -33.334  1.00  0.00    -0.320 OA
HETATM   35  C   UNL     1     -14.217   1.662 -33.396  1.00  0.00     0.142 A 
HETATM   36  C   UNL     1     -14.088   0.315 -33.631  1.00  0.00     0.027 A 
HETATM   37  C   UNL     1     -12.698   0.064 -33.719  1.00  0.00     0.041 A 
ENDBRANCH  31  33
ENDBRANCH   1  27
TORSDOF 9
ENDMDL
MODEL 9
REMARK VINA RESULT:      -8.0      3.539      8.329
REMARK  9 active torsions:
REMARK  status: ('A' for Active; 'I' for Inactive)
REMARK    1  A    between atoms: C_4  and  C_5 
REMARK    2  A    between atoms: C_11  and  C_12 
REMARK    3  A    between atoms: C_15  and  C_16 
REMARK    4  A    between atoms: C_16  and  N_17 
REMARK    5  A    between atoms: N_17  and  C_18 
REMARK    6  A    between atoms: C_18  and  N_19 
REMARK    7  A    between atoms: N_19  and  C_20 
REMARK    8  A    between atoms: C_22  and  C_23 
REMARK    9  A    between atoms: C_23  and  O_24 
ROOT
HETATM    1  C   UNL     1      -5.419   5.377 -30.285  1.00  0.00     0.067 C 
HETATM    2  C   UNL     1      -6.212   5.038 -28.991  1.00  0.00     0.001 C 
HETATM    3  C   UNL     1      -7.458   4.183 -29.311  1.00  0.00     0.040 C 
HETATM    4  C   UNL     1      -8.440   4.966 -30.198  1.00  0.00     0.206 C 
HETATM    5  N   UNL     1      -7.734   6.251 -30.646  1.00  0.00    -0.065 N 
HETATM    6  H   UNL     1      -8.337   6.730 -31.330  1.00  0.00     0.280 HD
HETATM    7  C   UNL     1      -6.391   5.999 -31.312  1.00  0.00     0.246 C 
HETATM    8  C   UNL     1      -6.715   6.376 -28.400  1.00  0.00     0.033 C 
HETATM    9  C   UNL     1      -7.536   7.151 -29.438  1.00  0.00     0.236 C 
ENDROOT
BRANCH   4  10
HETATM   10  C   UNL     1      -9.052   4.181 -31.376  1.00  0.00     0.155 C 
BRANCH  10  11
HETATM   11  N   UNL     1      -9.071   2.732 -31.208  1.00  0.00    -0.365 N 
HETATM   12  H   UNL     1      -9.103   2.382 -30.257  1.00  0.00     0.161 HD
BRANCH  11  13
HETATM   13  C   UNL     1      -9.565   1.837 -32.119  1.00  0.00     0.172 C 
HETATM   14  S   UNL     1     -10.822   2.171 -33.164  1.00  0.00    -0.041 SA
BRANCH  13  15
HETATM   15  N   UNL     1      -8.883   0.656 -32.243  1.00  0.00    -0.333 N 
HETATM   16  H   UNL     1      -8.864   0.096 -31.394  1.00  0.00     0.168 HD
BRANCH  15  17
HETATM   17  C   UNL     1      -8.109   0.162 -33.319  1.00  0.00     0.035 A 
HETATM   18  C   UNL     1      -7.815  -1.192 -33.485  1.00  0.00     0.047 A 
HETATM   19  C   UNL     1      -6.991  -1.631 -34.530  1.00  0.00     0.041 A 
HETATM   20  C   UNL     1      -6.512  -0.714 -35.464  1.00  0.00     0.018 A 
HETATM   21  C   UNL     1      -6.860   0.634 -35.346  1.00  0.00     0.003 A 
HETATM   22  C   UNL     1      -7.658   1.068 -34.280  1.00  0.00     0.029 A 
BRANCH  19  23
HETATM   23  C   UNL     1      -6.643  -3.074 -34.552  1.00  0.00     0.293 C 
HETATM   24  O   UNL     1      -7.400  -3.935 -34.127  1.00  0.00    -0.259 OA
BRANCH  23  25
HETATM   25  O   UNL     1      -5.429  -3.268 -35.112  1.00  0.00    -0.323 OA
HETATM   26  C   UNL     1      -4.599  -4.188 -34.400  1.00  0.00     0.213 C 
ENDBRANCH  23  25
ENDBRANCH  19  23
ENDBRANCH  15  17
ENDBRANCH  13  15
ENDBRANCH  11  13
ENDBRANCH  10  11
ENDBRANCH   4  10
BRANCH   1  27
HETATM   27  C   UNL     1      -4.618   4.236 -30.854  1.00  0.00     0.038 A 
HETATM   28  N   UNL     1      -3.319   4.370 -31.308  1.00  0.00    -0.277 N 
HETATM   29  C   UNL     1      -2.484   5.551 -31.318  1.00  0.00     0.179 C 
HETATM   30  N   UNL     1      -2.797   3.233 -31.784  1.00  0.00    -0.170 NA
HETATM   31  C   UNL     1      -3.724   2.306 -31.534  1.00  0.00     0.112 A 
HETATM   32  C   UNL     1      -4.884   2.882 -30.974  1.00  0.00     0.063 A 
BRANCH  31  33
HETATM   33  C   UNL     1      -3.514   0.854 -31.795  1.00  0.00     0.105 A 
HETATM   34  O   UNL     1      -2.562   0.083 -31.183  1.00  0.00    -0.320 OA
HETATM   35  C   UNL     1      -2.654  -1.164 -31.715  1.00  0.00     0.142 A 
HETATM   36  C   UNL     1      -3.655  -1.217 -32.654  1.00  0.00     0.027 A 
HETATM   37  C   UNL     1      -4.215   0.082 -32.702  1.00  0.00     0.041 A 
ENDBRANCH  31  33
ENDBRANCH   1  27
TORSDOF 9
ENDMDL
MODEL 10
REMARK VINA RESULT:      -8.0      3.202      5.006
REMARK  9 active torsions:
REMARK  status: ('A' for Active; 'I' for Inactive)
REMARK    1  A    between atoms: C_4  and  C_5 
REMARK    2  A    between atoms: C_11  and  C_12 
REMARK    3  A    between atoms: C_15  and  C_16 
REMARK    4  A    between atoms: C_16  and  N_17 
REMARK    5  A    between atoms: N_17  and  C_18 
REMARK    6  A    between atoms: C_18  and  N_19 
REMARK    7  A    between atoms: N_19  and  C_20 
REMARK    8  A    between atoms: C_22  and  C_23 
REMARK    9  A    between atoms: C_23  and  O_24 
ROOT
HETATM    1  C   UNL     1      -5.760   1.253 -32.725  1.00  0.00     0.067 C 
HETATM    2  C   UNL     1      -5.549   0.551 -31.353  1.00  0.00     0.001 C 
HETATM    3  C   UNL     1      -6.065   1.433 -30.194  1.00  0.00     0.040 C 
HETATM    4  C   UNL     1      -5.263   2.742 -30.110  1.00  0.00     0.206 C 
HETATM    5  N   UNL     1      -4.373   2.819 -31.356  1.00  0.00    -0.065 N 
HETATM    6  H   UNL     1      -3.915   3.742 -31.369  1.00  0.00     0.280 HD
HETATM    7  C   UNL     1      -5.144   2.668 -32.657  1.00  0.00     0.246 C 
HETATM    8  C   UNL     1      -4.025   0.383 -31.156  1.00  0.00     0.033 C 
HETATM    9  C   UNL     1      -3.311   1.736 -31.270  1.00  0.00     0.236 C 
ENDROOT
BRANCH   4  10
HETATM   10  C   UNL     1      -6.093   4.024 -29.892  1.00  0.00     0.155 C 
BRANCH  10  11
HETATM   11  N   UNL     1      -5.356   5.272 -30.059  1.00  0.00    -0.365 N 
HETATM   12  H   UNL     1      -5.481   5.762 -30.938  1.00  0.00     0.161 HD
BRANCH  11  13
HETATM   13  C   UNL     1      -4.959   6.097 -29.042  1.00  0.00     0.172 C 
HETATM   14  S   UNL     1      -5.330   5.840 -27.436  1.00  0.00    -0.041 SA
BRANCH  13  15
HETATM   15  N   UNL     1      -4.103   7.111 -29.380  1.00  0.00    -0.333 N 
HETATM   16  H   UNL     1      -4.478   8.043 -29.218  1.00  0.00     0.168 HD
BRANCH  15  17
HETATM   17  C   UNL     1      -2.844   7.062 -30.024  1.00  0.00     0.035 A 
HETATM   18  C   UNL     1      -2.698   7.075 -31.411  1.00  0.00     0.047 A 
HETATM   19  C   UNL     1      -1.437   6.959 -32.008  1.00  0.00     0.041 A 
HETATM   20  C   UNL     1      -0.296   6.901 -31.208  1.00  0.00     0.018 A 
HETATM   21  C   UNL     1      -0.428   6.958 -29.818  1.00  0.00     0.003 A 
HETATM   22  C   UNL     1      -1.696   7.042 -29.230  1.00  0.00     0.029 A 
BRANCH  19  23
HETATM   23  C   UNL     1      -1.398   6.865 -33.489  1.00  0.00     0.293 C 
HETATM   24  O   UNL     1      -1.641   7.822 -34.211  1.00  0.00    -0.259 OA
BRANCH  23  25
HETATM   25  O   UNL     1      -1.044   5.623 -33.884  1.00  0.00    -0.323 OA
HETATM   26  C   UNL     1      -2.002   4.986 -34.732  1.00  0.00     0.213 C 
ENDBRANCH  23  25
ENDBRANCH  19  23
ENDBRANCH  15  17
ENDBRANCH  13  15
ENDBRANCH  11  13
ENDBRANCH  10  11
ENDBRANCH   4  10
BRANCH   1  27
HETATM   27  C   UNL     1      -7.182   1.257 -33.222  1.00  0.00     0.038 A 
HETATM   28  N   UNL     1      -7.626   0.461 -34.262  1.00  0.00    -0.277 N 
HETATM   29  C   UNL     1      -6.883  -0.505 -35.041  1.00  0.00     0.179 C 
HETATM   30  N   UNL     1      -8.922   0.631 -34.551  1.00  0.00    -0.170 NA
HETATM   31  C   UNL     1      -9.371   1.465 -33.610  1.00  0.00     0.112 A 
HETATM   32  C   UNL     1      -8.322   1.899 -32.772  1.00  0.00     0.063 A 
BRANCH  31  33
HETATM   33  C   UNL     1     -10.806   1.842 -33.474  1.00  0.00     0.105 A 
HETATM   34  O   UNL     1     -11.254   3.002 -32.902  1.00  0.00    -0.320 OA
HETATM   35  C   UNL     1     -12.612   2.961 -32.923  1.00  0.00     0.142 A 
HETATM   36  C   UNL     1     -13.052   1.797 -33.506  1.00  0.00     0.027 A 
HETATM   37  C   UNL     1     -11.888   1.077 -33.868  1.00  0.00     0.041 A 
ENDBRANCH  31  33
ENDBRANCH   1  27
TORSDOF 9
ENDMDL
