MODEL 1
REMARK VINA RESULT:      -8.9      0.000      0.000
REMARK  8 active torsions:
REMARK  status: ('A' for Active; 'I' for Inactive)
REMARK    1  A    between atoms: C_4  and  O_5 
REMARK    2  A    between atoms: O_5  and  C_6 
REMARK    3  A    between atoms: C_6  and  C_7 
REMARK    4  A    between atoms: C_7  and  N_8 
REMARK       I    between atoms: N_8  and  C_9 
REMARK    5  A    between atoms: C_9  and  C_10 
REMARK    6  A    between atoms: C_10  and  S_11 
REMARK    7  A    between atoms: S_11  and  C_12 
REMARK    8  A    between atoms: C_15  and  C_16 
ROOT
HETATM    1  C   UNL     1      -5.447   5.580 -33.712  1.00  0.00     0.185 C 
ENDROOT
BRANCH   1   2
HETATM    2  C   UNL     1      -6.522   4.505 -33.830  1.00  0.00     0.227 C 
HETATM    3  N   UNL     1      -5.992   3.245 -34.070  1.00  0.00    -0.358 N 
HETATM    4  H   UNL     1      -5.010   3.102 -33.866  1.00  0.00     0.162 HD
HETATM    5  O   UNL     1      -7.730   4.714 -33.771  1.00  0.00    -0.273 OA
BRANCH   3   6
HETATM    6  C   UNL     1      -6.838   2.065 -34.144  1.00  0.00     0.149 C 
BRANCH   6   7
HETATM    7  C   UNL     1      -6.634   1.123 -32.956  1.00  0.00     0.195 C 
BRANCH   7   8
HETATM    8  O   UNL     1      -7.294  -0.109 -33.242  1.00  0.00    -0.350 OA
BRANCH   8   9
HETATM    9  C   UNL     1      -6.519  -1.159 -33.656  1.00  0.00     0.069 A 
HETATM   10  C   UNL     1      -6.961  -2.289 -34.345  1.00  0.00     0.043 A 
HETATM   11  C   UNL     1      -6.058  -3.303 -34.706  1.00  0.00    -0.059 A 
HETATM   12  C   UNL     1      -6.520  -4.516 -35.458  1.00  0.00     0.048 C 
HETATM   13  C   UNL     1      -4.703  -3.162 -34.382  1.00  0.00     0.007 A 
HETATM   14  C   UNL     1      -4.258  -2.035 -33.697  1.00  0.00     0.003 A 
HETATM   15  C   UNL     1      -5.165  -1.039 -33.335  1.00  0.00     0.037 A 
ENDBRANCH   8   9
ENDBRANCH   7   8
ENDBRANCH   6   7
ENDBRANCH   3   6
ENDBRANCH   1   2
BRANCH   1  16
HETATM   16  S   UNL     1      -3.916   5.126 -34.570  1.00  0.00    -0.081 SA
BRANCH  16  17
HETATM   17  C   UNL     1      -2.801   6.180 -33.779  1.00  0.00     0.191 A 
HETATM   18  N   UNL     1      -2.475   6.093 -32.455  1.00  0.00    -0.312 N 
HETATM   19  C   UNL     1      -2.826   5.036 -31.542  1.00  0.00     0.160 C 
HETATM   20  C   UNL     1      -1.693   7.199 -32.188  1.00  0.00     0.164 A 
HETATM   21  N   UNL     1      -1.488   7.840 -33.327  1.00  0.00    -0.128 NA
HETATM   22  N   UNL     1      -2.191   7.205 -34.322  1.00  0.00    -0.122 NA
BRANCH  20  23
HETATM   23  C   UNL     1      -1.181   7.593 -30.873  1.00  0.00     0.018 A 
HETATM   24  C   UNL     1      -0.012   7.020 -30.331  1.00  0.00    -0.048 A 
HETATM   25  C   UNL     1       0.785   5.982 -31.076  1.00  0.00     0.049 C 
HETATM   26  C   UNL     1       0.444   7.452 -29.073  1.00  0.00     0.007 A 
HETATM   27  C   UNL     1      -0.247   8.429 -28.356  1.00  0.00     0.001 A 
HETATM   28  C   UNL     1      -1.395   9.001 -28.893  1.00  0.00     0.001 A 
HETATM   29  C   UNL     1      -1.855   8.590 -30.145  1.00  0.00     0.016 A 
ENDBRANCH  20  23
ENDBRANCH  16  17
ENDBRANCH   1  16
TORSDOF 8
ENDMDL
MODEL 2
REMARK VINA RESULT:      -8.7      2.405      9.185
REMARK  8 active torsions:
REMARK  status: ('A' for Active; 'I' for Inactive)
REMARK    1  A    between atoms: C_4  and  O_5 
REMARK    2  A    between atoms: O_5  and  C_6 
REMARK    3  A    between atoms: C_6  and  C_7 
REMARK    4  A    between atoms: C_7  and  N_8 
REMARK       I    between atoms: N_8  and  C_9 
REMARK    5  A    between atoms: C_9  and  C_10 
REMARK    6  A    between atoms: C_10  and  S_11 
REMARK    7  A    between atoms: S_11  and  C_12 
REMARK    8  A    between atoms: C_15  and  C_16 
ROOT
HETATM    1  C   UNL     1      -6.851   4.220 -32.031  1.00  0.00     0.185 C 
ENDROOT
BRANCH   1   2
HETATM    2  C   UNL     1      -6.371   4.696 -33.398  1.00  0.00     0.227 C 
HETATM    3  N   UNL     1      -4.987   4.704 -33.504  1.00  0.00    -0.358 N 
HETATM    4  H   UNL     1      -4.462   4.157 -32.833  1.00  0.00     0.162 HD
HETATM    5  O   UNL     1      -7.107   5.080 -34.303  1.00  0.00    -0.273 OA
BRANCH   3   6
HETATM    6  C   UNL     1      -4.322   5.055 -34.748  1.00  0.00     0.149 C 
BRANCH   6   7
HETATM    7  C   UNL     1      -2.798   5.046 -34.618  1.00  0.00     0.195 C 
BRANCH   7   8
HETATM    8  O   UNL     1      -2.459   4.499 -33.345  1.00  0.00    -0.350 OA
BRANCH   8   9
HETATM    9  C   UNL     1      -1.573   5.200 -32.573  1.00  0.00     0.069 A 
HETATM   10  C   UNL     1      -0.906   4.722 -31.444  1.00  0.00     0.043 A 
HETATM   11  C   UNL     1      -0.021   5.552 -30.734  1.00  0.00    -0.059 A 
HETATM   12  C   UNL     1       0.711   5.045 -29.526  1.00  0.00     0.048 C 
HETATM   13  C   UNL     1       0.198   6.861 -31.179  1.00  0.00     0.007 A 
HETATM   14  C   UNL     1      -0.464   7.340 -32.306  1.00  0.00     0.003 A 
HETATM   15  C   UNL     1      -1.346   6.511 -32.998  1.00  0.00     0.037 A 
ENDBRANCH   8   9
ENDBRANCH   7   8
ENDBRANCH   6   7
ENDBRANCH   3   6
ENDBRANCH   1   2
BRANCH   1  16
HETATM   16  S   UNL     1      -8.257   3.082 -32.148  1.00  0.00    -0.081 SA
BRANCH  16  17
HETATM   17  C   UNL     1      -7.426   1.569 -32.097  1.00  0.00     0.191 A 
HETATM   18  N   UNL     1      -7.062   0.859 -33.205  1.00  0.00    -0.312 N 
HETATM   19  C   UNL     1      -7.117   1.299 -34.576  1.00  0.00     0.160 C 
HETATM   20  C   UNL     1      -6.578  -0.346 -32.736  1.00  0.00     0.164 A 
HETATM   21  N   UNL     1      -6.563  -0.295 -31.414  1.00  0.00    -0.128 NA
HETATM   22  N   UNL     1      -7.105   0.903 -31.014  1.00  0.00    -0.122 NA
BRANCH  20  23
HETATM   23  C   UNL     1      -6.155  -1.481 -33.559  1.00  0.00     0.018 A 
HETATM   24  C   UNL     1      -4.793  -1.735 -33.829  1.00  0.00    -0.048 A 
HETATM   25  C   UNL     1      -3.698  -0.863 -33.277  1.00  0.00     0.049 C 
HETATM   26  C   UNL     1      -4.445  -2.852 -34.609  1.00  0.00     0.007 A 
HETATM   27  C   UNL     1      -5.424  -3.704 -35.120  1.00  0.00     0.001 A 
HETATM   28  C   UNL     1      -6.766  -3.460 -34.849  1.00  0.00     0.001 A 
HETATM   29  C   UNL     1      -7.128  -2.361 -34.068  1.00  0.00     0.016 A 
ENDBRANCH  20  23
ENDBRANCH  16  17
ENDBRANCH   1  16
TORSDOF 8
ENDMDL
MODEL 3
REMARK VINA RESULT:      -8.5      1.707      2.485
REMARK  8 active torsions:
REMARK  status: ('A' for Active; 'I' for Inactive)
REMARK    1  A    between atoms: C_4  and  O_5 
REMARK    2  A    between atoms: O_5  and  C_6 
REMARK    3  A    between atoms: C_6  and  C_7 
REMARK    4  A    between atoms: C_7  and  N_8 
REMARK       I    between atoms: N_8  and  C_9 
REMARK    5  A    between atoms: C_9  and  C_10 
REMARK    6  A    between atoms: C_10  and  S_11 
REMARK    7  A    between atoms: S_11  and  C_12 
REMARK    8  A    between atoms: C_15  and  C_16 
ROOT
HETATM    1  C   UNL     1      -3.623   5.274 -34.962  1.00  0.00     0.185 C 
ENDROOT
BRANCH   1   2
HETATM    2  C   UNL     1      -4.275   5.201 -33.586  1.00  0.00     0.227 C 
HETATM    3  N   UNL     1      -4.004   4.008 -32.930  1.00  0.00    -0.358 N 
HETATM    4  H   UNL     1      -3.220   3.458 -33.261  1.00  0.00     0.162 HD
HETATM    5  O   UNL     1      -5.002   6.068 -33.109  1.00  0.00    -0.273 OA
BRANCH   3   6
HETATM    6  C   UNL     1      -4.470   3.762 -31.575  1.00  0.00     0.149 C 
BRANCH   6   7
HETATM    7  C   UNL     1      -5.243   2.447 -31.452  1.00  0.00     0.195 C 
BRANCH   7   8
HETATM    8  O   UNL     1      -4.416   1.394 -31.942  1.00  0.00    -0.350 OA
BRANCH   8   9
HETATM    9  C   UNL     1      -4.984   0.493 -32.801  1.00  0.00     0.069 A 
HETATM   10  C   UNL     1      -6.090   0.720 -33.623  1.00  0.00     0.043 A 
HETATM   11  C   UNL     1      -6.580  -0.299 -34.458  1.00  0.00    -0.059 A 
HETATM   12  C   UNL     1      -7.759  -0.061 -35.355  1.00  0.00     0.048 C 
HETATM   13  C   UNL     1      -5.939  -1.543 -34.470  1.00  0.00     0.007 A 
HETATM   14  C   UNL     1      -4.835  -1.773 -33.653  1.00  0.00     0.003 A 
HETATM   15  C   UNL     1      -4.362  -0.758 -32.822  1.00  0.00     0.037 A 
ENDBRANCH   8   9
ENDBRANCH   7   8
ENDBRANCH   6   7
ENDBRANCH   3   6
ENDBRANCH   1   2
BRANCH   1  16
HETATM   16  S   UNL     1      -1.814   5.210 -34.876  1.00  0.00    -0.081 SA
BRANCH  16  17
HETATM   17  C   UNL     1      -1.523   6.435 -33.694  1.00  0.00     0.191 A 
HETATM   18  N   UNL     1      -1.132   6.181 -32.411  1.00  0.00    -0.312 N 
HETATM   19  C   UNL     1      -0.711   4.917 -31.864  1.00  0.00     0.160 C 
HETATM   20  C   UNL     1      -1.169   7.398 -31.760  1.00  0.00     0.164 A 
HETATM   21  N   UNL     1      -1.465   8.330 -32.651  1.00  0.00    -0.128 NA
HETATM   22  N   UNL     1      -1.696   7.724 -33.862  1.00  0.00    -0.122 NA
BRANCH  20  23
HETATM   23  C   UNL     1      -0.923   7.618 -30.333  1.00  0.00     0.018 A 
HETATM   24  C   UNL     1      -1.982   7.784 -29.415  1.00  0.00    -0.048 A 
HETATM   25  C   UNL     1      -3.424   7.730 -29.847  1.00  0.00     0.049 C 
HETATM   26  C   UNL     1      -1.687   7.972 -28.053  1.00  0.00     0.007 A 
HETATM   27  C   UNL     1      -0.367   8.003 -27.603  1.00  0.00     0.001 A 
HETATM   28  C   UNL     1       0.677   7.832 -28.504  1.00  0.00     0.001 A 
HETATM   29  C   UNL     1       0.401   7.635 -29.858  1.00  0.00     0.016 A 
ENDBRANCH  20  23
ENDBRANCH  16  17
ENDBRANCH   1  16
TORSDOF 8
ENDMDL
MODEL 4
REMARK VINA RESULT:      -8.4      5.072      8.231
REMARK  8 active torsions:
REMARK  status: ('A' for Active; 'I' for Inactive)
REMARK    1  A    between atoms: C_4  and  O_5 
REMARK    2  A    between atoms: O_5  and  C_6 
REMARK    3  A    between atoms: C_6  and  C_7 
REMARK    4  A    between atoms: C_7  and  N_8 
REMARK       I    between atoms: N_8  and  C_9 
REMARK    5  A    between atoms: C_9  and  C_10 
REMARK    6  A    between atoms: C_10  and  S_11 
REMARK    7  A    between atoms: S_11  and  C_12 
REMARK    8  A    between atoms: C_15  and  C_16 
ROOT
HETATM    1  C   UNL     1      -7.101   4.769 -32.156  1.00  0.00     0.185 C 
ENDROOT
BRANCH   1   2
HETATM    2  C   UNL     1      -8.480   5.196 -32.647  1.00  0.00     0.227 C 
HETATM    3  N   UNL     1      -8.486   5.535 -33.993  1.00  0.00    -0.358 N 
HETATM    4  H   UNL     1      -7.712   5.213 -34.561  1.00  0.00     0.162 HD
HETATM    5  O   UNL     1      -9.479   5.284 -31.938  1.00  0.00    -0.273 OA
BRANCH   3   6
HETATM    6  C   UNL     1      -9.714   5.902 -34.680  1.00  0.00     0.149 C 
BRANCH   6   7
HETATM    7  C   UNL     1     -10.419   4.694 -35.300  1.00  0.00     0.195 C 
BRANCH   7   8
HETATM    8  O   UNL     1     -11.528   4.348 -34.473  1.00  0.00    -0.350 OA
BRANCH   8   9
HETATM    9  C   UNL     1     -11.722   3.021 -34.200  1.00  0.00     0.069 A 
HETATM   10  C   UNL     1     -10.782   2.145 -33.654  1.00  0.00     0.043 A 
HETATM   11  C   UNL     1     -11.109   0.797 -33.429  1.00  0.00    -0.059 A 
HETATM   12  C   UNL     1     -10.111  -0.150 -32.831  1.00  0.00     0.048 C 
HETATM   13  C   UNL     1     -12.395   0.342 -33.744  1.00  0.00     0.007 A 
HETATM   14  C   UNL     1     -13.336   1.214 -34.286  1.00  0.00     0.003 A 
HETATM   15  C   UNL     1     -12.998   2.547 -34.513  1.00  0.00     0.037 A 
ENDBRANCH   8   9
ENDBRANCH   7   8
ENDBRANCH   6   7
ENDBRANCH   3   6
ENDBRANCH   1   2
BRANCH   1  16
HETATM   16  S   UNL     1      -7.144   3.201 -31.249  1.00  0.00    -0.081 SA
BRANCH  16  17
HETATM   17  C   UNL     1      -6.966   2.089 -32.558  1.00  0.00     0.191 A 
HETATM   18  N   UNL     1      -6.715   0.756 -32.399  1.00  0.00    -0.312 N 
HETATM   19  C   UNL     1      -6.743   0.006 -31.170  1.00  0.00     0.160 C 
HETATM   20  C   UNL     1      -6.486   0.264 -33.668  1.00  0.00     0.164 A 
HETATM   21  N   UNL     1      -6.698   1.244 -34.532  1.00  0.00    -0.128 NA
HETATM   22  N   UNL     1      -6.990   2.390 -33.833  1.00  0.00    -0.122 NA
BRANCH  20  23
HETATM   23  C   UNL     1      -6.078  -1.103 -34.001  1.00  0.00     0.018 A 
HETATM   24  C   UNL     1      -4.749  -1.545 -33.824  1.00  0.00    -0.048 A 
HETATM   25  C   UNL     1      -3.679  -0.642 -33.270  1.00  0.00     0.049 C 
HETATM   26  C   UNL     1      -4.420  -2.874 -34.141  1.00  0.00     0.007 A 
HETATM   27  C   UNL     1      -5.384  -3.754 -34.632  1.00  0.00     0.001 A 
HETATM   28  C   UNL     1      -6.695  -3.324 -34.800  1.00  0.00     0.001 A 
HETATM   29  C   UNL     1      -7.041  -2.010 -34.480  1.00  0.00     0.016 A 
ENDBRANCH  20  23
ENDBRANCH  16  17
ENDBRANCH   1  16
TORSDOF 8
ENDMDL
MODEL 5
REMARK VINA RESULT:      -8.4      3.222      4.237
REMARK  8 active torsions:
REMARK  status: ('A' for Active; 'I' for Inactive)
REMARK    1  A    between atoms: C_4  and  O_5 
REMARK    2  A    between atoms: O_5  and  C_6 
REMARK    3  A    between atoms: C_6  and  C_7 
REMARK    4  A    between atoms: C_7  and  N_8 
REMARK       I    between atoms: N_8  and  C_9 
REMARK    5  A    between atoms: C_9  and  C_10 
REMARK    6  A    between atoms: C_10  and  S_11 
REMARK    7  A    between atoms: S_11  and  C_12 
REMARK    8  A    between atoms: C_15  and  C_16 
ROOT
HETATM    1  C   UNL     1      -9.706   4.272 -32.002  1.00  0.00     0.185 C 
ENDROOT
BRANCH   1   2
HETATM    2  C   UNL     1     -10.082   2.820 -32.275  1.00  0.00     0.227 C 
HETATM    3  N   UNL     1      -9.106   1.927 -31.855  1.00  0.00    -0.358 N 
HETATM    4  H   UNL     1      -8.420   2.262 -31.189  1.00  0.00     0.162 HD
HETATM    5  O   UNL     1     -11.108   2.458 -32.846  1.00  0.00    -0.273 OA
BRANCH   3   6
HETATM    6  C   UNL     1      -9.295   0.489 -31.956  1.00  0.00     0.149 C 
BRANCH   6   7
HETATM    7  C   UNL     1      -8.797  -0.073 -33.289  1.00  0.00     0.195 C 
BRANCH   7   8
HETATM    8  O   UNL     1      -7.390   0.144 -33.370  1.00  0.00    -0.350 OA
BRANCH   8   9
HETATM    9  C   UNL     1      -6.606  -0.922 -33.719  1.00  0.00     0.069 A 
HETATM   10  C   UNL     1      -7.036  -2.092 -34.346  1.00  0.00     0.043 A 
HETATM   11  C   UNL     1      -6.123  -3.118 -34.644  1.00  0.00    -0.059 A 
HETATM   12  C   UNL     1      -6.572  -4.375 -35.330  1.00  0.00     0.048 C 
HETATM   13  C   UNL     1      -4.771  -2.950 -34.320  1.00  0.00     0.007 A 
HETATM   14  C   UNL     1      -4.339  -1.782 -33.697  1.00  0.00     0.003 A 
HETATM   15  C   UNL     1      -5.254  -0.774 -33.398  1.00  0.00     0.037 A 
ENDBRANCH   8   9
ENDBRANCH   7   8
ENDBRANCH   6   7
ENDBRANCH   3   6
ENDBRANCH   1   2
BRANCH   1  16
HETATM   16  S   UNL     1      -9.141   5.134 -33.493  1.00  0.00    -0.081 SA
BRANCH  16  17
HETATM   17  C   UNL     1      -7.555   4.470 -33.644  1.00  0.00     0.191 A 
HETATM   18  N   UNL     1      -6.412   5.138 -33.306  1.00  0.00    -0.312 N 
HETATM   19  C   UNL     1      -6.313   6.392 -32.605  1.00  0.00     0.160 C 
HETATM   20  C   UNL     1      -5.371   4.334 -33.725  1.00  0.00     0.164 A 
HETATM   21  N   UNL     1      -5.884   3.206 -34.188  1.00  0.00    -0.128 NA
HETATM   22  N   UNL     1      -7.255   3.297 -34.145  1.00  0.00    -0.122 NA
BRANCH  20  23
HETATM   23  C   UNL     1      -3.947   4.672 -33.667  1.00  0.00     0.018 A 
HETATM   24  C   UNL     1      -3.146   4.324 -32.558  1.00  0.00    -0.048 A 
HETATM   25  C   UNL     1      -3.706   3.574 -31.378  1.00  0.00     0.049 C 
HETATM   26  C   UNL     1      -1.780   4.656 -32.566  1.00  0.00     0.007 A 
HETATM   27  C   UNL     1      -1.212   5.327 -33.649  1.00  0.00     0.001 A 
HETATM   28  C   UNL     1      -1.997   5.664 -34.745  1.00  0.00     0.001 A 
HETATM   29  C   UNL     1      -3.353   5.333 -34.757  1.00  0.00     0.016 A 
ENDBRANCH  20  23
ENDBRANCH  16  17
ENDBRANCH   1  16
TORSDOF 8
ENDMDL
MODEL 6
REMARK VINA RESULT:      -8.4      5.924      8.868
REMARK  8 active torsions:
REMARK  status: ('A' for Active; 'I' for Inactive)
REMARK    1  A    between atoms: C_4  and  O_5 
REMARK    2  A    between atoms: O_5  and  C_6 
REMARK    3  A    between atoms: C_6  and  C_7 
REMARK    4  A    between atoms: C_7  and  N_8 
REMARK       I    between atoms: N_8  and  C_9 
REMARK    5  A    between atoms: C_9  and  C_10 
REMARK    6  A    between atoms: C_10  and  S_11 
REMARK    7  A    between atoms: S_11  and  C_12 
REMARK    8  A    between atoms: C_15  and  C_16 
ROOT
HETATM    1  C   UNL     1      -9.372   3.133 -30.621  1.00  0.00     0.185 C 
ENDROOT
BRANCH   1   2
HETATM    2  C   UNL     1     -10.497   4.095 -30.987  1.00  0.00     0.227 C 
HETATM    3  N   UNL     1     -11.639   3.895 -30.224  1.00  0.00    -0.358 N 
HETATM    4  H   UNL     1     -11.541   3.377 -29.360  1.00  0.00     0.162 HD
HETATM    5  O   UNL     1     -10.439   4.929 -31.886  1.00  0.00    -0.273 OA
BRANCH   3   6
HETATM    6  C   UNL     1     -12.805   4.753 -30.362  1.00  0.00     0.149 C 
BRANCH   6   7
HETATM    7  C   UNL     1     -13.935   4.081 -31.145  1.00  0.00     0.195 C 
BRANCH   7   8
HETATM    8  O   UNL     1     -13.742   4.353 -32.532  1.00  0.00    -0.350 OA
BRANCH   8   9
HETATM    9  C   UNL     1     -13.400   3.302 -33.339  1.00  0.00     0.069 A 
HETATM   10  C   UNL     1     -13.569   1.947 -33.046  1.00  0.00     0.043 A 
HETATM   11  C   UNL     1     -13.167   0.963 -33.965  1.00  0.00    -0.059 A 
HETATM   12  C   UNL     1     -13.356  -0.495 -33.667  1.00  0.00     0.048 C 
HETATM   13  C   UNL     1     -12.607   1.354 -35.188  1.00  0.00     0.007 A 
HETATM   14  C   UNL     1     -12.439   2.704 -35.484  1.00  0.00     0.003 A 
HETATM   15  C   UNL     1     -12.834   3.672 -34.561  1.00  0.00     0.037 A 
ENDBRANCH   8   9
ENDBRANCH   7   8
ENDBRANCH   6   7
ENDBRANCH   3   6
ENDBRANCH   1   2
BRANCH   1  16
HETATM   16  S   UNL     1      -7.846   3.469 -31.540  1.00  0.00    -0.081 SA
BRANCH  16  17
HETATM   17  C   UNL     1      -7.172   1.881 -31.600  1.00  0.00     0.191 A 
HETATM   18  N   UNL     1      -6.789   1.257 -32.753  1.00  0.00    -0.312 N 
HETATM   19  C   UNL     1      -6.690   1.841 -34.065  1.00  0.00     0.160 C 
HETATM   20  C   UNL     1      -6.462  -0.034 -32.389  1.00  0.00     0.164 A 
HETATM   21  N   UNL     1      -6.550  -0.123 -31.072  1.00  0.00    -0.128 NA
HETATM   22  N   UNL     1      -7.005   1.076 -30.579  1.00  0.00    -0.122 NA
BRANCH  20  23
HETATM   23  C   UNL     1      -6.085  -1.115 -33.302  1.00  0.00     0.018 A 
HETATM   24  C   UNL     1      -4.734  -1.407 -33.588  1.00  0.00    -0.048 A 
HETATM   25  C   UNL     1      -3.604  -0.633 -32.962  1.00  0.00     0.049 C 
HETATM   26  C   UNL     1      -4.431  -2.470 -34.457  1.00  0.00     0.007 A 
HETATM   27  C   UNL     1      -5.443  -3.231 -35.041  1.00  0.00     0.001 A 
HETATM   28  C   UNL     1      -6.774  -2.951 -34.754  1.00  0.00     0.001 A 
HETATM   29  C   UNL     1      -7.092  -1.905 -33.885  1.00  0.00     0.016 A 
ENDBRANCH  20  23
ENDBRANCH  16  17
ENDBRANCH   1  16
TORSDOF 8
ENDMDL
MODEL 7
REMARK VINA RESULT:      -8.3      2.465      3.363
REMARK  8 active torsions:
REMARK  status: ('A' for Active; 'I' for Inactive)
REMARK    1  A    between atoms: C_4  and  O_5 
REMARK    2  A    between atoms: O_5  and  C_6 
REMARK    3  A    between atoms: C_6  and  C_7 
REMARK    4  A    between atoms: C_7  and  N_8 
REMARK       I    between atoms: N_8  and  C_9 
REMARK    5  A    between atoms: C_9  and  C_10 
REMARK    6  A    between atoms: C_10  and  S_11 
REMARK    7  A    between atoms: S_11  and  C_12 
REMARK    8  A    between atoms: C_15  and  C_16 
ROOT
HETATM    1  C   UNL     1      -6.984   3.309 -30.454  1.00  0.00     0.185 C 
ENDROOT
BRANCH   1   2
HETATM    2  C   UNL     1      -6.375   1.911 -30.430  1.00  0.00     0.227 C 
HETATM    3  N   UNL     1      -6.490   1.258 -31.649  1.00  0.00    -0.358 N 
HETATM    4  H   UNL     1      -6.681   1.822 -32.467  1.00  0.00     0.162 HD
HETATM    5  O   UNL     1      -5.876   1.383 -29.440  1.00  0.00    -0.273 OA
BRANCH   3   6
HETATM    6  C   UNL     1      -5.911  -0.059 -31.863  1.00  0.00     0.149 C 
BRANCH   6   7
HETATM    7  C   UNL     1      -5.113  -0.141 -33.166  1.00  0.00     0.195 C 
BRANCH   7   8
HETATM    8  O   UNL     1      -5.914  -0.805 -34.141  1.00  0.00    -0.350 OA
BRANCH   8   9
HETATM    9  C   UNL     1      -5.720  -2.149 -34.308  1.00  0.00     0.069 A 
HETATM   10  C   UNL     1      -4.552  -2.856 -34.021  1.00  0.00     0.043 A 
HETATM   11  C   UNL     1      -4.483  -4.242 -34.247  1.00  0.00    -0.059 A 
HETATM   12  C   UNL     1      -3.237  -5.015 -33.929  1.00  0.00     0.048 C 
HETATM   13  C   UNL     1      -5.605  -4.912 -34.748  1.00  0.00     0.007 A 
HETATM   14  C   UNL     1      -6.773  -4.210 -35.033  1.00  0.00     0.003 A 
HETATM   15  C   UNL     1      -6.828  -2.834 -34.814  1.00  0.00     0.037 A 
ENDBRANCH   8   9
ENDBRANCH   7   8
ENDBRANCH   6   7
ENDBRANCH   3   6
ENDBRANCH   1   2
BRANCH   1  16
HETATM   16  S   UNL     1      -6.737   4.144 -32.044  1.00  0.00    -0.081 SA
BRANCH  16  17
HETATM   17  C   UNL     1      -5.016   4.067 -32.164  1.00  0.00     0.191 A 
HETATM   18  N   UNL     1      -4.169   4.956 -31.567  1.00  0.00    -0.312 N 
HETATM   19  C   UNL     1      -4.511   5.970 -30.603  1.00  0.00     0.160 C 
HETATM   20  C   UNL     1      -2.908   4.644 -32.035  1.00  0.00     0.164 A 
HETATM   21  N   UNL     1      -3.007   3.558 -32.785  1.00  0.00    -0.128 NA
HETATM   22  N   UNL     1      -4.331   3.203 -32.873  1.00  0.00    -0.122 NA
BRANCH  20  23
HETATM   23  C   UNL     1      -1.677   5.385 -31.751  1.00  0.00     0.018 A 
HETATM   24  C   UNL     1      -1.294   6.507 -32.516  1.00  0.00    -0.048 A 
HETATM   25  C   UNL     1      -2.134   7.015 -33.657  1.00  0.00     0.049 C 
HETATM   26  C   UNL     1      -0.111   7.192 -32.185  1.00  0.00     0.007 A 
HETATM   27  C   UNL     1       0.685   6.774 -31.119  1.00  0.00     0.001 A 
HETATM   28  C   UNL     1       0.306   5.673 -30.360  1.00  0.00     0.001 A 
HETATM   29  C   UNL     1      -0.871   4.988 -30.669  1.00  0.00     0.016 A 
ENDBRANCH  20  23
ENDBRANCH  16  17
ENDBRANCH   1  16
TORSDOF 8
ENDMDL
MODEL 8
REMARK VINA RESULT:      -8.3      3.100      4.128
REMARK  8 active torsions:
REMARK  status: ('A' for Active; 'I' for Inactive)
REMARK    1  A    between atoms: C_4  and  O_5 
REMARK    2  A    between atoms: O_5  and  C_6 
REMARK    3  A    between atoms: C_6  and  C_7 
REMARK    4  A    between atoms: C_7  and  N_8 
REMARK       I    between atoms: N_8  and  C_9 
REMARK    5  A    between atoms: C_9  and  C_10 
REMARK    6  A    between atoms: C_10  and  S_11 
REMARK    7  A    between atoms: S_11  and  C_12 
REMARK    8  A    between atoms: C_15  and  C_16 
ROOT
HETATM    1  C   UNL     1      -8.909   4.339 -31.521  1.00  0.00     0.185 C 
ENDROOT
BRANCH   1   2
HETATM    2  C   UNL     1      -8.760   3.503 -32.788  1.00  0.00     0.227 C 
HETATM    3  N   UNL     1      -9.224   2.205 -32.629  1.00  0.00    -0.358 N 
HETATM    4  H   UNL     1      -9.844   2.021 -31.849  1.00  0.00     0.162 HD
HETATM    5  O   UNL     1      -8.247   3.900 -33.831  1.00  0.00    -0.273 OA
BRANCH   3   6
HETATM    6  C   UNL     1      -9.242   1.263 -33.736  1.00  0.00     0.149 C 
BRANCH   6   7
HETATM    7  C   UNL     1      -8.492  -0.031 -33.413  1.00  0.00     0.195 C 
BRANCH   7   8
HETATM    8  O   UNL     1      -7.130   0.132 -33.802  1.00  0.00    -0.350 OA
BRANCH   8   9
HETATM    9  C   UNL     1      -6.396  -1.002 -34.022  1.00  0.00     0.069 A 
HETATM   10  C   UNL     1      -6.858  -2.183 -34.607  1.00  0.00     0.043 A 
HETATM   11  C   UNL     1      -5.997  -3.282 -34.769  1.00  0.00    -0.059 A 
HETATM   12  C   UNL     1      -6.479  -4.552 -35.408  1.00  0.00     0.048 C 
HETATM   13  C   UNL     1      -4.665  -3.178 -34.352  1.00  0.00     0.007 A 
HETATM   14  C   UNL     1      -4.200  -2.001 -33.771  1.00  0.00     0.003 A 
HETATM   15  C   UNL     1      -5.065  -0.920 -33.607  1.00  0.00     0.037 A 
ENDBRANCH   8   9
ENDBRANCH   7   8
ENDBRANCH   6   7
ENDBRANCH   3   6
ENDBRANCH   1   2
BRANCH   1  16
HETATM   16  S   UNL     1      -7.970   3.657 -30.128  1.00  0.00    -0.081 SA
BRANCH  16  17
HETATM   17  C   UNL     1      -6.460   3.344 -30.905  1.00  0.00     0.191 A 
HETATM   18  N   UNL     1      -5.544   4.309 -31.212  1.00  0.00    -0.312 N 
HETATM   19  C   UNL     1      -5.561   5.688 -30.794  1.00  0.00     0.160 C 
HETATM   20  C   UNL     1      -4.569   3.677 -31.957  1.00  0.00     0.164 A 
HETATM   21  N   UNL     1      -4.852   2.385 -31.991  1.00  0.00    -0.128 NA
HETATM   22  N   UNL     1      -6.043   2.179 -31.338  1.00  0.00    -0.122 NA
BRANCH  20  23
HETATM   23  C   UNL     1      -3.423   4.325 -32.599  1.00  0.00     0.018 A 
HETATM   24  C   UNL     1      -3.515   4.886 -33.890  1.00  0.00    -0.048 A 
HETATM   25  C   UNL     1      -4.799   4.865 -34.676  1.00  0.00     0.049 C 
HETATM   26  C   UNL     1      -2.386   5.512 -34.448  1.00  0.00     0.007 A 
HETATM   27  C   UNL     1      -1.183   5.579 -33.747  1.00  0.00     0.001 A 
HETATM   28  C   UNL     1      -1.092   5.034 -32.471  1.00  0.00     0.001 A 
HETATM   29  C   UNL     1      -2.206   4.417 -31.899  1.00  0.00     0.016 A 
ENDBRANCH  20  23
ENDBRANCH  16  17
ENDBRANCH   1  16
TORSDOF 8
ENDMDL
MODEL 9
REMARK VINA RESULT:      -8.1      2.246      9.759
REMARK  8 active torsions:
REMARK  status: ('A' for Active; 'I' for Inactive)
REMARK    1  A    between atoms: C_4  and  O_5 
REMARK    2  A    between atoms: O_5  and  C_6 
REMARK    3  A    between atoms: C_6  and  C_7 
REMARK    4  A    between atoms: C_7  and  N_8 
REMARK       I    between atoms: N_8  and  C_9 
REMARK    5  A    between atoms: C_9  and  C_10 
REMARK    6  A    between atoms: C_10  and  S_11 
REMARK    7  A    between atoms: S_11  and  C_12 
REMARK    8  A    between atoms: C_15  and  C_16 
ROOT
HETATM    1  C   UNL     1      -6.513   4.302 -33.023  1.00  0.00     0.185 C 
ENDROOT
BRANCH   1   2
HETATM    2  C   UNL     1      -5.251   4.836 -32.354  1.00  0.00     0.227 C 
HETATM    3  N   UNL     1      -4.611   5.802 -33.118  1.00  0.00    -0.358 N 
HETATM    4  H   UNL     1      -5.146   6.251 -33.851  1.00  0.00     0.162 HD
HETATM    5  O   UNL     1      -4.806   4.437 -31.282  1.00  0.00    -0.273 OA
BRANCH   3   6
HETATM    6  C   UNL     1      -3.428   6.494 -32.632  1.00  0.00     0.149 C 
BRANCH   6   7
HETATM    7  C   UNL     1      -2.131   5.801 -33.054  1.00  0.00     0.195 C 
BRANCH   7   8
HETATM    8  O   UNL     1      -1.037   6.647 -32.706  1.00  0.00    -0.350 OA
BRANCH   8   9
HETATM    9  C   UNL     1      -0.472   6.473 -31.471  1.00  0.00     0.069 A 
HETATM   10  C   UNL     1      -0.234   7.470 -30.525  1.00  0.00     0.043 A 
HETATM   11  C   UNL     1       0.362   7.156 -29.291  1.00  0.00    -0.059 A 
HETATM   12  C   UNL     1       0.610   8.218 -28.261  1.00  0.00     0.048 C 
HETATM   13  C   UNL     1       0.702   5.827 -29.013  1.00  0.00     0.007 A 
HETATM   14  C   UNL     1       0.464   4.829 -29.954  1.00  0.00     0.003 A 
HETATM   15  C   UNL     1      -0.120   5.153 -31.178  1.00  0.00     0.037 A 
ENDBRANCH   8   9
ENDBRANCH   7   8
ENDBRANCH   6   7
ENDBRANCH   3   6
ENDBRANCH   1   2
BRANCH   1  16
HETATM   16  S   UNL     1      -7.266   2.940 -32.094  1.00  0.00    -0.081 SA
BRANCH  16  17
HETATM   17  C   UNL     1      -7.088   1.658 -33.236  1.00  0.00     0.191 A 
HETATM   18  N   UNL     1      -6.739   0.380 -32.902  1.00  0.00    -0.312 N 
HETATM   19  C   UNL     1      -6.648  -0.178 -31.577  1.00  0.00     0.160 C 
HETATM   20  C   UNL     1      -6.548  -0.281 -34.098  1.00  0.00     0.164 A 
HETATM   21  N   UNL     1      -6.873   0.545 -35.079  1.00  0.00    -0.128 NA
HETATM   22  N   UNL     1      -7.203   1.764 -34.537  1.00  0.00    -0.122 NA
BRANCH  20  23
HETATM   23  C   UNL     1      -6.068  -1.656 -34.254  1.00  0.00     0.018 A 
HETATM   24  C   UNL     1      -4.732  -2.012 -33.973  1.00  0.00    -0.048 A 
HETATM   25  C   UNL     1      -3.727  -1.003 -33.485  1.00  0.00     0.049 C 
HETATM   26  C   UNL     1      -4.333  -3.352 -34.122  1.00  0.00     0.007 A 
HETATM   27  C   UNL     1      -5.235  -4.327 -34.547  1.00  0.00     0.001 A 
HETATM   28  C   UNL     1      -6.554  -3.980 -34.816  1.00  0.00     0.001 A 
HETATM   29  C   UNL     1      -6.969  -2.656 -34.664  1.00  0.00     0.016 A 
ENDBRANCH  20  23
ENDBRANCH  16  17
ENDBRANCH   1  16
TORSDOF 8
ENDMDL
MODEL 10
REMARK VINA RESULT:      -8.1      2.048      2.633
REMARK  8 active torsions:
REMARK  status: ('A' for Active; 'I' for Inactive)
REMARK    1  A    between atoms: C_4  and  O_5 
REMARK    2  A    between atoms: O_5  and  C_6 
REMARK    3  A    between atoms: C_6  and  C_7 
REMARK    4  A    between atoms: C_7  and  N_8 
REMARK       I    between atoms: N_8  and  C_9 
REMARK    5  A    between atoms: C_9  and  C_10 
REMARK    6  A    between atoms: C_10  and  S_11 
REMARK    7  A    between atoms: S_11  and  C_12 
REMARK    8  A    between atoms: C_15  and  C_16 
ROOT
HETATM    1  C   UNL     1      -7.543   4.205 -33.811  1.00  0.00     0.185 C 
ENDROOT
BRANCH   1   2
HETATM    2  C   UNL     1      -8.601   3.132 -33.576  1.00  0.00     0.227 C 
HETATM    3  N   UNL     1      -8.368   1.982 -34.318  1.00  0.00    -0.358 N 
HETATM    4  H   UNL     1      -7.437   1.845 -34.690  1.00  0.00     0.162 HD
HETATM    5  O   UNL     1      -9.585   3.266 -32.853  1.00  0.00    -0.273 OA
BRANCH   3   6
HETATM    6  C   UNL     1      -9.217   0.809 -34.189  1.00  0.00     0.149 C 
BRANCH   6   7
HETATM    7  C   UNL     1      -8.684  -0.187 -33.157  1.00  0.00     0.195 C 
BRANCH   7   8
HETATM    8  O   UNL     1      -7.265  -0.059 -33.102  1.00  0.00    -0.350 OA
BRANCH   8   9
HETATM    9  C   UNL     1      -6.518  -1.102 -33.578  1.00  0.00     0.069 A 
HETATM   10  C   UNL     1      -7.003  -2.225 -34.251  1.00  0.00     0.043 A 
HETATM   11  C   UNL     1      -6.123  -3.232 -34.684  1.00  0.00    -0.059 A 
HETATM   12  C   UNL     1      -6.632  -4.437 -35.420  1.00  0.00     0.048 C 
HETATM   13  C   UNL     1      -4.750  -3.093 -34.447  1.00  0.00     0.007 A 
HETATM   14  C   UNL     1      -4.263  -1.973 -33.778  1.00  0.00     0.003 A 
HETATM   15  C   UNL     1      -5.146  -0.984 -33.345  1.00  0.00     0.037 A 
ENDBRANCH   8   9
ENDBRANCH   7   8
ENDBRANCH   6   7
ENDBRANCH   3   6
ENDBRANCH   1   2
BRANCH   1  16
HETATM   16  S   UNL     1      -6.941   4.933 -32.264  1.00  0.00    -0.081 SA
BRANCH  16  17
HETATM   17  C   UNL     1      -5.241   4.710 -32.467  1.00  0.00     0.191 A 
HETATM   18  N   UNL     1      -4.294   5.284 -31.666  1.00  0.00    -0.312 N 
HETATM   19  C   UNL     1      -4.514   5.994 -30.433  1.00  0.00     0.160 C 
HETATM   20  C   UNL     1      -3.080   4.992 -32.254  1.00  0.00     0.164 A 
HETATM   21  N   UNL     1      -3.305   4.198 -33.288  1.00  0.00    -0.128 NA
HETATM   22  N   UNL     1      -4.662   4.030 -33.426  1.00  0.00    -0.122 NA
BRANCH  20  23
HETATM   23  C   UNL     1      -1.771   5.478 -31.811  1.00  0.00     0.018 A 
HETATM   24  C   UNL     1      -1.195   6.650 -32.345  1.00  0.00    -0.048 A 
HETATM   25  C   UNL     1      -1.898   7.476 -33.389  1.00  0.00     0.049 C 
HETATM   26  C   UNL     1       0.056   7.080 -31.867  1.00  0.00     0.007 A 
HETATM   27  C   UNL     1       0.732   6.362 -30.881  1.00  0.00     0.001 A 
HETATM   28  C   UNL     1       0.163   5.211 -30.348  1.00  0.00     0.001 A 
HETATM   29  C   UNL     1      -1.082   4.776 -30.805  1.00  0.00     0.016 A 
ENDBRANCH  20  23
ENDBRANCH  16  17
ENDBRANCH   1  16
TORSDOF 8
ENDMDL
