MODEL 1
REMARK VINA RESULT:      -8.7      0.000      0.000
REMARK  2 active torsions:
REMARK  status: ('A' for Active; 'I' for Inactive)
REMARK    1  A    between atoms: C_15  and  C_16 
REMARK    2  A    between atoms: C_19  and  O_20 
ROOT
HETATM    1  C   UNL     1      -6.743  -2.654 -34.246  1.00  0.00     0.048 C 
HETATM    2  C   UNL     1      -6.652  -1.156 -34.242  1.00  0.00    -0.061 A 
HETATM    3  C   UNL     1      -5.703  -0.496 -33.439  1.00  0.00     0.021 A 
HETATM    4  C   UNL     1      -5.645   0.913 -33.438  1.00  0.00    -0.000 A 
HETATM    5  C   UNL     1      -6.540   1.618 -34.253  1.00  0.00     0.043 A 
HETATM    6  N   UNL     1      -6.279   2.962 -34.093  1.00  0.00    -0.353 N 
HETATM    7  H   UNL     1      -6.752   3.715 -34.575  1.00  0.00     0.166 HD
HETATM    8  C   UNL     1      -5.305   3.123 -33.157  1.00  0.00     0.066 A 
HETATM    9  C   UNL     1      -4.843   1.882 -32.767  1.00  0.00    -0.017 A 
HETATM   10  C   UNL     1      -3.695   1.738 -31.805  1.00  0.00     0.043 C 
HETATM   11  C   UNL     1      -2.953   3.102 -31.575  1.00  0.00     0.018 C 
HETATM   12  C   UNL     1      -3.976   4.236 -31.362  1.00  0.00     0.065 C 
HETATM   13  C   UNL     1      -4.726   4.325 -32.666  1.00  0.00     0.082 C 
HETATM   14  N   UNL     1      -4.653   5.432 -33.328  1.00  0.00    -0.203 NA
HETATM   15  C   UNL     1      -3.612   5.720 -31.233  1.00  0.00     0.121 C 
HETATM   16  N   UNL     1      -3.833   6.243 -32.602  1.00  0.00    -0.207 NA
HETATM   17  C   UNL     1      -7.490   0.984 -35.059  1.00  0.00     0.031 A 
HETATM   18  C   UNL     1      -7.532  -0.412 -35.035  1.00  0.00     0.009 A 
HETATM   19  H   UNL     1      -2.936   6.332 -33.087  1.00  0.00     0.149 HD
ENDROOT
BRANCH  15  20
HETATM   20  C   UNL     1      -2.347   6.201 -30.556  1.00  0.00    -0.038 A 
HETATM   21  C   UNL     1      -2.373   6.930 -29.361  1.00  0.00     0.011 A 
HETATM   22  C   UNL     1      -1.202   7.487 -28.831  1.00  0.00     0.037 A 
HETATM   23  C   UNL     1       0.017   7.366 -29.500  1.00  0.00     0.068 A 
HETATM   24  C   UNL     1       0.062   6.649 -30.691  1.00  0.00     0.037 A 
HETATM   25  C   UNL     1      -1.106   6.085 -31.214  1.00  0.00     0.011 A 
BRANCH  23  26
HETATM   26  O   UNL     1       1.075   7.993 -28.904  1.00  0.00    -0.356 OA
HETATM   27  C   UNL     1       1.108   7.962 -27.481  1.00  0.00     0.210 C 
ENDBRANCH  23  26
ENDBRANCH  15  20
TORSDOF 2
ENDMDL
MODEL 2
REMARK VINA RESULT:      -8.7      3.407      4.470
REMARK  2 active torsions:
REMARK  status: ('A' for Active; 'I' for Inactive)
REMARK    1  A    between atoms: C_15  and  C_16 
REMARK    2  A    between atoms: C_19  and  O_20 
ROOT
HETATM    1  C   UNL     1      -6.746  -4.549 -35.471  1.00  0.00     0.048 C 
HETATM    2  C   UNL     1      -5.838  -3.616 -34.726  1.00  0.00    -0.061 A 
HETATM    3  C   UNL     1      -6.214  -2.280 -34.493  1.00  0.00     0.021 A 
HETATM    4  C   UNL     1      -5.340  -1.414 -33.804  1.00  0.00    -0.000 A 
HETATM    5  C   UNL     1      -4.112  -1.923 -33.360  1.00  0.00     0.043 A 
HETATM    6  N   UNL     1      -3.451  -0.905 -32.709  1.00  0.00    -0.353 N 
HETATM    7  H   UNL     1      -2.549  -0.981 -32.259  1.00  0.00     0.166 HD
HETATM    8  C   UNL     1      -4.188   0.236 -32.792  1.00  0.00     0.066 A 
HETATM    9  C   UNL     1      -5.390  -0.046 -33.410  1.00  0.00    -0.017 A 
HETATM   10  C   UNL     1      -6.458   1.003 -33.564  1.00  0.00     0.043 C 
HETATM   11  C   UNL     1      -6.152   2.278 -32.702  1.00  0.00     0.018 C 
HETATM   12  C   UNL     1      -4.673   2.684 -32.857  1.00  0.00     0.065 C 
HETATM   13  C   UNL     1      -3.897   1.529 -32.277  1.00  0.00     0.082 C 
HETATM   14  N   UNL     1      -3.151   1.762 -31.248  1.00  0.00    -0.203 NA
HETATM   15  C   UNL     1      -3.993   3.807 -32.063  1.00  0.00     0.121 C 
HETATM   16  N   UNL     1      -3.323   3.082 -30.958  1.00  0.00    -0.207 NA
HETATM   17  C   UNL     1      -3.718  -3.247 -33.578  1.00  0.00     0.031 A 
HETATM   18  C   UNL     1      -4.599  -4.080 -34.272  1.00  0.00     0.009 A 
HETATM   19  H   UNL     1      -3.879   3.166 -30.102  1.00  0.00     0.149 HD
ENDROOT
BRANCH  15  20
HETATM   20  C   UNL     1      -4.708   5.078 -31.661  1.00  0.00    -0.038 A 
HETATM   21  C   UNL     1      -4.904   5.429 -30.321  1.00  0.00     0.011 A 
HETATM   22  C   UNL     1      -5.692   6.535 -29.973  1.00  0.00     0.037 A 
HETATM   23  C   UNL     1      -6.337   7.292 -30.952  1.00  0.00     0.068 A 
HETATM   24  C   UNL     1      -6.158   6.955 -32.290  1.00  0.00     0.037 A 
HETATM   25  C   UNL     1      -5.362   5.858 -32.636  1.00  0.00     0.011 A 
BRANCH  23  26
HETATM   26  O   UNL     1      -7.114   8.314 -30.482  1.00  0.00    -0.356 OA
HETATM   27  C   UNL     1      -7.323   8.352 -29.074  1.00  0.00     0.210 C 
ENDBRANCH  23  26
ENDBRANCH  15  20
TORSDOF 2
ENDMDL
MODEL 3
REMARK VINA RESULT:      -8.5      1.824      3.297
REMARK  2 active torsions:
REMARK  status: ('A' for Active; 'I' for Inactive)
REMARK    1  A    between atoms: C_15  and  C_16 
REMARK    2  A    between atoms: C_19  and  O_20 
ROOT
HETATM    1  C   UNL     1      -3.766  -5.262 -33.841  1.00  0.00     0.048 C 
HETATM    2  C   UNL     1      -4.534  -3.985 -34.015  1.00  0.00    -0.061 A 
HETATM    3  C   UNL     1      -4.072  -2.784 -33.444  1.00  0.00     0.021 A 
HETATM    4  C   UNL     1      -4.817  -1.598 -33.606  1.00  0.00    -0.000 A 
HETATM    5  C   UNL     1      -6.005  -1.653 -34.347  1.00  0.00     0.043 A 
HETATM    6  N   UNL     1      -6.536  -0.382 -34.376  1.00  0.00    -0.353 N 
HETATM    7  H   UNL     1      -7.381  -0.108 -34.860  1.00  0.00     0.166 HD
HETATM    8  C   UNL     1      -5.762   0.447 -33.624  1.00  0.00     0.066 A 
HETATM    9  C   UNL     1      -4.658  -0.249 -33.176  1.00  0.00    -0.017 A 
HETATM   10  C   UNL     1      -3.568   0.430 -32.390  1.00  0.00     0.043 C 
HETATM   11  C   UNL     1      -3.710   1.992 -32.428  1.00  0.00     0.018 C 
HETATM   12  C   UNL     1      -5.177   2.401 -32.186  1.00  0.00     0.065 C 
HETATM   13  C   UNL     1      -5.930   1.834 -33.362  1.00  0.00     0.082 C 
HETATM   14  N   UNL     1      -6.537   2.664 -34.145  1.00  0.00    -0.203 NA
HETATM   15  C   UNL     1      -5.704   3.838 -32.278  1.00  0.00     0.121 C 
HETATM   16  N   UNL     1      -6.271   3.904 -33.646  1.00  0.00    -0.207 NA
HETATM   17  C   UNL     1      -6.483  -2.833 -34.923  1.00  0.00     0.031 A 
HETATM   18  C   UNL     1      -5.730  -3.996 -34.740  1.00  0.00     0.009 A 
HETATM   19  H   UNL     1      -5.613   4.381 -34.269  1.00  0.00     0.149 HD
ENDROOT
BRANCH  15  20
HETATM   20  C   UNL     1      -4.889   5.042 -31.859  1.00  0.00    -0.038 A 
HETATM   21  C   UNL     1      -4.103   5.762 -32.766  1.00  0.00     0.011 A 
HETATM   22  C   UNL     1      -3.247   6.781 -32.329  1.00  0.00     0.037 A 
HETATM   23  C   UNL     1      -3.123   7.079 -30.971  1.00  0.00     0.068 A 
HETATM   24  C   UNL     1      -3.892   6.372 -30.053  1.00  0.00     0.037 A 
HETATM   25  C   UNL     1      -4.754   5.362 -30.493  1.00  0.00     0.011 A 
BRANCH  23  26
HETATM   26  O   UNL     1      -2.220   8.061 -30.670  1.00  0.00    -0.356 OA
HETATM   27  C   UNL     1      -0.976   7.630 -30.127  1.00  0.00     0.210 C 
ENDBRANCH  23  26
ENDBRANCH  15  20
TORSDOF 2
ENDMDL
MODEL 4
REMARK VINA RESULT:      -8.2      3.873      8.888
REMARK  2 active torsions:
REMARK  status: ('A' for Active; 'I' for Inactive)
REMARK    1  A    between atoms: C_15  and  C_16 
REMARK    2  A    between atoms: C_19  and  O_20 
ROOT
HETATM    1  C   UNL     1      -2.852   9.283 -30.151  1.00  0.00     0.048 C 
HETATM    2  C   UNL     1      -3.573   8.012 -29.808  1.00  0.00    -0.061 A 
HETATM    3  C   UNL     1      -3.626   6.946 -30.725  1.00  0.00     0.021 A 
HETATM    4  C   UNL     1      -4.321   5.766 -30.389  1.00  0.00    -0.000 A 
HETATM    5  C   UNL     1      -4.938   5.691 -29.133  1.00  0.00     0.043 A 
HETATM    6  N   UNL     1      -5.531   4.451 -29.035  1.00  0.00    -0.353 N 
HETATM    7  H   UNL     1      -6.032   4.099 -28.229  1.00  0.00     0.166 HD
HETATM    8  C   UNL     1      -5.368   3.779 -30.207  1.00  0.00     0.066 A 
HETATM    9  C   UNL     1      -4.577   4.531 -31.052  1.00  0.00    -0.017 A 
HETATM   10  C   UNL     1      -4.143   4.006 -32.395  1.00  0.00     0.043 C 
HETATM   11  C   UNL     1      -4.439   2.473 -32.544  1.00  0.00     0.018 C 
HETATM   12  C   UNL     1      -5.857   2.150 -32.034  1.00  0.00     0.065 C 
HETATM   13  C   UNL     1      -5.818   2.478 -30.563  1.00  0.00     0.082 C 
HETATM   14  N   UNL     1      -6.031   1.517 -29.726  1.00  0.00    -0.203 NA
HETATM   15  C   UNL     1      -6.436   0.735 -31.913  1.00  0.00     0.121 C 
HETATM   16  N   UNL     1      -6.218   0.401 -30.485  1.00  0.00    -0.207 NA
HETATM   17  C   UNL     1      -4.899   6.737 -28.207  1.00  0.00     0.031 A 
HETATM   18  C   UNL     1      -4.211   7.897 -28.568  1.00  0.00     0.009 A 
HETATM   19  H   UNL     1      -5.398  -0.206 -30.394  1.00  0.00     0.149 HD
ENDROOT
BRANCH  15  20
HETATM   20  C   UNL     1      -6.112  -0.373 -32.891  1.00  0.00    -0.038 A 
HETATM   21  C   UNL     1      -7.085  -0.942 -33.720  1.00  0.00     0.011 A 
HETATM   22  C   UNL     1      -6.792  -2.061 -34.512  1.00  0.00     0.037 A 
HETATM   23  C   UNL     1      -5.534  -2.663 -34.465  1.00  0.00     0.068 A 
HETATM   24  C   UNL     1      -4.555  -2.115 -33.643  1.00  0.00     0.037 A 
HETATM   25  C   UNL     1      -4.846  -0.991 -32.861  1.00  0.00     0.011 A 
BRANCH  23  26
HETATM   26  O   UNL     1      -5.390  -3.775 -35.247  1.00  0.00    -0.356 OA
HETATM   27  C   UNL     1      -6.539  -4.604 -35.385  1.00  0.00     0.210 C 
ENDBRANCH  23  26
ENDBRANCH  15  20
TORSDOF 2
ENDMDL
MODEL 5
REMARK VINA RESULT:      -8.1      5.685      8.748
REMARK  2 active torsions:
REMARK  status: ('A' for Active; 'I' for Inactive)
REMARK    1  A    between atoms: C_15  and  C_16 
REMARK    2  A    between atoms: C_19  and  O_20 
ROOT
HETATM    1  C   UNL     1      -8.789   7.096 -27.885  1.00  0.00     0.048 C 
HETATM    2  C   UNL     1      -8.924   6.393 -29.204  1.00  0.00    -0.061 A 
HETATM    3  C   UNL     1      -8.264   5.173 -29.440  1.00  0.00     0.021 A 
HETATM    4  C   UNL     1      -8.392   4.536 -30.691  1.00  0.00    -0.000 A 
HETATM    5  C   UNL     1      -9.191   5.144 -31.669  1.00  0.00     0.043 A 
HETATM    6  N   UNL     1      -9.172   4.334 -32.784  1.00  0.00    -0.353 N 
HETATM    7  H   UNL     1      -9.678   4.502 -33.643  1.00  0.00     0.166 HD
HETATM    8  C   UNL     1      -8.338   3.282 -32.562  1.00  0.00     0.066 A 
HETATM    9  C   UNL     1      -7.878   3.336 -31.262  1.00  0.00    -0.017 A 
HETATM   10  C   UNL     1      -7.005   2.250 -30.693  1.00  0.00     0.043 C 
HETATM   11  C   UNL     1      -6.958   0.990 -31.626  1.00  0.00     0.018 C 
HETATM   12  C   UNL     1      -6.763   1.420 -33.094  1.00  0.00     0.065 C 
HETATM   13  C   UNL     1      -8.004   2.206 -33.430  1.00  0.00     0.082 C 
HETATM   14  N   UNL     1      -8.766   1.755 -34.372  1.00  0.00    -0.203 NA
HETATM   15  C   UNL     1      -6.797   0.462 -34.291  1.00  0.00     0.121 C 
HETATM   16  N   UNL     1      -8.184   0.598 -34.795  1.00  0.00    -0.207 NA
HETATM   17  C   UNL     1      -9.857   6.355 -31.458  1.00  0.00     0.031 A 
HETATM   18  C   UNL     1      -9.705   6.969 -30.212  1.00  0.00     0.009 A 
HETATM   19  H   UNL     1      -8.747  -0.195 -34.475  1.00  0.00     0.149 HD
ENDROOT
BRANCH  15  20
HETATM   20  C   UNL     1      -6.271  -0.955 -34.225  1.00  0.00    -0.038 A 
HETATM   21  C   UNL     1      -4.955  -1.244 -33.846  1.00  0.00     0.011 A 
HETATM   22  C   UNL     1      -4.451  -2.549 -33.931  1.00  0.00     0.037 A 
HETATM   23  C   UNL     1      -5.233  -3.589 -34.436  1.00  0.00     0.068 A 
HETATM   24  C   UNL     1      -6.541  -3.320 -34.822  1.00  0.00     0.037 A 
HETATM   25  C   UNL     1      -7.047  -2.020 -34.726  1.00  0.00     0.011 A 
BRANCH  23  26
HETATM   26  O   UNL     1      -4.610  -4.803 -34.512  1.00  0.00    -0.356 OA
HETATM   27  C   UNL     1      -3.390  -4.934 -33.788  1.00  0.00     0.210 C 
ENDBRANCH  23  26
ENDBRANCH  15  20
TORSDOF 2
ENDMDL
MODEL 6
REMARK VINA RESULT:      -8.1      4.163      6.007
REMARK  2 active torsions:
REMARK  status: ('A' for Active; 'I' for Inactive)
REMARK    1  A    between atoms: C_15  and  C_16 
REMARK    2  A    between atoms: C_19  and  O_20 
ROOT
HETATM    1  C   UNL     1     -15.648   2.634 -32.178  1.00  0.00     0.048 C 
HETATM    2  C   UNL     1     -14.381   2.225 -32.871  1.00  0.00    -0.061 A 
HETATM    3  C   UNL     1     -13.136   2.721 -32.444  1.00  0.00     0.021 A 
HETATM    4  C   UNL     1     -11.959   2.336 -33.119  1.00  0.00    -0.000 A 
HETATM    5  C   UNL     1     -12.070   1.453 -34.201  1.00  0.00     0.043 A 
HETATM    6  N   UNL     1     -10.798   1.218 -34.678  1.00  0.00    -0.353 N 
HETATM    7  H   UNL     1     -10.561   0.599 -35.442  1.00  0.00     0.166 HD
HETATM    8  C   UNL     1      -9.908   1.974 -33.980  1.00  0.00     0.066 A 
HETATM    9  C   UNL     1     -10.574   2.638 -32.969  1.00  0.00    -0.017 A 
HETATM   10  C   UNL     1      -9.836   3.485 -31.968  1.00  0.00     0.043 C 
HETATM   11  C   UNL     1      -8.285   3.264 -32.047  1.00  0.00     0.018 C 
HETATM   12  C   UNL     1      -7.821   3.262 -33.517  1.00  0.00     0.065 C 
HETATM   13  C   UNL     1      -8.498   2.063 -34.131  1.00  0.00     0.082 C 
HETATM   14  N   UNL     1      -7.746   1.122 -34.599  1.00  0.00    -0.203 NA
HETATM   15  C   UNL     1      -6.392   2.948 -33.977  1.00  0.00     0.121 C 
HETATM   16  N   UNL     1      -6.465   1.517 -34.357  1.00  0.00    -0.207 NA
HETATM   17  C   UNL     1     -13.296   0.946 -34.642  1.00  0.00     0.031 A 
HETATM   18  C   UNL     1     -14.447   1.351 -33.961  1.00  0.00     0.009 A 
HETATM   19  H   UNL     1      -6.073   0.940 -33.606  1.00  0.00     0.149 HD
ENDROOT
BRANCH  15  20
HETATM   20  C   UNL     1      -5.167   3.342 -33.180  1.00  0.00    -0.038 A 
HETATM   21  C   UNL     1      -4.462   4.524 -33.435  1.00  0.00     0.011 A 
HETATM   22  C   UNL     1      -3.252   4.796 -32.783  1.00  0.00     0.037 A 
HETATM   23  C   UNL     1      -2.694   3.877 -31.893  1.00  0.00     0.068 A 
HETATM   24  C   UNL     1      -3.377   2.695 -31.631  1.00  0.00     0.037 A 
HETATM   25  C   UNL     1      -4.591   2.429 -32.274  1.00  0.00     0.011 A 
BRANCH  23  26
HETATM   26  O   UNL     1      -1.489   4.239 -31.360  1.00  0.00    -0.356 OA
HETATM   27  C   UNL     1      -0.772   5.256 -32.052  1.00  0.00     0.210 C 
ENDBRANCH  23  26
ENDBRANCH  15  20
TORSDOF 2
ENDMDL
MODEL 7
REMARK VINA RESULT:      -8.0      3.865      4.842
REMARK  2 active torsions:
REMARK  status: ('A' for Active; 'I' for Inactive)
REMARK    1  A    between atoms: C_15  and  C_16 
REMARK    2  A    between atoms: C_19  and  O_20 
ROOT
HETATM    1  C   UNL     1      -3.380  -4.553 -34.187  1.00  0.00     0.048 C 
HETATM    2  C   UNL     1      -4.494  -3.553 -34.079  1.00  0.00    -0.061 A 
HETATM    3  C   UNL     1      -4.385  -2.447 -33.216  1.00  0.00     0.021 A 
HETATM    4  C   UNL     1      -5.449  -1.526 -33.117  1.00  0.00    -0.000 A 
HETATM    5  C   UNL     1      -6.592  -1.743 -33.899  1.00  0.00     0.043 A 
HETATM    6  N   UNL     1      -7.472  -0.714 -33.643  1.00  0.00    -0.353 N 
HETATM    7  H   UNL     1      -8.374  -0.589 -34.081  1.00  0.00     0.166 HD
HETATM    8  C   UNL     1      -6.951   0.095 -32.681  1.00  0.00     0.066 A 
HETATM    9  C   UNL     1      -5.678  -0.337 -32.367  1.00  0.00    -0.017 A 
HETATM   10  C   UNL     1      -4.811   0.418 -31.396  1.00  0.00     0.043 C 
HETATM   11  C   UNL     1      -5.404   1.831 -31.060  1.00  0.00     0.018 C 
HETATM   12  C   UNL     1      -6.918   1.723 -30.789  1.00  0.00     0.065 C 
HETATM   13  C   UNL     1      -7.509   1.266 -32.098  1.00  0.00     0.082 C 
HETATM   14  N   UNL     1      -8.356   2.048 -32.682  1.00  0.00    -0.203 NA
HETATM   15  C   UNL     1      -7.845   2.922 -30.553  1.00  0.00     0.121 C 
HETATM   16  N   UNL     1      -8.449   3.151 -31.887  1.00  0.00    -0.207 NA
HETATM   17  C   UNL     1      -6.721  -2.834 -34.764  1.00  0.00     0.031 A 
HETATM   18  C   UNL     1      -5.656  -3.735 -34.835  1.00  0.00     0.009 A 
HETATM   19  H   UNL     1      -7.979   3.936 -32.349  1.00  0.00     0.149 HD
ENDROOT
BRANCH  15  20
HETATM   20  C   UNL     1      -7.405   4.171 -29.821  1.00  0.00    -0.038 A 
HETATM   21  C   UNL     1      -6.118   4.307 -29.290  1.00  0.00     0.011 A 
HETATM   22  C   UNL     1      -5.780   5.410 -28.494  1.00  0.00     0.037 A 
HETATM   23  C   UNL     1      -6.729   6.382 -28.175  1.00  0.00     0.068 A 
HETATM   24  C   UNL     1      -8.015   6.261 -28.690  1.00  0.00     0.037 A 
HETATM   25  C   UNL     1      -8.348   5.166 -29.493  1.00  0.00     0.011 A 
BRANCH  23  26
HETATM   26  O   UNL     1      -6.287   7.381 -27.353  1.00  0.00    -0.356 OA
HETATM   27  C   UNL     1      -5.244   8.205 -27.863  1.00  0.00     0.210 C 
ENDBRANCH  23  26
ENDBRANCH  15  20
TORSDOF 2
ENDMDL
MODEL 8
REMARK VINA RESULT:      -7.9      3.725      4.770
REMARK  2 active torsions:
REMARK  status: ('A' for Active; 'I' for Inactive)
REMARK    1  A    between atoms: C_15  and  C_16 
REMARK    2  A    between atoms: C_19  and  O_20 
ROOT
HETATM    1  C   UNL     1      -3.366  -5.224 -33.944  1.00  0.00     0.048 C 
HETATM    2  C   UNL     1      -4.427  -4.175 -34.105  1.00  0.00    -0.061 A 
HETATM    3  C   UNL     1      -4.258  -2.892 -33.553  1.00  0.00     0.021 A 
HETATM    4  C   UNL     1      -5.274  -1.924 -33.702  1.00  0.00    -0.000 A 
HETATM    5  C   UNL     1      -6.429  -2.276 -34.413  1.00  0.00     0.043 A 
HETATM    6  N   UNL     1      -7.255  -1.173 -34.436  1.00  0.00    -0.353 N 
HETATM    7  H   UNL     1      -8.152  -1.118 -34.899  1.00  0.00     0.166 HD
HETATM    8  C   UNL     1      -6.689  -0.172 -33.708  1.00  0.00     0.066 A 
HETATM    9  C   UNL     1      -5.438  -0.572 -33.283  1.00  0.00    -0.017 A 
HETATM   10  C   UNL     1      -4.529   0.361 -32.529  1.00  0.00     0.043 C 
HETATM   11  C   UNL     1      -5.049   1.841 -32.572  1.00  0.00     0.018 C 
HETATM   12  C   UNL     1      -6.565   1.882 -32.295  1.00  0.00     0.065 C 
HETATM   13  C   UNL     1      -7.184   1.136 -33.449  1.00  0.00     0.082 C 
HETATM   14  N   UNL     1      -7.993   1.784 -34.221  1.00  0.00    -0.203 NA
HETATM   15  C   UNL     1      -7.429   3.146 -32.382  1.00  0.00     0.121 C 
HETATM   16  N   UNL     1      -8.026   3.057 -33.735  1.00  0.00    -0.207 NA
HETATM   17  C   UNL     1      -6.618  -3.544 -34.971  1.00  0.00     0.031 A 
HETATM   18  C   UNL     1      -5.600  -4.485 -34.800  1.00  0.00     0.009 A 
HETATM   19  H   UNL     1      -7.519   3.672 -34.378  1.00  0.00     0.149 HD
ENDROOT
BRANCH  15  20
HETATM   20  C   UNL     1      -6.922   4.517 -31.990  1.00  0.00    -0.038 A 
HETATM   21  C   UNL     1      -7.214   5.091 -30.747  1.00  0.00     0.011 A 
HETATM   22  C   UNL     1      -6.856   6.416 -30.464  1.00  0.00     0.037 A 
HETATM   23  C   UNL     1      -6.236   7.213 -31.427  1.00  0.00     0.068 A 
HETATM   24  C   UNL     1      -5.942   6.662 -32.669  1.00  0.00     0.037 A 
HETATM   25  C   UNL     1      -6.290   5.336 -32.947  1.00  0.00     0.011 A 
BRANCH  23  26
HETATM   26  O   UNL     1      -5.982   8.501 -31.043  1.00  0.00    -0.356 OA
HETATM   27  C   UNL     1      -5.642   8.696 -29.674  1.00  0.00     0.210 C 
ENDBRANCH  23  26
ENDBRANCH  15  20
TORSDOF 2
ENDMDL
MODEL 9
REMARK VINA RESULT:      -7.9      6.254      8.533
REMARK  2 active torsions:
REMARK  status: ('A' for Active; 'I' for Inactive)
REMARK    1  A    between atoms: C_15  and  C_16 
REMARK    2  A    between atoms: C_19  and  O_20 
ROOT
HETATM    1  C   UNL     1     -15.343   3.933 -32.305  1.00  0.00     0.048 C 
HETATM    2  C   UNL     1     -13.876   4.047 -32.599  1.00  0.00    -0.061 A 
HETATM    3  C   UNL     1     -13.059   2.902 -32.632  1.00  0.00     0.021 A 
HETATM    4  C   UNL     1     -11.679   3.031 -32.895  1.00  0.00    -0.000 A 
HETATM    5  C   UNL     1     -11.163   4.313 -33.126  1.00  0.00     0.043 A 
HETATM    6  N   UNL     1      -9.814   4.180 -33.372  1.00  0.00    -0.353 N 
HETATM    7  H   UNL     1      -9.179   4.934 -33.597  1.00  0.00     0.166 HD
HETATM    8  C   UNL     1      -9.457   2.874 -33.234  1.00  0.00     0.066 A 
HETATM    9  C   UNL     1     -10.589   2.120 -32.996  1.00  0.00    -0.017 A 
HETATM   10  C   UNL     1     -10.524   0.620 -32.889  1.00  0.00     0.043 C 
HETATM   11  C   UNL     1      -9.138   0.061 -33.367  1.00  0.00     0.018 C 
HETATM   12  C   UNL     1      -7.990   0.906 -32.780  1.00  0.00     0.065 C 
HETATM   13  C   UNL     1      -8.177   2.275 -33.383  1.00  0.00     0.082 C 
HETATM   14  N   UNL     1      -7.229   2.738 -34.130  1.00  0.00    -0.203 NA
HETATM   15  C   UNL     1      -6.509   0.726 -33.135  1.00  0.00     0.121 C 
HETATM   16  N   UNL     1      -6.281   1.760 -34.172  1.00  0.00    -0.207 NA
HETATM   17  C   UNL     1     -11.955   5.465 -33.100  1.00  0.00     0.031 A 
HETATM   18  C   UNL     1     -13.317   5.308 -32.828  1.00  0.00     0.009 A 
HETATM   19  H   UNL     1      -6.289   1.326 -35.100  1.00  0.00     0.149 HD
ENDROOT
BRANCH  15  20
HETATM   20  C   UNL     1      -5.892  -0.625 -33.424  1.00  0.00    -0.038 A 
HETATM   21  C   UNL     1      -4.761  -1.088 -32.741  1.00  0.00     0.011 A 
HETATM   22  C   UNL     1      -4.124  -2.276 -33.125  1.00  0.00     0.037 A 
HETATM   23  C   UNL     1      -4.573  -3.008 -34.225  1.00  0.00     0.068 A 
HETATM   24  C   UNL     1      -5.692  -2.561 -34.919  1.00  0.00     0.037 A 
HETATM   25  C   UNL     1      -6.334  -1.381 -34.528  1.00  0.00     0.011 A 
BRANCH  23  26
HETATM   26  O   UNL     1      -3.837  -4.120 -34.525  1.00  0.00    -0.356 OA
HETATM   27  C   UNL     1      -3.354  -4.875 -33.419  1.00  0.00     0.210 C 
ENDBRANCH  23  26
ENDBRANCH  15  20
TORSDOF 2
ENDMDL
MODEL 10
REMARK VINA RESULT:      -7.9      4.598      8.738
REMARK  2 active torsions:
REMARK  status: ('A' for Active; 'I' for Inactive)
REMARK    1  A    between atoms: C_15  and  C_16 
REMARK    2  A    between atoms: C_19  and  O_20 
ROOT
HETATM    1  C   UNL     1      -9.376   7.555 -27.865  1.00  0.00     0.048 C 
HETATM    2  C   UNL     1      -8.141   6.817 -28.292  1.00  0.00    -0.061 A 
HETATM    3  C   UNL     1      -8.236   5.591 -28.975  1.00  0.00     0.021 A 
HETATM    4  C   UNL     1      -7.063   4.906 -29.355  1.00  0.00    -0.000 A 
HETATM    5  C   UNL     1      -5.825   5.482 -29.041  1.00  0.00     0.043 A 
HETATM    6  N   UNL     1      -4.843   4.643 -29.523  1.00  0.00    -0.353 N 
HETATM    7  H   UNL     1      -3.847   4.810 -29.466  1.00  0.00     0.166 HD
HETATM    8  C   UNL     1      -5.420   3.536 -30.061  1.00  0.00     0.066 A 
HETATM    9  C   UNL     1      -6.793   3.681 -30.030  1.00  0.00    -0.017 A 
HETATM   10  C   UNL     1      -7.705   2.652 -30.642  1.00  0.00     0.043 C 
HETATM   11  C   UNL     1      -6.915   1.627 -31.529  1.00  0.00     0.018 C 
HETATM   12  C   UNL     1      -5.640   1.161 -30.799  1.00  0.00     0.065 C 
HETATM   13  C   UNL     1      -4.801   2.407 -30.663  1.00  0.00     0.082 C 
HETATM   14  N   UNL     1      -3.648   2.422 -31.245  1.00  0.00    -0.203 NA
HETATM   15  C   UNL     1      -4.566   0.258 -31.418  1.00  0.00     0.121 C 
HETATM   16  N   UNL     1      -3.538   1.220 -31.879  1.00  0.00    -0.207 NA
HETATM   17  C   UNL     1      -5.705   6.699 -28.363  1.00  0.00     0.031 A 
HETATM   18  C   UNL     1      -6.883   7.352 -27.992  1.00  0.00     0.009 A 
HETATM   19  H   UNL     1      -3.628   1.366 -32.889  1.00  0.00     0.149 HD
ENDROOT
BRANCH  15  20
HETATM   20  C   UNL     1      -4.889  -0.856 -32.390  1.00  0.00    -0.038 A 
HETATM   21  C   UNL     1      -3.940  -1.813 -32.768  1.00  0.00     0.011 A 
HETATM   22  C   UNL     1      -4.219  -2.746 -33.776  1.00  0.00     0.037 A 
HETATM   23  C   UNL     1      -5.435  -2.720 -34.460  1.00  0.00     0.068 A 
HETATM   24  C   UNL     1      -6.388  -1.774 -34.102  1.00  0.00     0.037 A 
HETATM   25  C   UNL     1      -6.113  -0.850 -33.088  1.00  0.00     0.011 A 
BRANCH  23  26
HETATM   26  O   UNL     1      -5.565  -3.651 -35.453  1.00  0.00    -0.356 OA
HETATM   27  C   UNL     1      -6.696  -4.512 -35.367  1.00  0.00     0.210 C 
ENDBRANCH  23  26
ENDBRANCH  15  20
TORSDOF 2
ENDMDL
