MODEL 1
REMARK VINA RESULT:      -7.9      0.000      0.000
REMARK  11 active torsions:
REMARK  status: ('A' for Active; 'I' for Inactive)
REMARK    1  A    between atoms: C_2  and  C_3 
REMARK    2  A    between atoms: C_3  and  N_4 
REMARK    3  A    between atoms: N_4  and  C_6 
REMARK    4  A    between atoms: N_4  and  C_30 
REMARK    5  A    between atoms: C_6  and  C_7 
REMARK    6  A    between atoms: N_8  and  C_9 
REMARK    7  A    between atoms: C_13  and  N_14 
REMARK    8  A    between atoms: C_17  and  C_18 
REMARK       I    between atoms: C_18  and  N_19 
REMARK    9  A    between atoms: N_19  and  N_20 
REMARK   10  A    between atoms: C_21  and  C_22 
REMARK   11  A    between atoms: C_30  and  C_31 
ROOT
HETATM    1  C   UNL     1      -4.891  -1.076 -33.247  1.00  0.00     0.096 A 
HETATM    2  N   UNL     1      -4.600  -2.422 -33.453  1.00  0.00    -0.215 N 
HETATM    3  N   UNL     1      -3.495  -2.745 -32.730  1.00  0.00     0.012 NA
HETATM    4  N   UNL     1      -3.118  -1.699 -32.014  1.00  0.00    -0.152 NA
HETATM    5  C   UNL     1      -3.952  -0.662 -32.310  1.00  0.00     0.170 A 
ENDROOT
BRANCH   5   6
HETATM    6  C   UNL     1      -3.863   0.653 -31.687  1.00  0.00     0.293 C 
HETATM    7  N   UNL     1      -3.256   1.613 -32.472  1.00  0.00    -0.242 N 
HETATM    8  H   UNL     1      -2.929   1.386 -33.408  1.00  0.00     0.192 HD
HETATM    9  O   UNL     1      -4.260   0.817 -30.536  1.00  0.00    -0.264 OA
BRANCH   7  10
HETATM   10  N   UNL     1      -3.006   2.839 -31.935  1.00  0.00    -0.184 NA
HETATM   11  C   UNL     1      -2.603   3.755 -32.755  1.00  0.00     0.150 C 
BRANCH  11  12
HETATM   12  C   UNL     1      -2.281   5.116 -32.279  1.00  0.00    -0.016 A 
HETATM   13  C   UNL     1      -1.310   5.276 -31.288  1.00  0.00     0.032 A 
HETATM   14  C   UNL     1      -1.017   6.558 -30.825  1.00  0.00     0.011 A 
HETATM   15 BR   UNL     1       0.290   6.788 -29.478  1.00  0.00    -0.051 Br
HETATM   16  C   UNL     1      -1.678   7.673 -31.342  1.00  0.00     0.019 A 
HETATM   17  C   UNL     1      -2.645   7.508 -32.333  1.00  0.00     0.002 A 
HETATM   18  C   UNL     1      -2.948   6.230 -32.803  1.00  0.00     0.013 A 
ENDBRANCH  11  12
ENDBRANCH   7  10
ENDBRANCH   5   6
BRANCH   1  19
HETATM   19  C   UNL     1      -5.923  -0.287 -33.969  1.00  0.00     0.296 C 
BRANCH  19  20
HETATM   20  N   UNL     1      -7.070   0.257 -33.123  1.00  0.00    -0.066 N 
HETATM   21  H   UNL     1      -6.988  -0.196 -32.205  1.00  0.00     0.280 HD
BRANCH  20  22
HETATM   22  C   UNL     1      -8.410  -0.145 -33.737  1.00  0.00     0.235 C 
BRANCH  22  23
HETATM   23  C   UNL     1      -9.578   0.071 -32.777  1.00  0.00     0.023 C 
HETATM   24  C   UNL     1     -10.787   0.720 -33.432  1.00  0.00     0.007 C 
ENDBRANCH  22  23
ENDBRANCH  20  22
BRANCH  20  25
HETATM   25  C   UNL     1      -6.987   1.765 -32.936  1.00  0.00     0.235 C 
BRANCH  25  26
HETATM   26  C   UNL     1      -6.386   2.488 -34.142  1.00  0.00     0.023 C 
HETATM   27  C   UNL     1      -6.124   3.967 -33.906  1.00  0.00     0.007 C 
ENDBRANCH  25  26
ENDBRANCH  20  25
ENDBRANCH  19  20
ENDBRANCH   1  19
BRANCH   2  28
HETATM   28  C   UNL     1      -5.313  -3.377 -34.214  1.00  0.00     0.225 A 
HETATM   29  N   UNL     1      -6.493  -3.053 -34.748  1.00  0.00    -0.081 NA
HETATM   30  O   UNL     1      -6.893  -4.226 -35.399  1.00  0.00    -0.103 OA
HETATM   31  N   UNL     1      -5.963  -5.239 -35.222  1.00  0.00    -0.083 NA
HETATM   32  C   UNL     1      -4.984  -4.716 -34.486  1.00  0.00     0.201 A 
BRANCH  32  33
HETATM   33  N   UNL     1      -3.886  -5.380 -34.096  1.00  0.00    -0.379 N 
HETATM   34  H   UNL     1      -3.394  -5.109 -33.247  1.00  0.00     0.158 HD
HETATM   35  H   UNL     1      -3.410  -6.081 -34.660  1.00  0.00     0.158 HD
ENDBRANCH  32  33
ENDBRANCH   2  28
TORSDOF 11
ENDMDL
MODEL 2
REMARK VINA RESULT:      -7.5      4.543     10.030
REMARK  11 active torsions:
REMARK  status: ('A' for Active; 'I' for Inactive)
REMARK    1  A    between atoms: C_2  and  C_3 
REMARK    2  A    between atoms: C_3  and  N_4 
REMARK    3  A    between atoms: N_4  and  C_6 
REMARK    4  A    between atoms: N_4  and  C_30 
REMARK    5  A    between atoms: C_6  and  C_7 
REMARK    6  A    between atoms: N_8  and  C_9 
REMARK    7  A    between atoms: C_13  and  N_14 
REMARK    8  A    between atoms: C_17  and  C_18 
REMARK       I    between atoms: C_18  and  N_19 
REMARK    9  A    between atoms: N_19  and  N_20 
REMARK   10  A    between atoms: C_21  and  C_22 
REMARK   11  A    between atoms: C_30  and  C_31 
ROOT
HETATM    1  C   UNL     1      -3.759   6.354 -29.721  1.00  0.00     0.096 A 
HETATM    2  N   UNL     1      -3.975   6.897 -28.458  1.00  0.00    -0.215 N 
HETATM    3  N   UNL     1      -5.252   6.623 -28.078  1.00  0.00     0.012 NA
HETATM    4  N   UNL     1      -5.829   5.866 -28.995  1.00  0.00    -0.152 NA
HETATM    5  C   UNL     1      -4.942   5.685 -30.014  1.00  0.00     0.170 A 
ENDROOT
BRANCH   5   6
HETATM    6  C   UNL     1      -5.216   4.875 -31.194  1.00  0.00     0.293 C 
HETATM    7  N   UNL     1      -5.097   3.515 -30.989  1.00  0.00    -0.242 N 
HETATM    8  H   UNL     1      -4.855   3.149 -30.071  1.00  0.00     0.192 HD
HETATM    9  O   UNL     1      -5.469   5.417 -32.268  1.00  0.00    -0.264 OA
BRANCH   7  10
HETATM   10  N   UNL     1      -5.204   2.677 -32.056  1.00  0.00    -0.184 NA
HETATM   11  C   UNL     1      -6.146   1.791 -32.001  1.00  0.00     0.150 C 
BRANCH  11  12
HETATM   12  C   UNL     1      -6.340   0.815 -33.093  1.00  0.00    -0.016 A 
HETATM   13  C   UNL     1      -5.551  -0.336 -33.121  1.00  0.00     0.032 A 
HETATM   14  C   UNL     1      -5.721  -1.250 -34.162  1.00  0.00     0.011 A 
HETATM   15 BR   UNL     1      -4.653  -2.810 -34.217  1.00  0.00    -0.051 Br
HETATM   16  C   UNL     1      -6.666  -1.026 -35.163  1.00  0.00     0.019 A 
HETATM   17  C   UNL     1      -7.453   0.125 -35.128  1.00  0.00     0.002 A 
HETATM   18  C   UNL     1      -7.291   1.047 -34.094  1.00  0.00     0.013 A 
ENDBRANCH  11  12
ENDBRANCH   7  10
ENDBRANCH   5   6
BRANCH   1  19
HETATM   19  C   UNL     1      -2.551   6.559 -30.563  1.00  0.00     0.296 C 
BRANCH  19  20
HETATM   20  N   UNL     1      -1.474   5.484 -30.470  1.00  0.00    -0.066 N 
HETATM   21  H   UNL     1      -1.939   4.644 -30.106  1.00  0.00     0.280 HD
BRANCH  20  22
HETATM   22  C   UNL     1      -0.397   5.906 -29.472  1.00  0.00     0.235 C 
BRANCH  22  23
HETATM   23  C   UNL     1       0.109   7.324 -29.729  1.00  0.00     0.023 C 
HETATM   24  C   UNL     1       0.947   7.882 -28.588  1.00  0.00     0.007 C 
ENDBRANCH  22  23
ENDBRANCH  20  22
BRANCH  20  25
HETATM   25  C   UNL     1      -0.862   5.158 -31.826  1.00  0.00     0.235 C 
BRANCH  25  26
HETATM   26  C   UNL     1      -1.899   4.722 -32.862  1.00  0.00     0.023 C 
HETATM   27  C   UNL     1      -1.656   5.287 -34.253  1.00  0.00     0.007 C 
ENDBRANCH  25  26
ENDBRANCH  20  25
ENDBRANCH  19  20
ENDBRANCH   1  19
BRANCH   2  28
HETATM   28  C   UNL     1      -3.064   7.577 -27.617  1.00  0.00     0.225 A 
HETATM   29  N   UNL     1      -2.685   8.821 -27.917  1.00  0.00    -0.081 NA
HETATM   30  O   UNL     1      -1.791   9.150 -26.892  1.00  0.00    -0.103 OA
HETATM   31  N   UNL     1      -1.626   8.091 -26.012  1.00  0.00    -0.083 NA
HETATM   32  C   UNL     1      -2.412   7.114 -26.461  1.00  0.00     0.201 A 
BRANCH  32  33
HETATM   33  N   UNL     1      -2.540   5.912 -25.881  1.00  0.00    -0.379 N 
HETATM   34  H   UNL     1      -3.203   5.232 -26.246  1.00  0.00     0.158 HD
HETATM   35  H   UNL     1      -2.103   5.652 -24.998  1.00  0.00     0.158 HD
ENDBRANCH  32  33
ENDBRANCH   2  28
TORSDOF 11
ENDMDL
MODEL 3
REMARK VINA RESULT:      -7.5      2.947      5.229
REMARK  11 active torsions:
REMARK  status: ('A' for Active; 'I' for Inactive)
REMARK    1  A    between atoms: C_2  and  C_3 
REMARK    2  A    between atoms: C_3  and  N_4 
REMARK    3  A    between atoms: N_4  and  C_6 
REMARK    4  A    between atoms: N_4  and  C_30 
REMARK    5  A    between atoms: C_6  and  C_7 
REMARK    6  A    between atoms: N_8  and  C_9 
REMARK    7  A    between atoms: C_13  and  N_14 
REMARK    8  A    between atoms: C_17  and  C_18 
REMARK       I    between atoms: C_18  and  N_19 
REMARK    9  A    between atoms: N_19  and  N_20 
REMARK   10  A    between atoms: C_21  and  C_22 
REMARK   11  A    between atoms: C_30  and  C_31 
ROOT
HETATM    1  C   UNL     1      -7.673   2.319 -32.202  1.00  0.00     0.096 A 
HETATM    2  N   UNL     1      -9.056   2.450 -32.118  1.00  0.00    -0.215 N 
HETATM    3  N   UNL     1      -9.369   3.009 -30.918  1.00  0.00     0.012 NA
HETATM    4  N   UNL     1      -8.256   3.314 -30.273  1.00  0.00    -0.152 NA
HETATM    5  C   UNL     1      -7.201   2.903 -31.032  1.00  0.00     0.170 A 
ENDROOT
BRANCH   5   6
HETATM    6  C   UNL     1      -5.807   3.100 -30.657  1.00  0.00     0.293 C 
HETATM    7  N   UNL     1      -5.184   4.143 -31.314  1.00  0.00    -0.242 N 
HETATM    8  H   UNL     1      -5.696   4.714 -31.983  1.00  0.00     0.192 HD
HETATM    9  O   UNL     1      -5.269   2.334 -29.861  1.00  0.00    -0.264 OA
BRANCH   7  10
HETATM   10  N   UNL     1      -3.848   4.330 -31.134  1.00  0.00    -0.184 NA
HETATM   11  C   UNL     1      -3.443   5.556 -31.054  1.00  0.00     0.150 C 
BRANCH  11  12
HETATM   12  C   UNL     1      -2.011   5.877 -30.881  1.00  0.00    -0.016 A 
HETATM   13  C   UNL     1      -1.626   6.717 -29.834  1.00  0.00     0.032 A 
HETATM   14  C   UNL     1      -0.277   7.035 -29.680  1.00  0.00     0.011 A 
HETATM   15 BR   UNL     1       0.257   8.177 -28.271  1.00  0.00    -0.051 Br
HETATM   16  C   UNL     1       0.683   6.523 -30.554  1.00  0.00     0.019 A 
HETATM   17  C   UNL     1       0.292   5.683 -31.596  1.00  0.00     0.002 A 
HETATM   18  C   UNL     1      -1.054   5.359 -31.762  1.00  0.00     0.013 A 
ENDBRANCH  11  12
ENDBRANCH   7  10
ENDBRANCH   5   6
BRANCH   1  19
HETATM   19  C   UNL     1      -6.928   1.616 -33.279  1.00  0.00     0.296 C 
BRANCH  19  20
HETATM   20  N   UNL     1      -6.938   0.091 -33.220  1.00  0.00    -0.066 N 
HETATM   21  H   UNL     1      -7.897  -0.179 -32.973  1.00  0.00     0.280 HD
BRANCH  20  22
HETATM   22  C   UNL     1      -6.003  -0.396 -32.116  1.00  0.00     0.235 C 
BRANCH  22  23
HETATM   23  C   UNL     1      -4.537  -0.090 -32.417  1.00  0.00     0.023 C 
HETATM   24  C   UNL     1      -3.611  -1.273 -32.180  1.00  0.00     0.007 C 
ENDBRANCH  22  23
ENDBRANCH  20  22
BRANCH  20  25
HETATM   25  C   UNL     1      -6.579  -0.542 -34.558  1.00  0.00     0.235 C 
BRANCH  25  26
HETATM   26  C   UNL     1      -6.831  -2.050 -34.595  1.00  0.00     0.023 C 
HETATM   27  C   UNL     1      -5.608  -2.870 -34.972  1.00  0.00     0.007 C 
ENDBRANCH  25  26
ENDBRANCH  20  25
ENDBRANCH  19  20
ENDBRANCH   1  19
BRANCH   2  28
HETATM   28  C   UNL     1     -10.037   2.141 -33.088  1.00  0.00     0.225 A 
HETATM   29  N   UNL     1     -10.507   3.103 -33.886  1.00  0.00    -0.081 NA
HETATM   30  O   UNL     1     -11.448   2.440 -34.682  1.00  0.00    -0.103 OA
HETATM   31  N   UNL     1     -11.548   1.102 -34.330  1.00  0.00    -0.083 NA
HETATM   32  C   UNL     1     -10.677   0.915 -33.341  1.00  0.00     0.201 A 
BRANCH  32  33
HETATM   33  N   UNL     1     -10.466  -0.255 -32.721  1.00  0.00    -0.379 N 
HETATM   34  H   UNL     1     -10.824  -1.121 -33.119  1.00  0.00     0.158 HD
HETATM   35  H   UNL     1     -10.069  -0.345 -31.788  1.00  0.00     0.158 HD
ENDBRANCH  32  33
ENDBRANCH   2  28
TORSDOF 11
ENDMDL
MODEL 4
REMARK VINA RESULT:      -7.5      4.298      9.563
REMARK  11 active torsions:
REMARK  status: ('A' for Active; 'I' for Inactive)
REMARK    1  A    between atoms: C_2  and  C_3 
REMARK    2  A    between atoms: C_3  and  N_4 
REMARK    3  A    between atoms: N_4  and  C_6 
REMARK    4  A    between atoms: N_4  and  C_30 
REMARK    5  A    between atoms: C_6  and  C_7 
REMARK    6  A    between atoms: N_8  and  C_9 
REMARK    7  A    between atoms: C_13  and  N_14 
REMARK    8  A    between atoms: C_17  and  C_18 
REMARK       I    between atoms: C_18  and  N_19 
REMARK    9  A    between atoms: N_19  and  N_20 
REMARK   10  A    between atoms: C_21  and  C_22 
REMARK   11  A    between atoms: C_30  and  C_31 
ROOT
HETATM    1  C   UNL     1      -4.047   6.085 -30.737  1.00  0.00     0.096 A 
HETATM    2  N   UNL     1      -3.864   6.702 -29.503  1.00  0.00    -0.215 N 
HETATM    3  N   UNL     1      -4.786   6.215 -28.630  1.00  0.00     0.012 NA
HETATM    4  N   UNL     1      -5.489   5.264 -29.222  1.00  0.00    -0.152 NA
HETATM    5  C   UNL     1      -5.061   5.162 -30.512  1.00  0.00     0.170 A 
ENDROOT
BRANCH   5   6
HETATM    6  C   UNL     1      -5.586   4.194 -31.466  1.00  0.00     0.293 C 
HETATM    7  N   UNL     1      -4.881   3.008 -31.518  1.00  0.00    -0.242 N 
HETATM    8  H   UNL     1      -4.079   2.855 -30.911  1.00  0.00     0.192 HD
HETATM    9  O   UNL     1      -6.544   4.488 -32.179  1.00  0.00    -0.264 OA
BRANCH   7  10
HETATM   10  N   UNL     1      -5.209   2.088 -32.467  1.00  0.00    -0.184 NA
HETATM   11  C   UNL     1      -5.176   0.847 -32.102  1.00  0.00     0.150 C 
BRANCH  11  12
HETATM   12  C   UNL     1      -5.491  -0.236 -33.056  1.00  0.00    -0.016 A 
HETATM   13  C   UNL     1      -4.716  -1.398 -33.042  1.00  0.00     0.032 A 
HETATM   14  C   UNL     1      -5.001  -2.415 -33.953  1.00  0.00     0.011 A 
HETATM   15 BR   UNL     1      -3.955  -3.990 -33.951  1.00  0.00    -0.051 Br
HETATM   16  C   UNL     1      -6.046  -2.282 -34.869  1.00  0.00     0.019 A 
HETATM   17  C   UNL     1      -6.818  -1.120 -34.876  1.00  0.00     0.002 A 
HETATM   18  C   UNL     1      -6.541  -0.096 -33.971  1.00  0.00     0.013 A 
ENDBRANCH  11  12
ENDBRANCH   7  10
ENDBRANCH   5   6
BRANCH   1  19
HETATM   19  C   UNL     1      -3.352   6.442 -32.002  1.00  0.00     0.296 C 
BRANCH  19  20
HETATM   20  N   UNL     1      -2.149   5.583 -32.377  1.00  0.00    -0.066 N 
HETATM   21  H   UNL     1      -1.459   6.223 -32.790  1.00  0.00     0.280 HD
BRANCH  20  22
HETATM   22  C   UNL     1      -2.547   4.558 -33.436  1.00  0.00     0.235 C 
BRANCH  22  23
HETATM   23  C   UNL     1      -1.941   4.870 -34.803  1.00  0.00     0.023 C 
HETATM   24  C   UNL     1      -0.826   5.903 -34.748  1.00  0.00     0.007 C 
ENDBRANCH  22  23
ENDBRANCH  20  22
BRANCH  20  25
HETATM   25  C   UNL     1      -1.524   4.903 -31.167  1.00  0.00     0.235 C 
BRANCH  25  26
HETATM   26  C   UNL     1      -0.094   5.368 -30.889  1.00  0.00     0.023 C 
HETATM   27  C   UNL     1       0.188   6.794 -31.335  1.00  0.00     0.007 C 
ENDBRANCH  25  26
ENDBRANCH  20  25
ENDBRANCH  19  20
ENDBRANCH   1  19
BRANCH   2  28
HETATM   28  C   UNL     1      -2.876   7.637 -29.116  1.00  0.00     0.225 A 
HETATM   29  N   UNL     1      -2.884   8.865 -29.641  1.00  0.00    -0.081 NA
HETATM   30  O   UNL     1      -1.777   9.484 -29.048  1.00  0.00    -0.103 OA
HETATM   31  N   UNL     1      -1.109   8.611 -28.202  1.00  0.00    -0.083 NA
HETATM   32  C   UNL     1      -1.787   7.466 -28.245  1.00  0.00     0.201 A 
BRANCH  32  33
HETATM   33  N   UNL     1      -1.462   6.362 -27.557  1.00  0.00    -0.379 N 
HETATM   34  H   UNL     1      -1.209   5.506 -28.045  1.00  0.00     0.158 HD
HETATM   35  H   UNL     1      -1.567   6.263 -26.549  1.00  0.00     0.158 HD
ENDBRANCH  32  33
ENDBRANCH   2  28
TORSDOF 11
ENDMDL
MODEL 5
REMARK VINA RESULT:      -7.4      4.103      6.541
REMARK  11 active torsions:
REMARK  status: ('A' for Active; 'I' for Inactive)
REMARK    1  A    between atoms: C_2  and  C_3 
REMARK    2  A    between atoms: C_3  and  N_4 
REMARK    3  A    between atoms: N_4  and  C_6 
REMARK    4  A    between atoms: N_4  and  C_30 
REMARK    5  A    between atoms: C_6  and  C_7 
REMARK    6  A    between atoms: N_8  and  C_9 
REMARK    7  A    between atoms: C_13  and  N_14 
REMARK    8  A    between atoms: C_17  and  C_18 
REMARK       I    between atoms: C_18  and  N_19 
REMARK    9  A    between atoms: N_19  and  N_20 
REMARK   10  A    between atoms: C_21  and  C_22 
REMARK   11  A    between atoms: C_30  and  C_31 
ROOT
HETATM    1  C   UNL     1     -10.235   3.523 -33.103  1.00  0.00     0.096 A 
HETATM    2  N   UNL     1     -11.499   3.723 -33.650  1.00  0.00    -0.215 N 
HETATM    3  N   UNL     1     -11.699   5.058 -33.813  1.00  0.00     0.012 NA
HETATM    4  N   UNL     1     -10.599   5.709 -33.475  1.00  0.00    -0.152 NA
HETATM    5  C   UNL     1      -9.686   4.798 -33.034  1.00  0.00     0.170 A 
ENDROOT
BRANCH   5   6
HETATM    6  C   UNL     1      -8.338   5.145 -32.604  1.00  0.00     0.293 C 
HETATM    7  N   UNL     1      -7.475   5.458 -33.637  1.00  0.00    -0.242 N 
HETATM    8  H   UNL     1      -7.798   5.453 -34.601  1.00  0.00     0.192 HD
HETATM    9  O   UNL     1      -8.037   5.089 -31.414  1.00  0.00    -0.264 OA
BRANCH   7  10
HETATM   10  N   UNL     1      -6.160   5.669 -33.354  1.00  0.00    -0.184 NA
HETATM   11  C   UNL     1      -5.304   5.074 -34.121  1.00  0.00     0.150 C 
BRANCH  11  12
HETATM   12  C   UNL     1      -3.851   5.214 -33.893  1.00  0.00    -0.016 A 
HETATM   13  C   UNL     1      -3.381   5.371 -32.587  1.00  0.00     0.032 A 
HETATM   14  C   UNL     1      -2.012   5.521 -32.372  1.00  0.00     0.011 A 
HETATM   15 BR   UNL     1      -1.363   5.741 -30.609  1.00  0.00    -0.051 Br
HETATM   16  C   UNL     1      -1.115   5.512 -33.441  1.00  0.00     0.019 A 
HETATM   17  C   UNL     1      -1.589   5.353 -34.743  1.00  0.00     0.002 A 
HETATM   18  C   UNL     1      -2.957   5.205 -34.971  1.00  0.00     0.013 A 
ENDBRANCH  11  12
ENDBRANCH   7  10
ENDBRANCH   5   6
BRANCH   1  19
HETATM   19  C   UNL     1      -9.686   2.227 -32.625  1.00  0.00     0.296 C 
BRANCH  19  20
HETATM   20  N   UNL     1      -8.393   1.759 -33.284  1.00  0.00    -0.066 N 
HETATM   21  H   UNL     1      -7.997   2.582 -33.754  1.00  0.00     0.280 HD
BRANCH  20  22
HETATM   22  C   UNL     1      -8.698   0.701 -34.343  1.00  0.00     0.235 C 
BRANCH  22  23
HETATM   23  C   UNL     1      -7.467   0.337 -35.171  1.00  0.00     0.023 C 
HETATM   24  C   UNL     1      -7.007  -1.099 -34.969  1.00  0.00     0.007 C 
ENDBRANCH  22  23
ENDBRANCH  20  22
BRANCH  20  25
HETATM   25  C   UNL     1      -7.382   1.240 -32.270  1.00  0.00     0.235 C 
BRANCH  25  26
HETATM   26  C   UNL     1      -6.157   2.144 -32.127  1.00  0.00     0.023 C 
HETATM   27  C   UNL     1      -4.876   1.538 -32.679  1.00  0.00     0.007 C 
ENDBRANCH  25  26
ENDBRANCH  20  25
ENDBRANCH  19  20
ENDBRANCH   1  19
BRANCH   2  28
HETATM   28  C   UNL     1     -12.451   2.759 -34.057  1.00  0.00     0.225 A 
HETATM   29  N   UNL     1     -12.424   2.285 -35.305  1.00  0.00    -0.081 NA
HETATM   30  O   UNL     1     -13.498   1.389 -35.341  1.00  0.00    -0.103 OA
HETATM   31  N   UNL     1     -14.168   1.362 -34.126  1.00  0.00    -0.083 NA
HETATM   32  C   UNL     1     -13.523   2.212 -33.331  1.00  0.00     0.201 A 
BRANCH  32  33
HETATM   33  N   UNL     1     -13.860   2.471 -32.059  1.00  0.00    -0.379 N 
HETATM   34  H   UNL     1     -14.030   3.427 -31.756  1.00  0.00     0.158 HD
HETATM   35  H   UNL     1     -13.842   1.782 -31.310  1.00  0.00     0.158 HD
ENDBRANCH  32  33
ENDBRANCH   2  28
TORSDOF 11
ENDMDL
MODEL 6
REMARK VINA RESULT:      -7.4      4.453      9.167
REMARK  11 active torsions:
REMARK  status: ('A' for Active; 'I' for Inactive)
REMARK    1  A    between atoms: C_2  and  C_3 
REMARK    2  A    between atoms: C_3  and  N_4 
REMARK    3  A    between atoms: N_4  and  C_6 
REMARK    4  A    between atoms: N_4  and  C_30 
REMARK    5  A    between atoms: C_6  and  C_7 
REMARK    6  A    between atoms: N_8  and  C_9 
REMARK    7  A    between atoms: C_13  and  N_14 
REMARK    8  A    between atoms: C_17  and  C_18 
REMARK       I    between atoms: C_18  and  N_19 
REMARK    9  A    between atoms: N_19  and  N_20 
REMARK   10  A    between atoms: C_21  and  C_22 
REMARK   11  A    between atoms: C_30  and  C_31 
ROOT
HETATM    1  C   UNL     1      -2.618   5.670 -30.789  1.00  0.00     0.096 A 
HETATM    2  N   UNL     1      -1.555   6.210 -30.072  1.00  0.00    -0.215 N 
HETATM    3  N   UNL     1      -0.446   5.457 -30.302  1.00  0.00     0.012 NA
HETATM    4  N   UNL     1      -0.729   4.520 -31.190  1.00  0.00    -0.152 NA
HETATM    5  C   UNL     1      -2.051   4.622 -31.506  1.00  0.00     0.170 A 
ENDROOT
BRANCH   5   6
HETATM    6  C   UNL     1      -2.720   3.771 -32.482  1.00  0.00     0.293 C 
HETATM    7  N   UNL     1      -3.281   2.628 -31.947  1.00  0.00    -0.242 N 
HETATM    8  H   UNL     1      -3.226   2.442 -30.949  1.00  0.00     0.192 HD
HETATM    9  O   UNL     1      -2.702   4.069 -33.674  1.00  0.00    -0.264 OA
BRANCH   7  10
HETATM   10  N   UNL     1      -3.815   1.702 -32.790  1.00  0.00    -0.184 NA
HETATM   11  C   UNL     1      -4.088   0.545 -32.277  1.00  0.00     0.150 C 
BRANCH  11  12
HETATM   12  C   UNL     1      -4.649  -0.543 -33.103  1.00  0.00    -0.016 A 
HETATM   13  C   UNL     1      -4.040  -1.799 -33.076  1.00  0.00     0.032 A 
HETATM   14  C   UNL     1      -4.558  -2.822 -33.870  1.00  0.00     0.011 A 
HETATM   15 BR   UNL     1      -3.739  -4.526 -33.848  1.00  0.00    -0.051 Br
HETATM   16  C   UNL     1      -5.672  -2.603 -34.681  1.00  0.00     0.019 A 
HETATM   17  C   UNL     1      -6.278  -1.347 -34.702  1.00  0.00     0.002 A 
HETATM   18  C   UNL     1      -5.767  -0.315 -33.915  1.00  0.00     0.013 A 
ENDBRANCH  11  12
ENDBRANCH   7  10
ENDBRANCH   5   6
BRANCH   1  19
HETATM   19  C   UNL     1      -4.039   6.095 -30.695  1.00  0.00     0.296 C 
BRANCH  19  20
HETATM   20  N   UNL     1      -4.926   5.282 -29.758  1.00  0.00    -0.066 N 
HETATM   21  H   UNL     1      -4.315   4.581 -29.322  1.00  0.00     0.280 HD
BRANCH  20  22
HETATM   22  C   UNL     1      -5.999   4.548 -30.560  1.00  0.00     0.235 C 
BRANCH  22  23
HETATM   23  C   UNL     1      -6.297   3.159 -29.997  1.00  0.00     0.023 C 
HETATM   24  C   UNL     1      -7.097   2.281 -30.948  1.00  0.00     0.007 C 
ENDBRANCH  22  23
ENDBRANCH  20  22
BRANCH  20  25
HETATM   25  C   UNL     1      -5.552   6.137 -28.665  1.00  0.00     0.235 C 
BRANCH  25  26
HETATM   26  C   UNL     1      -6.884   6.762 -29.080  1.00  0.00     0.023 C 
HETATM   27  C   UNL     1      -8.050   6.381 -28.181  1.00  0.00     0.007 C 
ENDBRANCH  25  26
ENDBRANCH  20  25
ENDBRANCH  19  20
ENDBRANCH   1  19
BRANCH   2  28
HETATM   28  C   UNL     1      -1.527   7.373 -29.268  1.00  0.00     0.225 A 
HETATM   29  N   UNL     1      -1.653   8.575 -29.835  1.00  0.00    -0.081 NA
HETATM   30  O   UNL     1      -1.564   9.461 -28.755  1.00  0.00    -0.103 OA
HETATM   31  N   UNL     1      -1.358   8.779 -27.565  1.00  0.00    -0.083 NA
HETATM   32  C   UNL     1      -1.332   7.486 -27.880  1.00  0.00     0.201 A 
BRANCH  32  33
HETATM   33  N   UNL     1      -1.156   6.490 -27.000  1.00  0.00    -0.379 N 
HETATM   34  H   UNL     1      -0.635   6.648 -26.141  1.00  0.00     0.158 HD
HETATM   35  H   UNL     1      -1.402   5.518 -27.178  1.00  0.00     0.158 HD
ENDBRANCH  32  33
ENDBRANCH   2  28
TORSDOF 11
ENDMDL
MODEL 7
REMARK VINA RESULT:      -7.2      5.335      9.939
REMARK  11 active torsions:
REMARK  status: ('A' for Active; 'I' for Inactive)
REMARK    1  A    between atoms: C_2  and  C_3 
REMARK    2  A    between atoms: C_3  and  N_4 
REMARK    3  A    between atoms: N_4  and  C_6 
REMARK    4  A    between atoms: N_4  and  C_30 
REMARK    5  A    between atoms: C_6  and  C_7 
REMARK    6  A    between atoms: N_8  and  C_9 
REMARK    7  A    between atoms: C_13  and  N_14 
REMARK    8  A    between atoms: C_17  and  C_18 
REMARK       I    between atoms: C_18  and  N_19 
REMARK    9  A    between atoms: N_19  and  N_20 
REMARK   10  A    between atoms: C_21  and  C_22 
REMARK   11  A    between atoms: C_30  and  C_31 
ROOT
HETATM    1  C   UNL     1      -4.247   6.455 -28.879  1.00  0.00     0.096 A 
HETATM    2  N   UNL     1      -3.588   6.970 -27.766  1.00  0.00    -0.215 N 
HETATM    3  N   UNL     1      -4.408   6.869 -26.687  1.00  0.00     0.012 NA
HETATM    4  N   UNL     1      -5.518   6.242 -27.038  1.00  0.00    -0.152 NA
HETATM    5  C   UNL     1      -5.450   5.977 -28.373  1.00  0.00     0.170 A 
ENDROOT
BRANCH   5   6
HETATM    6  C   UNL     1      -6.485   5.265 -29.112  1.00  0.00     0.293 C 
HETATM    7  N   UNL     1      -6.429   3.891 -28.986  1.00  0.00    -0.242 N 
HETATM    8  H   UNL     1      -5.721   3.453 -28.401  1.00  0.00     0.192 HD
HETATM    9  O   UNL     1      -7.276   5.887 -29.818  1.00  0.00    -0.264 OA
BRANCH   7  10
HETATM   10  N   UNL     1      -7.267   3.127 -29.738  1.00  0.00    -0.184 NA
HETATM   11  C   UNL     1      -6.713   2.369 -30.629  1.00  0.00     0.150 C 
BRANCH  11  12
HETATM   12  C   UNL     1      -7.528   1.515 -31.517  1.00  0.00    -0.016 A 
HETATM   13  C   UNL     1      -6.890   0.557 -32.309  1.00  0.00     0.032 A 
HETATM   14  C   UNL     1      -7.656  -0.238 -33.161  1.00  0.00     0.011 A 
HETATM   15 BR   UNL     1      -6.805  -1.534 -34.244  1.00  0.00    -0.051 Br
HETATM   16  C   UNL     1      -9.042  -0.088 -33.225  1.00  0.00     0.019 A 
HETATM   17  C   UNL     1      -9.673   0.868 -32.431  1.00  0.00     0.002 A 
HETATM   18  C   UNL     1      -8.918   1.671 -31.577  1.00  0.00     0.013 A 
ENDBRANCH  11  12
ENDBRANCH   7  10
ENDBRANCH   5   6
BRANCH   1  19
HETATM   19  C   UNL     1      -3.766   6.517 -30.283  1.00  0.00     0.296 C 
BRANCH  19  20
HETATM   20  N   UNL     1      -3.001   5.299 -30.790  1.00  0.00    -0.066 N 
HETATM   21  H   UNL     1      -2.768   4.742 -29.958  1.00  0.00     0.280 HD
BRANCH  20  22
HETATM   22  C   UNL     1      -1.697   5.737 -31.453  1.00  0.00     0.235 C 
BRANCH  22  23
HETATM   23  C   UNL     1      -0.515   5.710 -30.485  1.00  0.00     0.023 C 
HETATM   24  C   UNL     1       0.488   6.829 -30.725  1.00  0.00     0.007 C 
ENDBRANCH  22  23
ENDBRANCH  20  22
BRANCH  20  25
HETATM   25  C   UNL     1      -3.833   4.444 -31.736  1.00  0.00     0.235 C 
BRANCH  25  26
HETATM   26  C   UNL     1      -3.008   3.391 -32.477  1.00  0.00     0.023 C 
HETATM   27  C   UNL     1      -3.444   1.961 -32.201  1.00  0.00     0.007 C 
ENDBRANCH  25  26
ENDBRANCH  20  25
ENDBRANCH  19  20
ENDBRANCH   1  19
BRANCH   2  28
HETATM   28  C   UNL     1      -2.270   7.475 -27.671  1.00  0.00     0.225 A 
HETATM   29  N   UNL     1      -1.948   8.610 -28.295  1.00  0.00    -0.081 NA
HETATM   30  O   UNL     1      -0.592   8.780 -27.993  1.00  0.00    -0.103 OA
HETATM   31  N   UNL     1      -0.117   7.731 -27.218  1.00  0.00    -0.083 NA
HETATM   32  C   UNL     1      -1.154   6.920 -27.020  1.00  0.00     0.201 A 
BRANCH  32  33
HETATM   33  N   UNL     1      -1.108   5.783 -26.311  1.00  0.00    -0.379 N 
HETATM   34  H   UNL     1      -0.221   5.312 -26.150  1.00  0.00     0.158 HD
HETATM   35  H   UNL     1      -1.930   5.263 -26.009  1.00  0.00     0.158 HD
ENDBRANCH  32  33
ENDBRANCH   2  28
TORSDOF 11
ENDMDL
MODEL 8
REMARK VINA RESULT:      -7.2      5.018     10.375
REMARK  11 active torsions:
REMARK  status: ('A' for Active; 'I' for Inactive)
REMARK    1  A    between atoms: C_2  and  C_3 
REMARK    2  A    between atoms: C_3  and  N_4 
REMARK    3  A    between atoms: N_4  and  C_6 
REMARK    4  A    between atoms: N_4  and  C_30 
REMARK    5  A    between atoms: C_6  and  C_7 
REMARK    6  A    between atoms: N_8  and  C_9 
REMARK    7  A    between atoms: C_13  and  N_14 
REMARK    8  A    between atoms: C_17  and  C_18 
REMARK       I    between atoms: C_18  and  N_19 
REMARK    9  A    between atoms: N_19  and  N_20 
REMARK   10  A    between atoms: C_21  and  C_22 
REMARK   11  A    between atoms: C_30  and  C_31 
ROOT
HETATM    1  C   UNL     1      -4.091   6.736 -28.510  1.00  0.00     0.096 A 
HETATM    2  N   UNL     1      -4.081   7.227 -27.207  1.00  0.00    -0.215 N 
HETATM    3  N   UNL     1      -5.156   6.724 -26.543  1.00  0.00     0.012 NA
HETATM    4  N   UNL     1      -5.799   5.878 -27.328  1.00  0.00    -0.152 NA
HETATM    5  C   UNL     1      -5.173   5.864 -28.539  1.00  0.00     0.170 A 
ENDROOT
BRANCH   5   6
HETATM    6  C   UNL     1      -5.584   5.022 -29.655  1.00  0.00     0.293 C 
HETATM    7  N   UNL     1      -5.379   3.671 -29.451  1.00  0.00    -0.242 N 
HETATM    8  H   UNL     1      -4.989   3.333 -28.575  1.00  0.00     0.192 HD
HETATM    9  O   UNL     1      -6.015   5.532 -30.686  1.00  0.00    -0.264 OA
BRANCH   7  10
HETATM   10  N   UNL     1      -5.607   2.809 -30.480  1.00  0.00    -0.184 NA
HETATM   11  C   UNL     1      -4.833   1.773 -30.545  1.00  0.00     0.150 C 
BRANCH  11  12
HETATM   12  C   UNL     1      -4.975   0.783 -31.633  1.00  0.00    -0.016 A 
HETATM   13  C   UNL     1      -5.852   1.053 -32.685  1.00  0.00     0.032 A 
HETATM   14  C   UNL     1      -6.001   0.112 -33.703  1.00  0.00     0.011 A 
HETATM   15 BR   UNL     1      -7.191   0.462 -35.131  1.00  0.00    -0.051 Br
HETATM   16  C   UNL     1      -5.284  -1.085 -33.680  1.00  0.00     0.019 A 
HETATM   17  C   UNL     1      -4.408  -1.348 -32.628  1.00  0.00     0.002 A 
HETATM   18  C   UNL     1      -4.253  -0.416 -31.603  1.00  0.00     0.013 A 
ENDBRANCH  11  12
ENDBRANCH   7  10
ENDBRANCH   5   6
BRANCH   1  19
HETATM   19  C   UNL     1      -3.184   7.160 -29.608  1.00  0.00     0.296 C 
BRANCH  19  20
HETATM   20  N   UNL     1      -2.061   6.191 -29.967  1.00  0.00    -0.066 N 
HETATM   21  H   UNL     1      -2.188   5.370 -29.362  1.00  0.00     0.280 HD
BRANCH  20  22
HETATM   22  C   UNL     1      -0.706   6.818 -29.644  1.00  0.00     0.235 C 
BRANCH  22  23
HETATM   23  C   UNL     1       0.175   5.896 -28.803  1.00  0.00     0.023 C 
HETATM   24  C   UNL     1       0.890   4.831 -29.622  1.00  0.00     0.007 C 
ENDBRANCH  22  23
ENDBRANCH  20  22
BRANCH  20  25
HETATM   25  C   UNL     1      -2.124   5.745 -31.421  1.00  0.00     0.235 C 
BRANCH  25  26
HETATM   26  C   UNL     1      -2.325   4.237 -31.578  1.00  0.00     0.023 C 
HETATM   27  C   UNL     1      -2.856   3.825 -32.942  1.00  0.00     0.007 C 
ENDBRANCH  25  26
ENDBRANCH  20  25
ENDBRANCH  19  20
ENDBRANCH   1  19
BRANCH   2  28
HETATM   28  C   UNL     1      -3.124   8.058 -26.580  1.00  0.00     0.225 A 
HETATM   29  N   UNL     1      -2.186   7.517 -25.798  1.00  0.00    -0.081 NA
HETATM   30  O   UNL     1      -1.450   8.622 -25.354  1.00  0.00    -0.103 OA
HETATM   31  N   UNL     1      -1.975   9.806 -25.851  1.00  0.00    -0.083 NA
HETATM   32  C   UNL     1      -3.013   9.459 -26.608  1.00  0.00     0.201 A 
BRANCH  32  33
HETATM   33  N   UNL     1      -3.792  10.323 -27.275  1.00  0.00    -0.379 N 
HETATM   34  H   UNL     1      -3.455  10.773 -28.123  1.00  0.00     0.158 HD
HETATM   35  H   UNL     1      -4.683  10.675 -26.929  1.00  0.00     0.158 HD
ENDBRANCH  32  33
ENDBRANCH   2  28
TORSDOF 11
ENDMDL
MODEL 9
REMARK VINA RESULT:      -7.0      5.774      9.514
REMARK  11 active torsions:
REMARK  status: ('A' for Active; 'I' for Inactive)
REMARK    1  A    between atoms: C_2  and  C_3 
REMARK    2  A    between atoms: C_3  and  N_4 
REMARK    3  A    between atoms: N_4  and  C_6 
REMARK    4  A    between atoms: N_4  and  C_30 
REMARK    5  A    between atoms: C_6  and  C_7 
REMARK    6  A    between atoms: N_8  and  C_9 
REMARK    7  A    between atoms: C_13  and  N_14 
REMARK    8  A    between atoms: C_17  and  C_18 
REMARK       I    between atoms: C_18  and  N_19 
REMARK    9  A    between atoms: N_19  and  N_20 
REMARK   10  A    between atoms: C_21  and  C_22 
REMARK   11  A    between atoms: C_30  and  C_31 
ROOT
HETATM    1  C   UNL     1     -11.803   3.530 -33.203  1.00  0.00     0.096 A 
HETATM    2  N   UNL     1     -12.688   4.370 -33.873  1.00  0.00    -0.215 N 
HETATM    3  N   UNL     1     -12.760   3.980 -35.174  1.00  0.00     0.012 NA
HETATM    4  N   UNL     1     -12.034   2.888 -35.344  1.00  0.00    -0.152 NA
HETATM    5  C   UNL     1     -11.434   2.589 -34.157  1.00  0.00     0.170 A 
ENDROOT
BRANCH   5   6
HETATM    6  C   UNL     1     -10.577   1.429 -33.952  1.00  0.00     0.293 C 
HETATM    7  N   UNL     1      -9.386   1.472 -34.650  1.00  0.00    -0.242 N 
HETATM    8  H   UNL     1      -9.157   2.273 -35.234  1.00  0.00     0.192 HD
HETATM    9  O   UNL     1     -10.961   0.495 -33.251  1.00  0.00    -0.264 OA
BRANCH   7  10
HETATM   10  N   UNL     1      -8.573   0.380 -34.631  1.00  0.00    -0.184 NA
HETATM   11  C   UNL     1      -7.359   0.574 -34.226  1.00  0.00     0.150 C 
BRANCH  11  12
HETATM   12  C   UNL     1      -6.383  -0.535 -34.185  1.00  0.00    -0.016 A 
HETATM   13  C   UNL     1      -6.754  -1.783 -34.688  1.00  0.00     0.032 A 
HETATM   14  C   UNL     1      -5.840  -2.835 -34.634  1.00  0.00     0.011 A 
HETATM   15 BR   UNL     1      -6.332  -4.534 -35.304  1.00  0.00    -0.051 Br
HETATM   16  C   UNL     1      -4.569  -2.651 -34.089  1.00  0.00     0.019 A 
HETATM   17  C   UNL     1      -4.203  -1.401 -33.591  1.00  0.00     0.002 A 
HETATM   18  C   UNL     1      -5.109  -0.341 -33.637  1.00  0.00     0.013 A 
ENDBRANCH  11  12
ENDBRANCH   7  10
ENDBRANCH   5   6
BRANCH   1  19
HETATM   19  C   UNL     1     -11.321   3.705 -31.808  1.00  0.00     0.296 C 
BRANCH  19  20
HETATM   20  N   UNL     1      -9.826   3.953 -31.637  1.00  0.00    -0.066 N 
HETATM   21  H   UNL     1      -9.394   3.730 -32.542  1.00  0.00     0.280 HD
BRANCH  20  22
HETATM   22  C   UNL     1      -9.255   3.002 -30.587  1.00  0.00     0.235 C 
BRANCH  22  23
HETATM   23  C   UNL     1      -8.140   2.120 -31.146  1.00  0.00     0.023 C 
HETATM   24  C   UNL     1      -6.763   2.761 -31.064  1.00  0.00     0.007 C 
ENDBRANCH  22  23
ENDBRANCH  20  22
BRANCH  20  25
HETATM   25  C   UNL     1      -9.515   5.402 -31.288  1.00  0.00     0.235 C 
BRANCH  25  26
HETATM   26  C   UNL     1      -9.054   5.585 -29.841  1.00  0.00     0.023 C 
HETATM   27  C   UNL     1      -7.794   6.423 -29.697  1.00  0.00     0.007 C 
ENDBRANCH  25  26
ENDBRANCH  20  25
ENDBRANCH  19  20
ENDBRANCH   1  19
BRANCH   2  28
HETATM   28  C   UNL     1     -13.468   5.431 -33.356  1.00  0.00     0.225 A 
HETATM   29  N   UNL     1     -12.993   6.678 -33.386  1.00  0.00    -0.081 NA
HETATM   30  O   UNL     1     -14.010   7.432 -32.790  1.00  0.00    -0.103 OA
HETATM   31  N   UNL     1     -15.062   6.623 -32.386  1.00  0.00    -0.083 NA
HETATM   32  C   UNL     1     -14.727   5.382 -32.734  1.00  0.00     0.201 A 
BRANCH  32  33
HETATM   33  N   UNL     1     -15.487   4.299 -32.519  1.00  0.00    -0.379 N 
HETATM   34  H   UNL     1     -15.062   3.377 -32.451  1.00  0.00     0.158 HD
HETATM   35  H   UNL     1     -16.505   4.300 -32.541  1.00  0.00     0.158 HD
ENDBRANCH  32  33
ENDBRANCH   2  28
TORSDOF 11
ENDMDL
MODEL 10
REMARK VINA RESULT:      -7.0      4.590      9.900
REMARK  11 active torsions:
REMARK  status: ('A' for Active; 'I' for Inactive)
REMARK    1  A    between atoms: C_2  and  C_3 
REMARK    2  A    between atoms: C_3  and  N_4 
REMARK    3  A    between atoms: N_4  and  C_6 
REMARK    4  A    between atoms: N_4  and  C_30 
REMARK    5  A    between atoms: C_6  and  C_7 
REMARK    6  A    between atoms: N_8  and  C_9 
REMARK    7  A    between atoms: C_13  and  N_14 
REMARK    8  A    between atoms: C_17  and  C_18 
REMARK       I    between atoms: C_18  and  N_19 
REMARK    9  A    between atoms: N_19  and  N_20 
REMARK   10  A    between atoms: C_21  and  C_22 
REMARK   11  A    between atoms: C_30  and  C_31 
ROOT
HETATM    1  C   UNL     1      -1.643   5.976 -30.233  1.00  0.00     0.096 A 
HETATM    2  N   UNL     1      -0.499   6.129 -29.456  1.00  0.00    -0.215 N 
HETATM    3  N   UNL     1       0.388   5.154 -29.786  1.00  0.00     0.012 NA
HETATM    4  N   UNL     1      -0.098   4.441 -30.789  1.00  0.00    -0.152 NA
HETATM    5  C   UNL     1      -1.341   4.918 -31.083  1.00  0.00     0.170 A 
ENDROOT
BRANCH   5   6
HETATM    6  C   UNL     1      -2.175   4.398 -32.159  1.00  0.00     0.293 C 
HETATM    7  N   UNL     1      -3.017   3.372 -31.778  1.00  0.00    -0.242 N 
HETATM    8  H   UNL     1      -3.037   3.049 -30.814  1.00  0.00     0.192 HD
HETATM    9  O   UNL     1      -2.052   4.836 -33.300  1.00  0.00    -0.264 OA
BRANCH   7  10
HETATM   10  N   UNL     1      -3.743   2.729 -32.733  1.00  0.00    -0.184 NA
HETATM   11  C   UNL     1      -4.654   1.912 -32.311  1.00  0.00     0.150 C 
BRANCH  11  12
HETATM   12  C   UNL     1      -5.487   1.143 -33.259  1.00  0.00    -0.016 A 
HETATM   13  C   UNL     1      -5.220  -0.214 -33.449  1.00  0.00     0.032 A 
HETATM   14  C   UNL     1      -5.994  -0.937 -34.357  1.00  0.00     0.011 A 
HETATM   15 BR   UNL     1      -5.639  -2.775 -34.629  1.00  0.00    -0.051 Br
HETATM   16  C   UNL     1      -7.025  -0.321 -35.068  1.00  0.00     0.019 A 
HETATM   17  C   UNL     1      -7.288   1.034 -34.872  1.00  0.00     0.002 A 
HETATM   18  C   UNL     1      -6.519   1.769 -33.969  1.00  0.00     0.013 A 
ENDBRANCH  11  12
ENDBRANCH   7  10
ENDBRANCH   5   6
BRANCH   1  19
HETATM   19  C   UNL     1      -2.911   6.736 -30.078  1.00  0.00     0.296 C 
BRANCH  19  20
HETATM   20  N   UNL     1      -3.246   7.723 -31.191  1.00  0.00    -0.066 N 
HETATM   21  H   UNL     1      -3.173   7.197 -32.071  1.00  0.00     0.280 HD
BRANCH  20  22
HETATM   22  C   UNL     1      -2.216   8.850 -31.220  1.00  0.00     0.235 C 
BRANCH  22  23
HETATM   23  C   UNL     1      -2.723  10.118 -30.535  1.00  0.00     0.023 C 
HETATM   24  C   UNL     1      -2.147  10.324 -29.142  1.00  0.00     0.007 C 
ENDBRANCH  22  23
ENDBRANCH  20  22
BRANCH  20  25
HETATM   25  C   UNL     1      -4.659   8.278 -31.068  1.00  0.00     0.235 C 
BRANCH  25  26
HETATM   26  C   UNL     1      -5.736   7.274 -31.480  1.00  0.00     0.023 C 
HETATM   27  C   UNL     1      -6.755   6.980 -30.390  1.00  0.00     0.007 C 
ENDBRANCH  25  26
ENDBRANCH  20  25
ENDBRANCH  19  20
ENDBRANCH   1  19
BRANCH   2  28
HETATM   28  C   UNL     1      -0.200   7.134 -28.507  1.00  0.00     0.225 A 
HETATM   29  N   UNL     1       0.693   8.082 -28.802  1.00  0.00    -0.081 NA
HETATM   30  O   UNL     1       0.736   8.868 -27.645  1.00  0.00    -0.103 OA
HETATM   31  N   UNL     1      -0.109   8.364 -26.667  1.00  0.00    -0.083 NA
HETATM   32  C   UNL     1      -0.687   7.289 -27.197  1.00  0.00     0.201 A 
BRANCH  32  33
HETATM   33  N   UNL     1      -1.581   6.515 -26.565  1.00  0.00    -0.379 N 
HETATM   34  H   UNL     1      -1.271   5.757 -25.962  1.00  0.00     0.158 HD
HETATM   35  H   UNL     1      -2.585   6.541 -26.738  1.00  0.00     0.158 HD
ENDBRANCH  32  33
ENDBRANCH   2  28
TORSDOF 11
ENDMDL
