MODEL 1
REMARK VINA RESULT:      -9.2      0.000      0.000
REMARK  5 active torsions:
REMARK  status: ('A' for Active; 'I' for Inactive)
REMARK    1  A    between atoms: C_3  and  N_4 
REMARK       I    between atoms: N_4  and  C_5 
REMARK    2  A    between atoms: C_5  and  C_6 
REMARK    3  A    between atoms: C_6  and  N_7 
REMARK       I    between atoms: N_7  and  C_8 
REMARK    4  A    between atoms: C_8  and  C_9 
REMARK    5  A    between atoms: C_10  and  C_11 
ROOT
HETATM    1  N   UNL     1      -4.630   4.221 -32.200  1.00  0.00    -0.348 N 
HETATM    2  C   UNL     1      -3.264   4.115 -32.311  1.00  0.00     0.255 C 
HETATM    3  O   UNL     1      -2.642   3.166 -31.843  1.00  0.00    -0.268 OA
HETATM    4  H   UNL     1      -5.079   5.072 -32.509  1.00  0.00     0.163 HD
ENDROOT
BRANCH   1   5
HETATM    5  C   UNL     1      -5.475   3.132 -31.742  1.00  0.00     0.226 C 
BRANCH   5   6
HETATM    6  C   UNL     1      -5.832   2.080 -32.801  1.00  0.00     0.239 C 
HETATM    7  N   UNL     1      -5.733   0.779 -32.330  1.00  0.00    -0.325 N 
HETATM    8  H   UNL     1      -5.216   0.693 -31.455  1.00  0.00     0.169 HD
HETATM    9  O   UNL     1      -6.026   2.414 -33.966  1.00  0.00    -0.271 OA
BRANCH   7  10
HETATM   10  C   UNL     1      -5.794  -0.380 -33.140  1.00  0.00     0.046 A 
HETATM   11  C   UNL     1      -4.581  -1.069 -33.385  1.00  0.00    -0.035 A 
HETATM   12  C   UNL     1      -3.257  -0.582 -32.853  1.00  0.00     0.050 C 
HETATM   13  C   UNL     1      -4.588  -2.225 -34.181  1.00  0.00     0.009 A 
HETATM   14  C   UNL     1      -5.771  -2.698 -34.735  1.00  0.00     0.001 A 
HETATM   15  C   UNL     1      -6.966  -2.034 -34.479  1.00  0.00     0.009 A 
HETATM   16  C   UNL     1      -7.002  -0.889 -33.661  1.00  0.00    -0.035 A 
HETATM   17  C   UNL     1      -8.359  -0.307 -33.370  1.00  0.00     0.050 C 
ENDBRANCH   7  10
ENDBRANCH   5   6
ENDBRANCH   1   5
BRANCH   2  18
HETATM   18  C   UNL     1      -2.648   5.220 -33.021  1.00  0.00     0.080 A 
HETATM   19  C   UNL     1      -1.573   6.095 -32.654  1.00  0.00     0.104 A 
HETATM   20  N   UNL     1      -1.301   6.942 -33.667  1.00  0.00    -0.174 NA
HETATM   21  N   UNL     1      -2.155   6.621 -34.639  1.00  0.00    -0.288 N 
HETATM   22  H   UNL     1      -2.102   7.134 -35.513  1.00  0.00     0.188 HD
HETATM   23  C   UNL     1      -3.000   5.613 -34.302  1.00  0.00     0.128 A 
BRANCH  19  24
HETATM   24  C   UNL     1      -0.811   6.218 -31.400  1.00  0.00    -0.004 A 
HETATM   25  C   UNL     1       0.017   5.194 -30.919  1.00  0.00     0.017 A 
HETATM   26  C   UNL     1       0.687   5.331 -29.697  1.00  0.00     0.043 A 
HETATM   27  C   UNL     1       0.523   6.486 -28.943  1.00  0.00     0.116 A 
HETATM   28  F   UNL     1       1.154   6.607 -27.768  1.00  0.00    -0.206 F 
HETATM   29  C   UNL     1      -0.295   7.513 -29.389  1.00  0.00     0.043 A 
HETATM   30  C   UNL     1      -0.957   7.379 -30.612  1.00  0.00     0.017 A 
ENDBRANCH  19  24
ENDBRANCH   2  18
TORSDOF 5
ENDMDL
MODEL 2
REMARK VINA RESULT:      -9.1      5.333      8.121
REMARK  5 active torsions:
REMARK  status: ('A' for Active; 'I' for Inactive)
REMARK    1  A    between atoms: C_3  and  N_4 
REMARK       I    between atoms: N_4  and  C_5 
REMARK    2  A    between atoms: C_5  and  C_6 
REMARK    3  A    between atoms: C_6  and  N_7 
REMARK       I    between atoms: N_7  and  C_8 
REMARK    4  A    between atoms: C_8  and  C_9 
REMARK    5  A    between atoms: C_10  and  C_11 
ROOT
HETATM    1  N   UNL     1      -6.201   1.950 -31.540  1.00  0.00    -0.348 N 
HETATM    2  C   UNL     1      -5.503   1.383 -32.580  1.00  0.00     0.255 C 
HETATM    3  O   UNL     1      -5.741   1.655 -33.753  1.00  0.00    -0.268 OA
HETATM    4  H   UNL     1      -6.037   1.612 -30.601  1.00  0.00     0.163 HD
ENDROOT
BRANCH   1   5
HETATM    5  C   UNL     1      -7.103   3.075 -31.712  1.00  0.00     0.226 C 
BRANCH   5   6
HETATM    6  C   UNL     1      -8.581   2.715 -31.914  1.00  0.00     0.239 C 
HETATM    7  N   UNL     1      -8.867   2.294 -33.204  1.00  0.00    -0.325 N 
HETATM    8  H   UNL     1      -8.137   2.512 -33.883  1.00  0.00     0.169 HD
HETATM    9  O   UNL     1      -9.402   2.943 -31.030  1.00  0.00    -0.271 OA
BRANCH   7  10
HETATM   10  C   UNL     1     -10.171   2.108 -33.722  1.00  0.00     0.046 A 
HETATM   11  C   UNL     1     -10.724   3.161 -34.490  1.00  0.00    -0.035 A 
HETATM   12  C   UNL     1      -9.992   4.458 -34.723  1.00  0.00     0.050 C 
HETATM   13  C   UNL     1     -12.014   3.025 -35.028  1.00  0.00     0.009 A 
HETATM   14  C   UNL     1     -12.755   1.870 -34.811  1.00  0.00     0.001 A 
HETATM   15  C   UNL     1     -12.204   0.826 -34.074  1.00  0.00     0.009 A 
HETATM   16  C   UNL     1     -10.903   0.915 -33.545  1.00  0.00    -0.035 A 
HETATM   17  C   UNL     1     -10.370  -0.308 -32.849  1.00  0.00     0.050 C 
ENDBRANCH   7  10
ENDBRANCH   5   6
ENDBRANCH   1   5
BRANCH   2  18
HETATM   18  C   UNL     1      -4.478   0.448 -32.154  1.00  0.00     0.080 A 
HETATM   19  C   UNL     1      -4.225  -0.912 -32.534  1.00  0.00     0.104 A 
HETATM   20  N   UNL     1      -3.115  -1.364 -31.917  1.00  0.00    -0.174 NA
HETATM   21  N   UNL     1      -2.674  -0.342 -31.183  1.00  0.00    -0.288 N 
HETATM   22  H   UNL     1      -1.821  -0.469 -30.647  1.00  0.00     0.188 HD
HETATM   23  C   UNL     1      -3.460   0.760 -31.267  1.00  0.00     0.128 A 
BRANCH  19  24
HETATM   24  C   UNL     1      -4.979  -1.829 -33.406  1.00  0.00    -0.004 A 
HETATM   25  C   UNL     1      -6.323  -1.613 -33.742  1.00  0.00     0.017 A 
HETATM   26  C   UNL     1      -7.017  -2.535 -34.535  1.00  0.00     0.043 A 
HETATM   27  C   UNL     1      -6.377  -3.683 -34.984  1.00  0.00     0.116 A 
HETATM   28  F   UNL     1      -7.049  -4.570 -35.729  1.00  0.00    -0.206 F 
HETATM   29  C   UNL     1      -5.051  -3.927 -34.662  1.00  0.00     0.043 A 
HETATM   30  C   UNL     1      -4.355  -3.003 -33.877  1.00  0.00     0.017 A 
ENDBRANCH  19  24
ENDBRANCH   2  18
TORSDOF 5
ENDMDL
MODEL 3
REMARK VINA RESULT:      -9.1      3.183      9.004
REMARK  5 active torsions:
REMARK  status: ('A' for Active; 'I' for Inactive)
REMARK    1  A    between atoms: C_3  and  N_4 
REMARK       I    between atoms: N_4  and  C_5 
REMARK    2  A    between atoms: C_5  and  C_6 
REMARK    3  A    between atoms: C_6  and  N_7 
REMARK       I    between atoms: N_7  and  C_8 
REMARK    4  A    between atoms: C_8  and  C_9 
REMARK    5  A    between atoms: C_10  and  C_11 
ROOT
HETATM    1  N   UNL     1      -3.527   3.177 -31.976  1.00  0.00    -0.348 N 
HETATM    2  C   UNL     1      -4.788   2.746 -32.313  1.00  0.00     0.255 C 
HETATM    3  O   UNL     1      -5.322   3.056 -33.374  1.00  0.00    -0.268 OA
HETATM    4  H   UNL     1      -3.177   2.980 -31.048  1.00  0.00     0.163 HD
ENDROOT
BRANCH   1   5
HETATM    5  C   UNL     1      -2.633   3.827 -32.918  1.00  0.00     0.226 C 
BRANCH   5   6
HETATM    6  C   UNL     1      -1.684   4.873 -32.316  1.00  0.00     0.239 C 
HETATM    7  N   UNL     1      -1.840   5.027 -30.947  1.00  0.00    -0.325 N 
HETATM    8  H   UNL     1      -2.702   4.622 -30.580  1.00  0.00     0.169 HD
HETATM    9  O   UNL     1      -0.992   5.575 -33.048  1.00  0.00    -0.271 OA
BRANCH   7  10
HETATM   10  C   UNL     1      -1.256   6.062 -30.179  1.00  0.00     0.046 A 
HETATM   11  C   UNL     1      -2.044   7.210 -29.925  1.00  0.00    -0.035 A 
HETATM   12  C   UNL     1      -3.437   7.370 -30.479  1.00  0.00     0.050 C 
HETATM   13  C   UNL     1      -1.511   8.265 -29.166  1.00  0.00     0.009 A 
HETATM   14  C   UNL     1      -0.217   8.194 -28.665  1.00  0.00     0.001 A 
HETATM   15  C   UNL     1       0.551   7.058 -28.896  1.00  0.00     0.009 A 
HETATM   16  C   UNL     1       0.039   5.969 -29.627  1.00  0.00    -0.035 A 
HETATM   17  C   UNL     1       0.918   4.752 -29.733  1.00  0.00     0.050 C 
ENDBRANCH   7  10
ENDBRANCH   5   6
ENDBRANCH   1   5
BRANCH   2  18
HETATM   18  C   UNL     1      -5.407   1.905 -31.306  1.00  0.00     0.080 A 
HETATM   19  C   UNL     1      -5.756   0.514 -31.323  1.00  0.00     0.104 A 
HETATM   20  N   UNL     1      -6.259   0.150 -30.126  1.00  0.00    -0.174 NA
HETATM   21  N   UNL     1      -6.229   1.253 -29.377  1.00  0.00    -0.288 N 
HETATM   22  H   UNL     1      -6.550   1.188 -28.416  1.00  0.00     0.188 HD
HETATM   23  C   UNL     1      -5.750   2.338 -30.035  1.00  0.00     0.128 A 
BRANCH  19  24
HETATM   24  C   UNL     1      -5.686  -0.488 -32.400  1.00  0.00    -0.004 A 
HETATM   25  C   UNL     1      -4.509  -1.187 -32.703  1.00  0.00     0.017 A 
HETATM   26  C   UNL     1      -4.472  -2.096 -33.767  1.00  0.00     0.043 A 
HETATM   27  C   UNL     1      -5.607  -2.302 -34.542  1.00  0.00     0.116 A 
HETATM   28  F   UNL     1      -5.563  -3.161 -35.568  1.00  0.00    -0.206 F 
HETATM   29  C   UNL     1      -6.783  -1.620 -34.271  1.00  0.00     0.043 A 
HETATM   30  C   UNL     1      -6.822  -0.718 -33.205  1.00  0.00     0.017 A 
ENDBRANCH  19  24
ENDBRANCH   2  18
TORSDOF 5
ENDMDL
MODEL 4
REMARK VINA RESULT:      -9.1      5.336      8.131
REMARK  5 active torsions:
REMARK  status: ('A' for Active; 'I' for Inactive)
REMARK    1  A    between atoms: C_3  and  N_4 
REMARK       I    between atoms: N_4  and  C_5 
REMARK    2  A    between atoms: C_5  and  C_6 
REMARK    3  A    between atoms: C_6  and  N_7 
REMARK       I    between atoms: N_7  and  C_8 
REMARK    4  A    between atoms: C_8  and  C_9 
REMARK    5  A    between atoms: C_10  and  C_11 
ROOT
HETATM    1  N   UNL     1      -5.974   2.009 -31.801  1.00  0.00    -0.348 N 
HETATM    2  C   UNL     1      -5.418   1.214 -32.775  1.00  0.00     0.255 C 
HETATM    3  O   UNL     1      -5.767   1.279 -33.950  1.00  0.00    -0.268 OA
HETATM    4  H   UNL     1      -5.727   1.842 -30.835  1.00  0.00     0.163 HD
ENDROOT
BRANCH   1   5
HETATM    5  C   UNL     1      -6.836   3.140 -32.097  1.00  0.00     0.226 C 
BRANCH   5   6
HETATM    6  C   UNL     1      -8.336   2.825 -32.183  1.00  0.00     0.239 C 
HETATM    7  N   UNL     1      -8.715   2.310 -33.414  1.00  0.00    -0.325 N 
HETATM    8  H   UNL     1      -8.020   2.440 -34.149  1.00  0.00     0.169 HD
HETATM    9  O   UNL     1      -9.093   3.161 -31.277  1.00  0.00    -0.271 OA
BRANCH   7  10
HETATM   10  C   UNL     1     -10.053   2.135 -33.839  1.00  0.00     0.046 A 
HETATM   11  C   UNL     1     -10.698   0.926 -33.483  1.00  0.00    -0.035 A 
HETATM   12  C   UNL     1      -9.994  -0.168 -32.721  1.00  0.00     0.050 C 
HETATM   13  C   UNL     1     -12.027   0.704 -33.879  1.00  0.00     0.009 A 
HETATM   14  C   UNL     1     -12.714   1.657 -34.621  1.00  0.00     0.001 A 
HETATM   15  C   UNL     1     -12.089   2.855 -34.953  1.00  0.00     0.009 A 
HETATM   16  C   UNL     1     -10.767   3.124 -34.547  1.00  0.00    -0.035 A 
HETATM   17  C   UNL     1     -10.223   4.487 -34.876  1.00  0.00     0.050 C 
ENDBRANCH   7  10
ENDBRANCH   5   6
ENDBRANCH   1   5
BRANCH   2  18
HETATM   18  C   UNL     1      -4.398   0.310 -32.279  1.00  0.00     0.080 A 
HETATM   19  C   UNL     1      -4.122  -1.063 -32.591  1.00  0.00     0.104 A 
HETATM   20  N   UNL     1      -3.026  -1.477 -31.922  1.00  0.00    -0.174 NA
HETATM   21  N   UNL     1      -2.617  -0.419 -31.221  1.00  0.00    -0.288 N 
HETATM   22  H   UNL     1      -1.779  -0.514 -30.656  1.00  0.00     0.188 HD
HETATM   23  C   UNL     1      -3.410   0.671 -31.377  1.00  0.00     0.128 A 
BRANCH  19  24
HETATM   24  C   UNL     1      -4.841  -2.025 -33.443  1.00  0.00    -0.004 A 
HETATM   25  C   UNL     1      -6.177  -1.839 -33.827  1.00  0.00     0.017 A 
HETATM   26  C   UNL     1      -6.840  -2.802 -34.598  1.00  0.00     0.043 A 
HETATM   27  C   UNL     1      -6.176  -3.960 -34.979  1.00  0.00     0.116 A 
HETATM   28  F   UNL     1      -6.818  -4.885 -35.703  1.00  0.00    -0.206 F 
HETATM   29  C   UNL     1      -4.857  -4.176 -34.608  1.00  0.00     0.043 A 
HETATM   30  C   UNL     1      -4.193  -3.211 -33.845  1.00  0.00     0.017 A 
ENDBRANCH  19  24
ENDBRANCH   2  18
TORSDOF 5
ENDMDL
MODEL 5
REMARK VINA RESULT:      -9.0      1.182      2.282
REMARK  5 active torsions:
REMARK  status: ('A' for Active; 'I' for Inactive)
REMARK    1  A    between atoms: C_3  and  N_4 
REMARK       I    between atoms: N_4  and  C_5 
REMARK    2  A    between atoms: C_5  and  C_6 
REMARK    3  A    between atoms: C_6  and  N_7 
REMARK       I    between atoms: N_7  and  C_8 
REMARK    4  A    between atoms: C_8  and  C_9 
REMARK    5  A    between atoms: C_10  and  C_11 
ROOT
HETATM    1  N   UNL     1      -5.703   3.900 -32.444  1.00  0.00    -0.348 N 
HETATM    2  C   UNL     1      -4.410   4.257 -32.141  1.00  0.00     0.255 C 
HETATM    3  O   UNL     1      -3.895   3.991 -31.059  1.00  0.00    -0.268 OA
HETATM    4  H   UNL     1      -6.112   4.236 -33.305  1.00  0.00     0.163 HD
ENDROOT
BRANCH   1   5
HETATM    5  C   UNL     1      -6.485   2.988 -31.629  1.00  0.00     0.226 C 
BRANCH   5   6
HETATM    6  C   UNL     1      -6.188   1.496 -31.833  1.00  0.00     0.239 C 
HETATM    7  N   UNL     1      -5.800   1.190 -33.128  1.00  0.00    -0.325 N 
HETATM    8  H   UNL     1      -6.000   1.927 -33.806  1.00  0.00     0.169 HD
HETATM    9  O   UNL     1      -6.435   0.687 -30.943  1.00  0.00    -0.271 OA
BRANCH   7  10
HETATM   10  C   UNL     1      -5.675  -0.121 -33.646  1.00  0.00     0.046 A 
HETATM   11  C   UNL     1      -6.759  -0.630 -34.402  1.00  0.00    -0.035 A 
HETATM   12  C   UNL     1      -8.027   0.156 -34.622  1.00  0.00     0.050 C 
HETATM   13  C   UNL     1      -6.684  -1.925 -34.939  1.00  0.00     0.009 A 
HETATM   14  C   UNL     1      -5.559  -2.714 -34.733  1.00  0.00     0.001 A 
HETATM   15  C   UNL     1      -4.485  -2.208 -34.009  1.00  0.00     0.009 A 
HETATM   16  C   UNL     1      -4.513  -0.903 -33.481  1.00  0.00    -0.035 A 
HETATM   17  C   UNL     1      -3.261  -0.422 -32.799  1.00  0.00     0.050 C 
ENDBRANCH   7  10
ENDBRANCH   5   6
ENDBRANCH   1   5
BRANCH   2  18
HETATM   18  C   UNL     1      -3.735   4.968 -33.210  1.00  0.00     0.080 A 
HETATM   19  C   UNL     1      -2.542   5.765 -33.206  1.00  0.00     0.104 A 
HETATM   20  N   UNL     1      -2.260   6.179 -34.458  1.00  0.00    -0.174 NA
HETATM   21  N   UNL     1      -3.222   5.669 -35.227  1.00  0.00    -0.288 N 
HETATM   22  H   UNL     1      -3.184   5.848 -36.226  1.00  0.00     0.188 HD
HETATM   23  C   UNL     1      -4.144   4.954 -34.534  1.00  0.00     0.128 A 
BRANCH  19  24
HETATM   24  C   UNL     1      -1.670   6.197 -32.100  1.00  0.00    -0.004 A 
HETATM   25  C   UNL     1      -1.971   7.303 -31.293  1.00  0.00     0.017 A 
HETATM   26  C   UNL     1      -1.091   7.710 -30.283  1.00  0.00     0.043 A 
HETATM   27  C   UNL     1       0.098   7.023 -30.082  1.00  0.00     0.116 A 
HETATM   28  F   UNL     1       0.944   7.425 -29.125  1.00  0.00    -0.206 F 
HETATM   29  C   UNL     1       0.427   5.930 -30.869  1.00  0.00     0.043 A 
HETATM   30  C   UNL     1      -0.454   5.519 -31.873  1.00  0.00     0.017 A 
ENDBRANCH  19  24
ENDBRANCH   2  18
TORSDOF 5
ENDMDL
MODEL 6
REMARK VINA RESULT:      -8.9      3.523      9.163
REMARK  5 active torsions:
REMARK  status: ('A' for Active; 'I' for Inactive)
REMARK    1  A    between atoms: C_3  and  N_4 
REMARK       I    between atoms: N_4  and  C_5 
REMARK    2  A    between atoms: C_5  and  C_6 
REMARK    3  A    between atoms: C_6  and  N_7 
REMARK       I    between atoms: N_7  and  C_8 
REMARK    4  A    between atoms: C_8  and  C_9 
REMARK    5  A    between atoms: C_10  and  C_11 
ROOT
HETATM    1  N   UNL     1      -4.634   1.663 -32.668  1.00  0.00    -0.348 N 
HETATM    2  C   UNL     1      -5.659   0.778 -32.430  1.00  0.00     0.255 C 
HETATM    3  O   UNL     1      -5.795   0.212 -31.349  1.00  0.00    -0.268 OA
HETATM    4  H   UNL     1      -4.506   2.019 -33.606  1.00  0.00     0.163 HD
ENDROOT
BRANCH   1   5
HETATM    5  C   UNL     1      -3.775   2.183 -31.620  1.00  0.00     0.226 C 
BRANCH   5   6
HETATM    6  C   UNL     1      -3.005   3.464 -31.968  1.00  0.00     0.239 C 
HETATM    7  N   UNL     1      -3.084   4.433 -30.979  1.00  0.00    -0.325 N 
HETATM    8  H   UNL     1      -3.820   4.266 -30.293  1.00  0.00     0.169 HD
HETATM    9  O   UNL     1      -2.521   3.612 -33.087  1.00  0.00    -0.271 OA
BRANCH   7  10
HETATM   10  C   UNL     1      -2.655   5.774 -31.126  1.00  0.00     0.046 A 
HETATM   11  C   UNL     1      -3.646   6.750 -31.392  1.00  0.00    -0.035 A 
HETATM   12  C   UNL     1      -5.101   6.394 -31.562  1.00  0.00     0.050 C 
HETATM   13  C   UNL     1      -3.273   8.095 -31.544  1.00  0.00     0.009 A 
HETATM   14  C   UNL     1      -1.941   8.477 -31.442  1.00  0.00     0.001 A 
HETATM   15  C   UNL     1      -0.969   7.523 -31.160  1.00  0.00     0.009 A 
HETATM   16  C   UNL     1      -1.311   6.170 -30.971  1.00  0.00    -0.035 A 
HETATM   17  C   UNL     1      -0.196   5.240 -30.575  1.00  0.00     0.050 C 
ENDBRANCH   7  10
ENDBRANCH   5   6
ENDBRANCH   1   5
BRANCH   2  18
HETATM   18  C   UNL     1      -6.542   0.587 -33.565  1.00  0.00     0.080 A 
HETATM   19  C   UNL     1      -6.803  -0.569 -34.373  1.00  0.00     0.104 A 
HETATM   20  N   UNL     1      -7.755  -0.289 -35.286  1.00  0.00    -0.174 NA
HETATM   21  N   UNL     1      -8.092   0.983 -35.069  1.00  0.00    -0.288 N 
HETATM   22  H   UNL     1      -8.821   1.391 -35.646  1.00  0.00     0.188 HD
HETATM   23  C   UNL     1      -7.385   1.565 -34.068  1.00  0.00     0.128 A 
BRANCH  19  24
HETATM   24  C   UNL     1      -6.189  -1.908 -34.373  1.00  0.00    -0.004 A 
HETATM   25  C   UNL     1      -4.821  -2.109 -34.142  1.00  0.00     0.017 A 
HETATM   26  C   UNL     1      -4.268  -3.394 -34.199  1.00  0.00     0.043 A 
HETATM   27  C   UNL     1      -5.076  -4.483 -34.499  1.00  0.00     0.116 A 
HETATM   28  F   UNL     1      -4.541  -5.708 -34.567  1.00  0.00    -0.206 F 
HETATM   29  C   UNL     1      -6.432  -4.315 -34.740  1.00  0.00     0.043 A 
HETATM   30  C   UNL     1      -6.985  -3.033 -34.675  1.00  0.00     0.017 A 
ENDBRANCH  19  24
ENDBRANCH   2  18
TORSDOF 5
ENDMDL
MODEL 7
REMARK VINA RESULT:      -8.5      5.980      8.795
REMARK  5 active torsions:
REMARK  status: ('A' for Active; 'I' for Inactive)
REMARK    1  A    between atoms: C_3  and  N_4 
REMARK       I    between atoms: N_4  and  C_5 
REMARK    2  A    between atoms: C_5  and  C_6 
REMARK    3  A    between atoms: C_6  and  N_7 
REMARK       I    between atoms: N_7  and  C_8 
REMARK    4  A    between atoms: C_8  and  C_9 
REMARK    5  A    between atoms: C_10  and  C_11 
ROOT
HETATM    1  N   UNL     1      -8.988   2.194 -33.357  1.00  0.00    -0.348 N 
HETATM    2  C   UNL     1      -7.687   2.476 -33.014  1.00  0.00     0.255 C 
HETATM    3  O   UNL     1      -6.984   3.229 -33.681  1.00  0.00    -0.268 OA
HETATM    4  H   UNL     1      -9.488   1.487 -32.834  1.00  0.00     0.163 HD
ENDROOT
BRANCH   1   5
HETATM    5  C   UNL     1      -9.714   2.926 -34.380  1.00  0.00     0.226 C 
BRANCH   5   6
HETATM    6  C   UNL     1     -11.151   3.324 -34.015  1.00  0.00     0.239 C 
HETATM    7  N   UNL     1     -11.752   2.443 -33.128  1.00  0.00    -0.325 N 
HETATM    8  H   UNL     1     -11.266   1.551 -33.037  1.00  0.00     0.169 HD
HETATM    9  O   UNL     1     -11.706   4.250 -34.601  1.00  0.00    -0.271 OA
BRANCH   7  10
HETATM   10  C   UNL     1     -13.127   2.446 -32.793  1.00  0.00     0.046 A 
HETATM   11  C   UNL     1     -13.957   1.496 -33.436  1.00  0.00    -0.035 A 
HETATM   12  C   UNL     1     -13.430   0.538 -34.473  1.00  0.00     0.050 C 
HETATM   13  C   UNL     1     -15.328   1.457 -33.137  1.00  0.00     0.009 A 
HETATM   14  C   UNL     1     -15.880   2.344 -32.221  1.00  0.00     0.001 A 
HETATM   15  C   UNL     1     -15.063   3.264 -31.574  1.00  0.00     0.009 A 
HETATM   16  C   UNL     1     -13.678   3.312 -31.826  1.00  0.00    -0.035 A 
HETATM   17  C   UNL     1     -12.873   4.279 -31.000  1.00  0.00     0.050 C 
ENDBRANCH   7  10
ENDBRANCH   5   6
ENDBRANCH   1   5
BRANCH   2  18
HETATM   18  C   UNL     1      -7.242   1.804 -31.808  1.00  0.00     0.080 A 
HETATM   19  C   UNL     1      -6.567   0.552 -31.620  1.00  0.00     0.104 A 
HETATM   20  N   UNL     1      -6.299   0.364 -30.311  1.00  0.00    -0.174 NA
HETATM   21  N   UNL     1      -6.775   1.445 -29.692  1.00  0.00    -0.288 N 
HETATM   22  H   UNL     1      -6.654   1.513 -28.687  1.00  0.00     0.188 HD
HETATM   23  C   UNL     1      -7.369   2.330 -30.532  1.00  0.00     0.128 A 
BRANCH  19  24
HETATM   24  C   UNL     1      -6.192  -0.499 -32.581  1.00  0.00    -0.004 A 
HETATM   25  C   UNL     1      -4.879  -0.978 -32.698  1.00  0.00     0.017 A 
HETATM   26  C   UNL     1      -4.555  -1.944 -33.659  1.00  0.00     0.043 A 
HETATM   27  C   UNL     1      -5.536  -2.426 -34.515  1.00  0.00     0.116 A 
HETATM   28  F   UNL     1      -5.218  -3.338 -35.442  1.00  0.00    -0.206 F 
HETATM   29  C   UNL     1      -6.841  -1.965 -34.429  1.00  0.00     0.043 A 
HETATM   30  C   UNL     1      -7.167  -1.007 -33.465  1.00  0.00     0.017 A 
ENDBRANCH  19  24
ENDBRANCH   2  18
TORSDOF 5
ENDMDL
MODEL 8
REMARK VINA RESULT:      -8.5     17.882     20.133
REMARK  5 active torsions:
REMARK  status: ('A' for Active; 'I' for Inactive)
REMARK    1  A    between atoms: C_3  and  N_4 
REMARK       I    between atoms: N_4  and  C_5 
REMARK    2  A    between atoms: C_5  and  C_6 
REMARK    3  A    between atoms: C_6  and  N_7 
REMARK       I    between atoms: N_7  and  C_8 
REMARK    4  A    between atoms: C_8  and  C_9 
REMARK    5  A    between atoms: C_10  and  C_11 
ROOT
HETATM    1  N   UNL     1      -8.807 -15.720 -41.470  1.00  0.00    -0.348 N 
HETATM    2  C   UNL     1      -9.525 -15.355 -40.355  1.00  0.00     0.255 C 
HETATM    3  O   UNL     1      -9.806 -16.156 -39.468  1.00  0.00    -0.268 OA
HETATM    4  H   UNL     1      -8.695 -15.049 -42.218  1.00  0.00     0.163 HD
ENDROOT
BRANCH   1   5
HETATM    5  C   UNL     1      -8.125 -16.996 -41.591  1.00  0.00     0.226 C 
BRANCH   5   6
HETATM    6  C   UNL     1      -6.621 -16.974 -41.283  1.00  0.00     0.239 C 
HETATM    7  N   UNL     1      -6.153 -15.714 -40.942  1.00  0.00    -0.325 N 
HETATM    8  H   UNL     1      -6.794 -14.956 -41.177  1.00  0.00     0.169 HD
HETATM    9  O   UNL     1      -5.932 -17.971 -41.485  1.00  0.00    -0.271 OA
BRANCH   7  10
HETATM   10  C   UNL     1      -4.787 -15.366 -40.821  1.00  0.00     0.046 A 
HETATM   11  C   UNL     1      -4.170 -14.746 -41.935  1.00  0.00    -0.035 A 
HETATM   12  C   UNL     1      -4.906 -14.499 -43.227  1.00  0.00     0.050 C 
HETATM   13  C   UNL     1      -2.817 -14.379 -41.865  1.00  0.00     0.009 A 
HETATM   14  C   UNL     1      -2.075 -14.622 -40.715  1.00  0.00     0.001 A 
HETATM   15  C   UNL     1      -2.685 -15.211 -39.613  1.00  0.00     0.009 A 
HETATM   16  C   UNL     1      -4.047 -15.565 -39.636  1.00  0.00    -0.035 A 
HETATM   17  C   UNL     1      -4.629 -16.105 -38.357  1.00  0.00     0.050 C 
ENDBRANCH   7  10
ENDBRANCH   5   6
ENDBRANCH   1   5
BRANCH   2  18
HETATM   18  C   UNL     1      -9.907 -13.956 -40.339  1.00  0.00     0.080 A 
HETATM   19  C   UNL     1      -9.130 -12.769 -40.128  1.00  0.00     0.104 A 
HETATM   20  N   UNL     1      -9.910 -11.677 -40.265  1.00  0.00    -0.174 NA
HETATM   21  N   UNL     1     -11.126 -12.142 -40.555  1.00  0.00    -0.288 N 
HETATM   22  H   UNL     1     -11.869 -11.471 -40.721  1.00  0.00     0.188 HD
HETATM   23  C   UNL     1     -11.190 -13.497 -40.591  1.00  0.00     0.128 A 
BRANCH  19  24
HETATM   24  C   UNL     1      -7.714 -12.590 -39.766  1.00  0.00    -0.004 A 
HETATM   25  C   UNL     1      -7.228 -12.849 -38.476  1.00  0.00     0.017 A 
HETATM   26  C   UNL     1      -5.883 -12.621 -38.160  1.00  0.00     0.043 A 
HETATM   27  C   UNL     1      -5.021 -12.120 -39.127  1.00  0.00     0.116 A 
HETATM   28  F   UNL     1      -3.739 -11.889 -38.816  1.00  0.00    -0.206 F 
HETATM   29  C   UNL     1      -5.473 -11.847 -40.409  1.00  0.00     0.043 A 
HETATM   30  C   UNL     1      -6.814 -12.083 -40.726  1.00  0.00     0.017 A 
ENDBRANCH  19  24
ENDBRANCH   2  18
TORSDOF 5
ENDMDL
MODEL 9
REMARK VINA RESULT:      -8.5      3.166      7.988
REMARK  5 active torsions:
REMARK  status: ('A' for Active; 'I' for Inactive)
REMARK    1  A    between atoms: C_3  and  N_4 
REMARK       I    between atoms: N_4  and  C_5 
REMARK    2  A    between atoms: C_5  and  C_6 
REMARK    3  A    between atoms: C_6  and  N_7 
REMARK       I    between atoms: N_7  and  C_8 
REMARK    4  A    between atoms: C_8  and  C_9 
REMARK    5  A    between atoms: C_10  and  C_11 
ROOT
HETATM    1  N   UNL     1      -6.798   2.295 -30.569  1.00  0.00    -0.348 N 
HETATM    2  C   UNL     1      -7.623   2.965 -31.441  1.00  0.00     0.255 C 
HETATM    3  O   UNL     1      -7.483   4.160 -31.686  1.00  0.00    -0.268 OA
HETATM    4  H   UNL     1      -7.022   1.341 -30.323  1.00  0.00     0.163 HD
ENDROOT
BRANCH   1   5
HETATM    5  C   UNL     1      -5.567   2.862 -30.048  1.00  0.00     0.226 C 
BRANCH   5   6
HETATM    6  C   UNL     1      -4.419   2.994 -31.059  1.00  0.00     0.239 C 
HETATM    7  N   UNL     1      -4.257   4.286 -31.535  1.00  0.00    -0.325 N 
HETATM    8  H   UNL     1      -5.051   4.899 -31.347  1.00  0.00     0.169 HD
HETATM    9  O   UNL     1      -3.843   1.993 -31.476  1.00  0.00    -0.271 OA
BRANCH   7  10
HETATM   10  C   UNL     1      -3.427   4.648 -32.622  1.00  0.00     0.046 A 
HETATM   11  C   UNL     1      -4.042   4.803 -33.888  1.00  0.00    -0.035 A 
HETATM   12  C   UNL     1      -5.513   4.553 -34.105  1.00  0.00     0.050 C 
HETATM   13  C   UNL     1      -3.263   5.163 -34.999  1.00  0.00     0.009 A 
HETATM   14  C   UNL     1      -1.894   5.365 -34.870  1.00  0.00     0.001 A 
HETATM   15  C   UNL     1      -1.293   5.234 -33.623  1.00  0.00     0.009 A 
HETATM   16  C   UNL     1      -2.047   4.903 -32.482  1.00  0.00    -0.035 A 
HETATM   17  C   UNL     1      -1.314   4.883 -31.168  1.00  0.00     0.050 C 
ENDBRANCH   7  10
ENDBRANCH   5   6
ENDBRANCH   1   5
BRANCH   2  18
HETATM   18  C   UNL     1      -8.654   2.130 -32.028  1.00  0.00     0.080 A 
HETATM   19  C   UNL     1      -8.577   0.854 -32.679  1.00  0.00     0.104 A 
HETATM   20  N   UNL     1      -9.813   0.430 -33.012  1.00  0.00    -0.174 NA
HETATM   21  N   UNL     1     -10.642   1.386 -32.590  1.00  0.00    -0.288 N 
HETATM   22  H   UNL     1     -11.639   1.251 -32.727  1.00  0.00     0.188 HD
HETATM   23  C   UNL     1     -10.005   2.436 -32.014  1.00  0.00     0.128 A 
BRANCH  19  24
HETATM   24  C   UNL     1      -7.417   0.023 -33.045  1.00  0.00    -0.004 A 
HETATM   25  C   UNL     1      -6.435  -0.350 -32.117  1.00  0.00     0.017 A 
HETATM   26  C   UNL     1      -5.322  -1.100 -32.517  1.00  0.00     0.043 A 
HETATM   27  C   UNL     1      -5.179  -1.471 -33.848  1.00  0.00     0.116 A 
HETATM   28  F   UNL     1      -4.106  -2.175 -34.229  1.00  0.00    -0.206 F 
HETATM   29  C   UNL     1      -6.130  -1.110 -34.791  1.00  0.00     0.043 A 
HETATM   30  C   UNL     1      -7.244  -0.368 -34.390  1.00  0.00     0.017 A 
ENDBRANCH  19  24
ENDBRANCH   2  18
TORSDOF 5
ENDMDL
MODEL 10
REMARK VINA RESULT:      -8.4      2.723      3.804
REMARK  5 active torsions:
REMARK  status: ('A' for Active; 'I' for Inactive)
REMARK    1  A    between atoms: C_3  and  N_4 
REMARK       I    between atoms: N_4  and  C_5 
REMARK    2  A    between atoms: C_5  and  C_6 
REMARK    3  A    between atoms: C_6  and  N_7 
REMARK       I    between atoms: N_7  and  C_8 
REMARK    4  A    between atoms: C_8  and  C_9 
REMARK    5  A    between atoms: C_10  and  C_11 
ROOT
HETATM    1  N   UNL     1      -5.082   3.600 -30.104  1.00  0.00    -0.348 N 
HETATM    2  C   UNL     1      -5.527   4.886 -30.296  1.00  0.00     0.255 C 
HETATM    3  O   UNL     1      -6.615   5.131 -30.809  1.00  0.00    -0.268 OA
HETATM    4  H   UNL     1      -4.136   3.456 -29.776  1.00  0.00     0.163 HD
ENDROOT
BRANCH   1   5
HETATM    5  C   UNL     1      -5.932   2.434 -30.263  1.00  0.00     0.226 C 
BRANCH   5   6
HETATM    6  C   UNL     1      -5.809   1.703 -31.607  1.00  0.00     0.239 C 
HETATM    7  N   UNL     1      -6.173   0.367 -31.536  1.00  0.00    -0.325 N 
HETATM    8  H   UNL     1      -6.232   0.003 -30.584  1.00  0.00     0.169 HD
HETATM    9  O   UNL     1      -5.289   2.259 -32.570  1.00  0.00    -0.271 OA
BRANCH   7  10
HETATM   10  C   UNL     1      -5.955  -0.586 -32.559  1.00  0.00     0.046 A 
HETATM   11  C   UNL     1      -7.004  -0.801 -33.485  1.00  0.00    -0.035 A 
HETATM   12  C   UNL     1      -8.329  -0.089 -33.380  1.00  0.00     0.050 C 
HETATM   13  C   UNL     1      -6.837  -1.734 -34.520  1.00  0.00     0.009 A 
HETATM   14  C   UNL     1      -5.654  -2.453 -34.643  1.00  0.00     0.001 A 
HETATM   15  C   UNL     1      -4.615  -2.228 -33.747  1.00  0.00     0.009 A 
HETATM   16  C   UNL     1      -4.736  -1.278 -32.714  1.00  0.00    -0.035 A 
HETATM   17  C   UNL     1      -3.517  -1.044 -31.863  1.00  0.00     0.050 C 
ENDBRANCH   7  10
ENDBRANCH   5   6
ENDBRANCH   1   5
BRANCH   2  18
HETATM   18  C   UNL     1      -4.596   5.901 -29.842  1.00  0.00     0.080 A 
HETATM   19  C   UNL     1      -3.449   6.482 -30.479  1.00  0.00     0.104 A 
HETATM   20  N   UNL     1      -2.921   7.442 -29.692  1.00  0.00    -0.174 NA
HETATM   21  N   UNL     1      -3.695   7.478 -28.607  1.00  0.00    -0.288 N 
HETATM   22  H   UNL     1      -3.479   8.159 -27.887  1.00  0.00     0.188 HD
HETATM   23  C   UNL     1      -4.699   6.565 -28.630  1.00  0.00     0.128 A 
BRANCH  19  24
HETATM   24  C   UNL     1      -2.791   6.169 -31.759  1.00  0.00    -0.004 A 
HETATM   25  C   UNL     1      -2.414   4.866 -32.112  1.00  0.00     0.017 A 
HETATM   26  C   UNL     1      -1.746   4.618 -33.318  1.00  0.00     0.043 A 
HETATM   27  C   UNL     1      -1.441   5.671 -34.170  1.00  0.00     0.116 A 
HETATM   28  F   UNL     1      -0.789   5.431 -35.315  1.00  0.00    -0.206 F 
HETATM   29  C   UNL     1      -1.795   6.972 -33.844  1.00  0.00     0.043 A 
HETATM   30  C   UNL     1      -2.468   7.218 -32.645  1.00  0.00     0.017 A 
ENDBRANCH  19  24
ENDBRANCH   2  18
TORSDOF 5
ENDMDL
