MODEL 1
REMARK VINA RESULT:      -8.3      0.000      0.000
REMARK  9 active torsions:
REMARK  status: ('A' for Active; 'I' for Inactive)
REMARK    1  A    between atoms: C_2  and  N_3 
REMARK    2  A    between atoms: C_4  and  S_5 
REMARK    3  A    between atoms: S_5  and  C_6 
REMARK    4  A    between atoms: C_6  and  C_7 
REMARK       I    between atoms: C_7  and  N_8 
REMARK    5  A    between atoms: N_8  and  C_9 
REMARK    6  A    between atoms: C_9  and  C_10 
REMARK    7  A    between atoms: C_10  and  O_11 
REMARK    8  A    between atoms: O_11  and  C_12 
REMARK    9  A    between atoms: C_21  and  C_22 
ROOT
HETATM    1  S   UNL     1      -3.966   5.174 -34.623  1.00  0.00    -0.081 SA
ENDROOT
BRANCH   1   2
HETATM    2  C   UNL     1      -2.914   6.259 -33.782  1.00  0.00     0.192 A 
HETATM    3  N   UNL     1      -2.711   6.251 -32.427  1.00  0.00    -0.308 N 
HETATM    4  C   UNL     1      -1.789   7.252 -32.185  1.00  0.00     0.165 A 
HETATM    5  N   UNL     1      -1.474   7.814 -33.339  1.00  0.00    -0.128 NA
HETATM    6  N   UNL     1      -2.185   7.197 -34.336  1.00  0.00    -0.122 NA
BRANCH   3   7
HETATM    7  C   UNL     1      -3.268   5.329 -31.458  1.00  0.00     0.128 C 
HETATM    8  C   UNL     1      -2.570   3.978 -31.449  1.00  0.00     0.027 C 
ENDBRANCH   3   7
BRANCH   4   9
HETATM    9  C   UNL     1      -1.213   7.605 -30.886  1.00  0.00     0.018 A 
HETATM   10  C   UNL     1      -0.056   6.961 -30.395  1.00  0.00    -0.048 A 
HETATM   11  C   UNL     1       0.662   5.905 -31.193  1.00  0.00     0.049 C 
HETATM   12  C   UNL     1       0.465   7.339 -29.145  1.00  0.00     0.007 A 
HETATM   13  C   UNL     1      -0.149   8.337 -28.388  1.00  0.00     0.001 A 
HETATM   14  C   UNL     1      -1.280   8.982 -28.877  1.00  0.00     0.001 A 
HETATM   15  C   UNL     1      -1.803   8.624 -30.120  1.00  0.00     0.016 A 
ENDBRANCH   4   9
ENDBRANCH   1   2
BRANCH   1  16
HETATM   16  C   UNL     1      -5.546   5.578 -33.819  1.00  0.00     0.185 C 
BRANCH  16  17
HETATM   17  C   UNL     1      -6.420   4.335 -33.764  1.00  0.00     0.227 C 
HETATM   18  N   UNL     1      -5.832   3.241 -33.161  1.00  0.00    -0.358 N 
HETATM   19  H   UNL     1      -4.894   3.318 -32.787  1.00  0.00     0.162 HD
HETATM   20  O   UNL     1      -7.562   4.312 -34.214  1.00  0.00    -0.273 OA
BRANCH  18  21
HETATM   21  C   UNL     1      -6.554   1.997 -32.960  1.00  0.00     0.149 C 
BRANCH  21  22
HETATM   22  C   UNL     1      -6.320   0.967 -34.069  1.00  0.00     0.195 C 
BRANCH  22  23
HETATM   23  O   UNL     1      -5.404  -0.009 -33.565  1.00  0.00    -0.350 OA
BRANCH  23  24
HETATM   24  C   UNL     1      -5.560  -1.302 -33.977  1.00  0.00     0.068 A 
HETATM   25  C   UNL     1      -6.734  -1.875 -34.469  1.00  0.00     0.037 A 
HETATM   26  C   UNL     1      -6.744  -3.217 -34.871  1.00  0.00     0.003 A 
HETATM   27  C   UNL     1      -5.586  -3.989 -34.778  1.00  0.00     0.000 A 
HETATM   28  C   UNL     1      -4.414  -3.421 -34.286  1.00  0.00     0.003 A 
HETATM   29  C   UNL     1      -4.404  -2.085 -33.889  1.00  0.00     0.037 A 
ENDBRANCH  23  24
ENDBRANCH  22  23
ENDBRANCH  21  22
ENDBRANCH  18  21
ENDBRANCH  16  17
ENDBRANCH   1  16
TORSDOF 9
ENDMDL
MODEL 2
REMARK VINA RESULT:      -8.2      2.534      8.973
REMARK  9 active torsions:
REMARK  status: ('A' for Active; 'I' for Inactive)
REMARK    1  A    between atoms: C_2  and  N_3 
REMARK    2  A    between atoms: C_4  and  S_5 
REMARK    3  A    between atoms: S_5  and  C_6 
REMARK    4  A    between atoms: C_6  and  C_7 
REMARK       I    between atoms: C_7  and  N_8 
REMARK    5  A    between atoms: N_8  and  C_9 
REMARK    6  A    between atoms: C_9  and  C_10 
REMARK    7  A    between atoms: C_10  and  O_11 
REMARK    8  A    between atoms: O_11  and  C_12 
REMARK    9  A    between atoms: C_21  and  C_22 
ROOT
HETATM    1  S   UNL     1      -7.348   2.995 -31.740  1.00  0.00    -0.081 SA
ENDROOT
BRANCH   1   2
HETATM    2  C   UNL     1      -6.957   1.815 -32.942  1.00  0.00     0.192 A 
HETATM    3  N   UNL     1      -6.622   0.513 -32.674  1.00  0.00    -0.308 N 
HETATM    4  C   UNL     1      -6.415  -0.077 -33.907  1.00  0.00     0.165 A 
HETATM    5  N   UNL     1      -6.617   0.835 -34.842  1.00  0.00    -0.128 NA
HETATM    6  N   UNL     1      -6.948   2.020 -34.237  1.00  0.00    -0.122 NA
BRANCH   3   7
HETATM    7  C   UNL     1      -6.584  -0.138 -31.380  1.00  0.00     0.128 C 
HETATM    8  C   UNL     1      -5.282   0.100 -30.631  1.00  0.00     0.027 C 
ENDBRANCH   3   7
BRANCH   4   9
HETATM    9  C   UNL     1      -6.079  -1.482 -34.151  1.00  0.00     0.018 A 
HETATM   10  C   UNL     1      -4.757  -1.955 -34.010  1.00  0.00    -0.048 A 
HETATM   11  C   UNL     1      -3.634  -1.054 -33.569  1.00  0.00     0.049 C 
HETATM   12  C   UNL     1      -4.483  -3.314 -34.249  1.00  0.00     0.007 A 
HETATM   13  C   UNL     1      -5.500  -4.192 -34.626  1.00  0.00     0.001 A 
HETATM   14  C   UNL     1      -6.805  -3.728 -34.751  1.00  0.00     0.001 A 
HETATM   15  C   UNL     1      -7.094  -2.385 -34.508  1.00  0.00     0.016 A 
ENDBRANCH   4   9
ENDBRANCH   1   2
BRANCH   1  16
HETATM   16  C   UNL     1      -5.686   3.637 -31.375  1.00  0.00     0.185 C 
BRANCH  16  17
HETATM   17  C   UNL     1      -5.323   4.710 -32.389  1.00  0.00     0.227 C 
HETATM   18  N   UNL     1      -4.808   4.232 -33.577  1.00  0.00    -0.358 N 
HETATM   19  H   UNL     1      -4.713   3.234 -33.717  1.00  0.00     0.162 HD
HETATM   20  O   UNL     1      -5.484   5.907 -32.168  1.00  0.00    -0.273 OA
BRANCH  18  21
HETATM   21  C   UNL     1      -4.477   5.117 -34.681  1.00  0.00     0.149 C 
BRANCH  21  22
HETATM   22  C   UNL     1      -2.973   5.340 -34.858  1.00  0.00     0.195 C 
BRANCH  22  23
HETATM   23  O   UNL     1      -2.604   6.458 -34.046  1.00  0.00    -0.350 OA
BRANCH  23  24
HETATM   24  C   UNL     1      -1.716   6.243 -33.031  1.00  0.00     0.068 A 
HETATM   25  C   UNL     1      -1.393   5.010 -32.464  1.00  0.00     0.037 A 
HETATM   26  C   UNL     1      -0.447   4.937 -31.434  1.00  0.00     0.003 A 
HETATM   27  C   UNL     1       0.174   6.095 -30.965  1.00  0.00     0.000 A 
HETATM   28  C   UNL     1      -0.147   7.328 -31.526  1.00  0.00     0.003 A 
HETATM   29  C   UNL     1      -1.086   7.398 -32.554  1.00  0.00     0.037 A 
ENDBRANCH  23  24
ENDBRANCH  22  23
ENDBRANCH  21  22
ENDBRANCH  18  21
ENDBRANCH  16  17
ENDBRANCH   1  16
TORSDOF 9
ENDMDL
MODEL 3
REMARK VINA RESULT:      -8.1      4.206      7.849
REMARK  9 active torsions:
REMARK  status: ('A' for Active; 'I' for Inactive)
REMARK    1  A    between atoms: C_2  and  N_3 
REMARK    2  A    between atoms: C_4  and  S_5 
REMARK    3  A    between atoms: S_5  and  C_6 
REMARK    4  A    between atoms: C_6  and  C_7 
REMARK       I    between atoms: C_7  and  N_8 
REMARK    5  A    between atoms: N_8  and  C_9 
REMARK    6  A    between atoms: C_9  and  C_10 
REMARK    7  A    between atoms: C_10  and  O_11 
REMARK    8  A    between atoms: O_11  and  C_12 
REMARK    9  A    between atoms: C_21  and  C_22 
ROOT
HETATM    1  S   UNL     1      -6.011   3.544 -31.132  1.00  0.00    -0.081 SA
ENDROOT
BRANCH   1   2
HETATM    2  C   UNL     1      -7.009   2.933 -32.406  1.00  0.00     0.192 A 
HETATM    3  N   UNL     1      -8.358   3.147 -32.508  1.00  0.00    -0.308 N 
HETATM    4  C   UNL     1      -8.747   2.512 -33.672  1.00  0.00     0.165 A 
HETATM    5  N   UNL     1      -7.679   1.956 -34.218  1.00  0.00    -0.128 NA
HETATM    6  N   UNL     1      -6.594   2.214 -33.420  1.00  0.00    -0.122 NA
BRANCH   3   7
HETATM    7  C   UNL     1      -9.191   3.948 -31.634  1.00  0.00     0.128 C 
HETATM    8  C   UNL     1      -9.810   3.146 -30.500  1.00  0.00     0.027 C 
ENDBRANCH   3   7
BRANCH   4   9
HETATM    9  C   UNL     1     -10.096   2.493 -34.242  1.00  0.00     0.018 A 
HETATM   10  C   UNL     1     -10.979   1.418 -34.002  1.00  0.00    -0.048 A 
HETATM   11  C   UNL     1     -10.595   0.256 -33.125  1.00  0.00     0.049 C 
HETATM   12  C   UNL     1     -12.268   1.447 -34.564  1.00  0.00     0.007 A 
HETATM   13  C   UNL     1     -12.678   2.520 -35.355  1.00  0.00     0.001 A 
HETATM   14  C   UNL     1     -11.814   3.587 -35.580  1.00  0.00     0.001 A 
HETATM   15  C   UNL     1     -10.535   3.577 -35.021  1.00  0.00     0.016 A 
ENDBRANCH   4   9
ENDBRANCH   1   2
BRANCH   1  16
HETATM   16  C   UNL     1      -4.456   3.793 -32.040  1.00  0.00     0.185 C 
BRANCH  16  17
HETATM   17  C   UNL     1      -3.432   2.766 -31.584  1.00  0.00     0.227 C 
HETATM   18  N   UNL     1      -3.883   1.462 -31.580  1.00  0.00    -0.358 N 
HETATM   19  H   UNL     1      -4.828   1.257 -31.880  1.00  0.00     0.162 HD
HETATM   20  O   UNL     1      -2.289   3.075 -31.254  1.00  0.00    -0.273 OA
BRANCH  18  21
HETATM   21  C   UNL     1      -3.012   0.349 -31.242  1.00  0.00     0.149 C 
BRANCH  21  22
HETATM   22  C   UNL     1      -3.518  -1.003 -31.754  1.00  0.00     0.195 C 
BRANCH  22  23
HETATM   23  O   UNL     1      -3.749  -0.873 -33.158  1.00  0.00    -0.350 OA
BRANCH  23  24
HETATM   24  C   UNL     1      -4.678  -1.696 -33.730  1.00  0.00     0.068 A 
HETATM   25  C   UNL     1      -4.419  -2.895 -34.395  1.00  0.00     0.037 A 
HETATM   26  C   UNL     1      -5.477  -3.648 -34.921  1.00  0.00     0.003 A 
HETATM   27  C   UNL     1      -6.792  -3.203 -34.789  1.00  0.00     0.000 A 
HETATM   28  C   UNL     1      -7.054  -2.006 -34.128  1.00  0.00     0.003 A 
HETATM   29  C   UNL     1      -6.000  -1.259 -33.601  1.00  0.00     0.037 A 
ENDBRANCH  23  24
ENDBRANCH  22  23
ENDBRANCH  21  22
ENDBRANCH  18  21
ENDBRANCH  16  17
ENDBRANCH   1  16
TORSDOF 9
ENDMDL
MODEL 4
REMARK VINA RESULT:      -8.1      1.178      2.098
REMARK  9 active torsions:
REMARK  status: ('A' for Active; 'I' for Inactive)
REMARK    1  A    between atoms: C_2  and  N_3 
REMARK    2  A    between atoms: C_4  and  S_5 
REMARK    3  A    between atoms: S_5  and  C_6 
REMARK    4  A    between atoms: C_6  and  C_7 
REMARK       I    between atoms: C_7  and  N_8 
REMARK    5  A    between atoms: N_8  and  C_9 
REMARK    6  A    between atoms: C_9  and  C_10 
REMARK    7  A    between atoms: C_10  and  O_11 
REMARK    8  A    between atoms: O_11  and  C_12 
REMARK    9  A    between atoms: C_21  and  C_22 
ROOT
HETATM    1  S   UNL     1      -2.172   4.906 -34.750  1.00  0.00    -0.081 SA
ENDROOT
BRANCH   1   2
HETATM    2  C   UNL     1      -1.840   6.220 -33.675  1.00  0.00     0.192 A 
HETATM    3  N   UNL     1      -1.555   6.082 -32.343  1.00  0.00    -0.308 N 
HETATM    4  C   UNL     1      -1.334   7.364 -31.876  1.00  0.00     0.165 A 
HETATM    5  N   UNL     1      -1.485   8.204 -32.885  1.00  0.00    -0.128 NA
HETATM    6  N   UNL     1      -1.810   7.487 -34.008  1.00  0.00    -0.122 NA
BRANCH   3   7
HETATM    7  C   UNL     1      -1.419   4.848 -31.594  1.00  0.00     0.128 C 
HETATM    8  C   UNL     1      -2.749   4.157 -31.337  1.00  0.00     0.027 C 
ENDBRANCH   3   7
BRANCH   4   9
HETATM    9  C   UNL     1      -0.948   7.738 -30.513  1.00  0.00     0.018 A 
HETATM   10  C   UNL     1      -1.847   8.407 -29.654  1.00  0.00    -0.048 A 
HETATM   11  C   UNL     1      -3.252   8.739 -30.078  1.00  0.00     0.049 C 
HETATM   12  C   UNL     1      -1.434   8.739 -28.351  1.00  0.00     0.007 A 
HETATM   13  C   UNL     1      -0.152   8.420 -27.905  1.00  0.00     0.001 A 
HETATM   14  C   UNL     1       0.729   7.748 -28.746  1.00  0.00     0.001 A 
HETATM   15  C   UNL     1       0.331   7.403 -30.038  1.00  0.00     0.016 A 
ENDBRANCH   4   9
ENDBRANCH   1   2
BRANCH   1  16
HETATM   16  C   UNL     1      -3.852   5.350 -35.284  1.00  0.00     0.185 C 
BRANCH  16  17
HETATM   17  C   UNL     1      -4.815   5.184 -34.119  1.00  0.00     0.227 C 
HETATM   18  N   UNL     1      -5.295   3.902 -33.943  1.00  0.00    -0.358 N 
HETATM   19  H   UNL     1      -4.986   3.162 -34.561  1.00  0.00     0.162 HD
HETATM   20  O   UNL     1      -5.133   6.119 -33.388  1.00  0.00    -0.273 OA
BRANCH  18  21
HETATM   21  C   UNL     1      -6.166   3.555 -32.834  1.00  0.00     0.149 C 
BRANCH  21  22
HETATM   22  C   UNL     1      -6.475   2.057 -32.742  1.00  0.00     0.195 C 
BRANCH  22  23
HETATM   23  O   UNL     1      -5.281   1.349 -33.085  1.00  0.00    -0.350 OA
BRANCH  23  24
HETATM   24  C   UNL     1      -5.411   0.082 -33.580  1.00  0.00     0.068 A 
HETATM   25  C   UNL     1      -4.456  -0.932 -33.512  1.00  0.00     0.037 A 
HETATM   26  C   UNL     1      -4.733  -2.194 -34.052  1.00  0.00     0.003 A 
HETATM   27  C   UNL     1      -5.961  -2.445 -34.663  1.00  0.00     0.000 A 
HETATM   28  C   UNL     1      -6.917  -1.434 -34.735  1.00  0.00     0.003 A 
HETATM   29  C   UNL     1      -6.641  -0.179 -34.194  1.00  0.00     0.037 A 
ENDBRANCH  23  24
ENDBRANCH  22  23
ENDBRANCH  21  22
ENDBRANCH  18  21
ENDBRANCH  16  17
ENDBRANCH   1  16
TORSDOF 9
ENDMDL
MODEL 5
REMARK VINA RESULT:      -8.0      2.532      9.250
REMARK  9 active torsions:
REMARK  status: ('A' for Active; 'I' for Inactive)
REMARK    1  A    between atoms: C_2  and  N_3 
REMARK    2  A    between atoms: C_4  and  S_5 
REMARK    3  A    between atoms: S_5  and  C_6 
REMARK    4  A    between atoms: C_6  and  C_7 
REMARK       I    between atoms: C_7  and  N_8 
REMARK    5  A    between atoms: N_8  and  C_9 
REMARK    6  A    between atoms: C_9  and  C_10 
REMARK    7  A    between atoms: C_10  and  O_11 
REMARK    8  A    between atoms: O_11  and  C_12 
REMARK    9  A    between atoms: C_21  and  C_22 
ROOT
HETATM    1  S   UNL     1      -7.208   3.604 -30.852  1.00  0.00    -0.081 SA
ENDROOT
BRANCH   1   2
HETATM    2  C   UNL     1      -6.776   1.948 -31.106  1.00  0.00     0.192 A 
HETATM    3  N   UNL     1      -6.659   1.354 -32.335  1.00  0.00    -0.308 N 
HETATM    4  C   UNL     1      -6.277   0.050 -32.082  1.00  0.00     0.165 A 
HETATM    5  N   UNL     1      -6.180  -0.107 -30.773  1.00  0.00    -0.128 NA
HETATM    6  N   UNL     1      -6.501   1.079 -30.164  1.00  0.00    -0.122 NA
BRANCH   3   7
HETATM    7  C   UNL     1      -6.809   1.981 -33.633  1.00  0.00     0.128 C 
HETATM    8  C   UNL     1      -8.211   1.841 -34.204  1.00  0.00     0.027 C 
ENDBRANCH   3   7
BRANCH   4   9
HETATM    9  C   UNL     1      -5.979  -0.977 -33.082  1.00  0.00     0.018 A 
HETATM   10  C   UNL     1      -4.649  -1.310 -33.418  1.00  0.00    -0.048 A 
HETATM   11  C   UNL     1      -3.473  -0.655 -32.744  1.00  0.00     0.049 C 
HETATM   12  C   UNL     1      -4.412  -2.308 -34.380  1.00  0.00     0.007 A 
HETATM   13  C   UNL     1      -5.472  -2.965 -35.005  1.00  0.00     0.001 A 
HETATM   14  C   UNL     1      -6.782  -2.647 -34.664  1.00  0.00     0.001 A 
HETATM   15  C   UNL     1      -7.034  -1.666 -33.704  1.00  0.00     0.016 A 
ENDBRANCH   4   9
ENDBRANCH   1   2
BRANCH   1  16
HETATM   16  C   UNL     1      -5.619   4.258 -30.260  1.00  0.00     0.185 C 
BRANCH  16  17
HETATM   17  C   UNL     1      -4.673   4.434 -31.436  1.00  0.00     0.227 C 
HETATM   18  N   UNL     1      -3.430   3.857 -31.271  1.00  0.00    -0.358 N 
HETATM   19  H   UNL     1      -3.220   3.354 -30.418  1.00  0.00     0.162 HD
HETATM   20  O   UNL     1      -4.996   5.037 -32.458  1.00  0.00    -0.273 OA
BRANCH  18  21
HETATM   21  C   UNL     1      -2.432   3.869 -32.327  1.00  0.00     0.149 C 
BRANCH  21  22
HETATM   22  C   UNL     1      -1.609   5.160 -32.378  1.00  0.00     0.195 C 
BRANCH  22  23
HETATM   23  O   UNL     1      -0.330   4.879 -31.804  1.00  0.00    -0.350 OA
BRANCH  23  24
HETATM   24  C   UNL     1       0.002   5.518 -30.643  1.00  0.00     0.068 A 
HETATM   25  C   UNL     1       0.581   4.934 -29.516  1.00  0.00     0.037 A 
HETATM   26  C   UNL     1       0.883   5.719 -28.396  1.00  0.00     0.003 A 
HETATM   27  C   UNL     1       0.602   7.085 -28.397  1.00  0.00     0.000 A 
HETATM   28  C   UNL     1       0.021   7.672 -29.518  1.00  0.00     0.003 A 
HETATM   29  C   UNL     1      -0.275   6.890 -30.634  1.00  0.00     0.037 A 
ENDBRANCH  23  24
ENDBRANCH  22  23
ENDBRANCH  21  22
ENDBRANCH  18  21
ENDBRANCH  16  17
ENDBRANCH   1  16
TORSDOF 9
ENDMDL
MODEL 6
REMARK VINA RESULT:      -7.9      2.857      8.419
REMARK  9 active torsions:
REMARK  status: ('A' for Active; 'I' for Inactive)
REMARK    1  A    between atoms: C_2  and  N_3 
REMARK    2  A    between atoms: C_4  and  S_5 
REMARK    3  A    between atoms: S_5  and  C_6 
REMARK    4  A    between atoms: C_6  and  C_7 
REMARK       I    between atoms: C_7  and  N_8 
REMARK    5  A    between atoms: N_8  and  C_9 
REMARK    6  A    between atoms: C_9  and  C_10 
REMARK    7  A    between atoms: C_10  and  O_11 
REMARK    8  A    between atoms: O_11  and  C_12 
REMARK    9  A    between atoms: C_21  and  C_22 
ROOT
HETATM    1  S   UNL     1      -7.171   4.125 -30.597  1.00  0.00    -0.081 SA
ENDROOT
BRANCH   1   2
HETATM    2  C   UNL     1      -6.575   3.166 -31.907  1.00  0.00     0.192 A 
HETATM    3  N   UNL     1      -6.507   1.798 -31.902  1.00  0.00    -0.308 N 
HETATM    4  C   UNL     1      -6.000   1.447 -33.139  1.00  0.00     0.165 A 
HETATM    5  N   UNL     1      -5.782   2.554 -33.827  1.00  0.00    -0.128 NA
HETATM    6  N   UNL     1      -6.134   3.629 -33.052  1.00  0.00    -0.122 NA
BRANCH   3   7
HETATM    7  C   UNL     1      -6.959   0.898 -30.860  1.00  0.00     0.128 C 
HETATM    8  C   UNL     1      -5.902   0.634 -29.800  1.00  0.00     0.027 C 
ENDBRANCH   3   7
BRANCH   4   9
HETATM    9  C   UNL     1      -5.784   0.086 -33.634  1.00  0.00     0.018 A 
HETATM   10  C   UNL     1      -6.739  -0.559 -34.450  1.00  0.00    -0.048 A 
HETATM   11  C   UNL     1      -8.008   0.128 -34.880  1.00  0.00     0.049 C 
HETATM   12  C   UNL     1      -6.485  -1.864 -34.908  1.00  0.00     0.007 A 
HETATM   13  C   UNL     1      -5.307  -2.525 -34.562  1.00  0.00     0.001 A 
HETATM   14  C   UNL     1      -4.359  -1.886 -33.770  1.00  0.00     0.001 A 
HETATM   15  C   UNL     1      -4.592  -0.587 -33.316  1.00  0.00     0.016 A 
ENDBRANCH   4   9
ENDBRANCH   1   2
BRANCH   1  16
HETATM   16  C   UNL     1      -5.630   4.387 -29.669  1.00  0.00     0.185 C 
BRANCH  16  17
HETATM   17  C   UNL     1      -5.065   5.759 -30.001  1.00  0.00     0.227 C 
HETATM   18  N   UNL     1      -3.971   6.131 -29.247  1.00  0.00    -0.358 N 
HETATM   19  H   UNL     1      -3.603   5.497 -28.549  1.00  0.00     0.162 HD
HETATM   20  O   UNL     1      -5.543   6.474 -30.878  1.00  0.00    -0.273 OA
BRANCH  18  21
HETATM   21  C   UNL     1      -3.265   7.379 -29.484  1.00  0.00     0.149 C 
BRANCH  21  22
HETATM   22  C   UNL     1      -1.839   7.186 -30.010  1.00  0.00     0.195 C 
BRANCH  22  23
HETATM   23  O   UNL     1      -1.755   5.865 -30.552  1.00  0.00    -0.350 OA
BRANCH  23  24
HETATM   24  C   UNL     1      -1.715   5.736 -31.911  1.00  0.00     0.068 A 
HETATM   25  C   UNL     1      -1.118   6.624 -32.808  1.00  0.00     0.037 A 
HETATM   26  C   UNL     1      -1.141   6.354 -34.182  1.00  0.00     0.003 A 
HETATM   27  C   UNL     1      -1.763   5.202 -34.663  1.00  0.00     0.000 A 
HETATM   28  C   UNL     1      -2.362   4.315 -33.773  1.00  0.00     0.003 A 
HETATM   29  C   UNL     1      -2.335   4.583 -32.405  1.00  0.00     0.037 A 
ENDBRANCH  23  24
ENDBRANCH  22  23
ENDBRANCH  21  22
ENDBRANCH  18  21
ENDBRANCH  16  17
ENDBRANCH   1  16
TORSDOF 9
ENDMDL
MODEL 7
REMARK VINA RESULT:      -7.8      3.552      8.685
REMARK  9 active torsions:
REMARK  status: ('A' for Active; 'I' for Inactive)
REMARK    1  A    between atoms: C_2  and  N_3 
REMARK    2  A    between atoms: C_4  and  S_5 
REMARK    3  A    between atoms: S_5  and  C_6 
REMARK    4  A    between atoms: C_6  and  C_7 
REMARK       I    between atoms: C_7  and  N_8 
REMARK    5  A    between atoms: N_8  and  C_9 
REMARK    6  A    between atoms: C_9  and  C_10 
REMARK    7  A    between atoms: C_10  and  O_11 
REMARK    8  A    between atoms: O_11  and  C_12 
REMARK    9  A    between atoms: C_21  and  C_22 
ROOT
HETATM    1  S   UNL     1      -7.872   2.532 -32.178  1.00  0.00    -0.081 SA
ENDROOT
BRANCH   1   2
HETATM    2  C   UNL     1      -7.319   1.332 -33.294  1.00  0.00     0.192 A 
HETATM    3  N   UNL     1      -6.854   0.094 -32.938  1.00  0.00    -0.308 N 
HETATM    4  C   UNL     1      -6.546  -0.542 -34.126  1.00  0.00     0.165 A 
HETATM    5  N   UNL     1      -6.818   0.284 -35.121  1.00  0.00    -0.128 NA
HETATM    6  N   UNL     1      -7.293   1.460 -34.599  1.00  0.00    -0.122 NA
BRANCH   3   7
HETATM    7  C   UNL     1      -6.784  -0.471 -31.606  1.00  0.00     0.128 C 
HETATM    8  C   UNL     1      -5.603   0.046 -30.799  1.00  0.00     0.027 C 
ENDBRANCH   3   7
BRANCH   4   9
HETATM    9  C   UNL     1      -6.053  -1.913 -34.274  1.00  0.00     0.018 A 
HETATM   10  C   UNL     1      -4.703  -2.239 -34.020  1.00  0.00    -0.048 A 
HETATM   11  C   UNL     1      -3.713  -1.206 -33.552  1.00  0.00     0.049 C 
HETATM   12  C   UNL     1      -4.277  -3.571 -34.169  1.00  0.00     0.007 A 
HETATM   13  C   UNL     1      -5.169  -4.566 -34.568  1.00  0.00     0.001 A 
HETATM   14  C   UNL     1      -6.502  -4.248 -34.805  1.00  0.00     0.001 A 
HETATM   15  C   UNL     1      -6.943  -2.933 -34.652  1.00  0.00     0.016 A 
ENDBRANCH   4   9
ENDBRANCH   1   2
BRANCH   1  16
HETATM   16  C   UNL     1      -8.968   3.494 -33.264  1.00  0.00     0.185 C 
BRANCH  16  17
HETATM   17  C   UNL     1      -8.403   4.893 -33.444  1.00  0.00     0.227 C 
HETATM   18  N   UNL     1      -7.842   5.442 -32.308  1.00  0.00    -0.358 N 
HETATM   19  H   UNL     1      -7.821   4.905 -31.450  1.00  0.00     0.162 HD
HETATM   20  O   UNL     1      -8.437   5.485 -34.520  1.00  0.00    -0.273 OA
BRANCH  18  21
HETATM   21  C   UNL     1      -7.192   6.741 -32.324  1.00  0.00     0.149 C 
BRANCH  21  22
HETATM   22  C   UNL     1      -5.761   6.717 -31.778  1.00  0.00     0.195 C 
BRANCH  22  23
HETATM   23  O   UNL     1      -5.225   5.415 -32.030  1.00  0.00    -0.350 OA
BRANCH  23  24
HETATM   24  C   UNL     1      -4.245   5.302 -32.975  1.00  0.00     0.068 A 
HETATM   25  C   UNL     1      -4.433   5.272 -34.358  1.00  0.00     0.037 A 
HETATM   26  C   UNL     1      -3.329   5.167 -35.213  1.00  0.00     0.003 A 
HETATM   27  C   UNL     1      -2.038   5.086 -34.691  1.00  0.00     0.000 A 
HETATM   28  C   UNL     1      -1.847   5.113 -33.312  1.00  0.00     0.003 A 
HETATM   29  C   UNL     1      -2.947   5.221 -32.461  1.00  0.00     0.037 A 
ENDBRANCH  23  24
ENDBRANCH  22  23
ENDBRANCH  21  22
ENDBRANCH  18  21
ENDBRANCH  16  17
ENDBRANCH   1  16
TORSDOF 9
ENDMDL
MODEL 8
REMARK VINA RESULT:      -7.8      5.817      8.767
REMARK  9 active torsions:
REMARK  status: ('A' for Active; 'I' for Inactive)
REMARK    1  A    between atoms: C_2  and  N_3 
REMARK    2  A    between atoms: C_4  and  S_5 
REMARK    3  A    between atoms: S_5  and  C_6 
REMARK    4  A    between atoms: C_6  and  C_7 
REMARK       I    between atoms: C_7  and  N_8 
REMARK    5  A    between atoms: N_8  and  C_9 
REMARK    6  A    between atoms: C_9  and  C_10 
REMARK    7  A    between atoms: C_10  and  O_11 
REMARK    8  A    between atoms: O_11  and  C_12 
REMARK    9  A    between atoms: C_21  and  C_22 
ROOT
HETATM    1  S   UNL     1      -7.404   3.157 -31.322  1.00  0.00    -0.081 SA
ENDROOT
BRANCH   1   2
HETATM    2  C   UNL     1      -6.926   2.074 -32.584  1.00  0.00     0.192 A 
HETATM    3  N   UNL     1      -6.616   0.753 -32.398  1.00  0.00    -0.308 N 
HETATM    4  C   UNL     1      -6.317   0.262 -33.656  1.00  0.00     0.165 A 
HETATM    5  N   UNL     1      -6.445   1.248 -34.526  1.00  0.00    -0.128 NA
HETATM    6  N   UNL     1      -6.818   2.383 -33.853  1.00  0.00    -0.122 NA
BRANCH   3   7
HETATM    7  C   UNL     1      -6.677  -0.001 -31.162  1.00  0.00     0.128 C 
HETATM    8  C   UNL     1      -5.502   0.272 -30.238  1.00  0.00     0.027 C 
ENDBRANCH   3   7
BRANCH   4   9
HETATM    9  C   UNL     1      -5.968  -1.121 -33.987  1.00  0.00     0.018 A 
HETATM   10  C   UNL     1      -4.650  -1.604 -33.827  1.00  0.00    -0.048 A 
HETATM   11  C   UNL     1      -3.550  -0.737 -33.276  1.00  0.00     0.049 C 
HETATM   12  C   UNL     1      -4.364  -2.941 -34.152  1.00  0.00     0.007 A 
HETATM   13  C   UNL     1      -5.361  -3.789 -34.633  1.00  0.00     0.001 A 
HETATM   14  C   UNL     1      -6.662  -3.318 -34.778  1.00  0.00     0.001 A 
HETATM   15  C   UNL     1      -6.964  -1.996 -34.450  1.00  0.00     0.016 A 
ENDBRANCH   4   9
ENDBRANCH   1   2
BRANCH   1  16
HETATM   16  C   UNL     1      -9.208   2.945 -31.390  1.00  0.00     0.185 C 
BRANCH  16  17
HETATM   17  C   UNL     1      -9.798   3.931 -32.385  1.00  0.00     0.227 C 
HETATM   18  N   UNL     1      -9.719   3.537 -33.706  1.00  0.00    -0.358 N 
HETATM   19  H   UNL     1      -9.303   2.644 -33.939  1.00  0.00     0.162 HD
HETATM   20  O   UNL     1     -10.312   4.991 -32.037  1.00  0.00    -0.273 OA
BRANCH  18  21
HETATM   21  C   UNL     1     -10.300   4.326 -34.778  1.00  0.00     0.149 C 
BRANCH  21  22
HETATM   22  C   UNL     1     -11.580   3.721 -35.361  1.00  0.00     0.195 C 
BRANCH  22  23
HETATM   23  O   UNL     1     -11.762   2.437 -34.760  1.00  0.00    -0.350 OA
BRANCH  23  24
HETATM   24  C   UNL     1     -12.970   2.170 -34.180  1.00  0.00     0.068 A 
HETATM   25  C   UNL     1     -13.867   1.172 -34.563  1.00  0.00     0.037 A 
HETATM   26  C   UNL     1     -15.069   1.003 -33.863  1.00  0.00     0.003 A 
HETATM   27  C   UNL     1     -15.379   1.832 -32.785  1.00  0.00     0.000 A 
HETATM   28  C   UNL     1     -14.488   2.831 -32.402  1.00  0.00     0.003 A 
HETATM   29  C   UNL     1     -13.290   2.996 -33.097  1.00  0.00     0.037 A 
ENDBRANCH  23  24
ENDBRANCH  22  23
ENDBRANCH  21  22
ENDBRANCH  18  21
ENDBRANCH  16  17
ENDBRANCH   1  16
TORSDOF 9
ENDMDL
MODEL 9
REMARK VINA RESULT:      -7.8      1.613      2.425
REMARK  9 active torsions:
REMARK  status: ('A' for Active; 'I' for Inactive)
REMARK    1  A    between atoms: C_2  and  N_3 
REMARK    2  A    between atoms: C_4  and  S_5 
REMARK    3  A    between atoms: S_5  and  C_6 
REMARK    4  A    between atoms: C_6  and  C_7 
REMARK       I    between atoms: C_7  and  N_8 
REMARK    5  A    between atoms: N_8  and  C_9 
REMARK    6  A    between atoms: C_9  and  C_10 
REMARK    7  A    between atoms: C_10  and  O_11 
REMARK    8  A    between atoms: O_11  and  C_12 
REMARK    9  A    between atoms: C_21  and  C_22 
ROOT
HETATM    1  S   UNL     1      -5.894   3.843 -34.211  1.00  0.00    -0.081 SA
ENDROOT
BRANCH   1   2
HETATM    2  C   UNL     1      -4.493   4.831 -33.980  1.00  0.00     0.192 A 
HETATM    3  N   UNL     1      -3.794   4.927 -32.806  1.00  0.00    -0.308 N 
HETATM    4  C   UNL     1      -2.748   5.793 -33.067  1.00  0.00     0.165 A 
HETATM    5  N   UNL     1      -2.837   6.182 -34.327  1.00  0.00    -0.128 NA
HETATM    6  N   UNL     1      -3.934   5.585 -34.895  1.00  0.00    -0.122 NA
BRANCH   3   7
HETATM    7  C   UNL     1      -4.037   4.204 -31.574  1.00  0.00     0.128 C 
HETATM    8  C   UNL     1      -3.364   2.840 -31.540  1.00  0.00     0.027 C 
ENDBRANCH   3   7
BRANCH   4   9
HETATM    9  C   UNL     1      -1.689   6.182 -32.133  1.00  0.00     0.018 A 
HETATM   10  C   UNL     1      -1.788   7.360 -31.361  1.00  0.00    -0.048 A 
HETATM   11  C   UNL     1      -2.996   8.255 -31.430  1.00  0.00     0.049 C 
HETATM   12  C   UNL     1      -0.749   7.689 -30.472  1.00  0.00     0.007 A 
HETATM   13  C   UNL     1       0.374   6.869 -30.351  1.00  0.00     0.001 A 
HETATM   14  C   UNL     1       0.465   5.702 -31.101  1.00  0.00     0.001 A 
HETATM   15  C   UNL     1      -0.563   5.357 -31.980  1.00  0.00     0.016 A 
ENDBRANCH   4   9
ENDBRANCH   1   2
BRANCH   1  16
HETATM   16  C   UNL     1      -7.170   4.936 -33.516  1.00  0.00     0.185 C 
BRANCH  16  17
HETATM   17  C   UNL     1      -8.043   4.149 -32.552  1.00  0.00     0.227 C 
HETATM   18  N   UNL     1      -7.667   2.833 -32.375  1.00  0.00    -0.358 N 
HETATM   19  H   UNL     1      -6.856   2.473 -32.862  1.00  0.00     0.162 HD
HETATM   20  O   UNL     1      -9.002   4.651 -31.972  1.00  0.00    -0.273 OA
BRANCH  18  21
HETATM   21  C   UNL     1      -8.348   1.961 -31.433  1.00  0.00     0.149 C 
BRANCH  21  22
HETATM   22  C   UNL     1      -7.888   0.502 -31.506  1.00  0.00     0.195 C 
BRANCH  22  23
HETATM   23  O   UNL     1      -7.894   0.115 -32.882  1.00  0.00    -0.350 OA
BRANCH  23  24
HETATM   24  C   UNL     1      -6.879  -0.685 -33.324  1.00  0.00     0.068 A 
HETATM   25  C   UNL     1      -7.002  -1.768 -34.196  1.00  0.00     0.037 A 
HETATM   26  C   UNL     1      -5.867  -2.494 -34.577  1.00  0.00     0.003 A 
HETATM   27  C   UNL     1      -4.609  -2.144 -34.085  1.00  0.00     0.000 A 
HETATM   28  C   UNL     1      -4.482  -1.066 -33.213  1.00  0.00     0.003 A 
HETATM   29  C   UNL     1      -5.613  -0.342 -32.837  1.00  0.00     0.037 A 
ENDBRANCH  23  24
ENDBRANCH  22  23
ENDBRANCH  21  22
ENDBRANCH  18  21
ENDBRANCH  16  17
ENDBRANCH   1  16
TORSDOF 9
ENDMDL
MODEL 10
REMARK VINA RESULT:      -7.7      2.710      3.772
REMARK  9 active torsions:
REMARK  status: ('A' for Active; 'I' for Inactive)
REMARK    1  A    between atoms: C_2  and  N_3 
REMARK    2  A    between atoms: C_4  and  S_5 
REMARK    3  A    between atoms: S_5  and  C_6 
REMARK    4  A    between atoms: C_6  and  C_7 
REMARK       I    between atoms: C_7  and  N_8 
REMARK    5  A    between atoms: N_8  and  C_9 
REMARK    6  A    between atoms: C_9  and  C_10 
REMARK    7  A    between atoms: C_10  and  O_11 
REMARK    8  A    between atoms: O_11  and  C_12 
REMARK    9  A    between atoms: C_21  and  C_22 
ROOT
HETATM    1  S   UNL     1      -7.135   2.967 -30.824  1.00  0.00    -0.081 SA
ENDROOT
BRANCH   1   2
HETATM    2  C   UNL     1      -5.577   3.142 -31.554  1.00  0.00     0.192 A 
HETATM    3  N   UNL     1      -4.937   4.338 -31.744  1.00  0.00    -0.308 N 
HETATM    4  C   UNL     1      -3.725   4.022 -32.329  1.00  0.00     0.165 A 
HETATM    5  N   UNL     1      -3.665   2.710 -32.473  1.00  0.00    -0.128 NA
HETATM    6  N   UNL     1      -4.827   2.161 -31.996  1.00  0.00    -0.122 NA
BRANCH   3   7
HETATM    7  C   UNL     1      -5.389   5.653 -31.335  1.00  0.00     0.128 C 
HETATM    8  C   UNL     1      -6.137   6.395 -32.431  1.00  0.00     0.027 C 
ENDBRANCH   3   7
BRANCH   4   9
HETATM    9  C   UNL     1      -2.661   4.964 -32.686  1.00  0.00     0.018 A 
HETATM   10  C   UNL     1      -2.601   5.552 -33.968  1.00  0.00    -0.048 A 
HETATM   11  C   UNL     1      -3.642   5.271 -35.019  1.00  0.00     0.049 C 
HETATM   12  C   UNL     1      -1.565   6.456 -34.262  1.00  0.00     0.007 A 
HETATM   13  C   UNL     1      -0.599   6.771 -33.307  1.00  0.00     0.001 A 
HETATM   14  C   UNL     1      -0.666   6.203 -32.039  1.00  0.00     0.001 A 
HETATM   15  C   UNL     1      -1.694   5.312 -31.728  1.00  0.00     0.016 A 
ENDBRANCH   4   9
ENDBRANCH   1   2
BRANCH   1  16
HETATM   16  C   UNL     1      -8.197   3.347 -32.249  1.00  0.00     0.185 C 
BRANCH  16  17
HETATM   17  C   UNL     1      -8.376   2.098 -33.096  1.00  0.00     0.227 C 
HETATM   18  N   UNL     1      -7.370   1.872 -34.013  1.00  0.00    -0.358 N 
HETATM   19  H   UNL     1      -6.587   2.512 -34.067  1.00  0.00     0.162 HD
HETATM   20  O   UNL     1      -9.339   1.345 -32.966  1.00  0.00    -0.273 OA
BRANCH  18  21
HETATM   21  C   UNL     1      -7.348   0.685 -34.851  1.00  0.00     0.149 C 
BRANCH  21  22
HETATM   22  C   UNL     1      -6.410  -0.411 -34.337  1.00  0.00     0.195 C 
BRANCH  22  23
HETATM   23  O   UNL     1      -6.644  -1.582 -35.122  1.00  0.00    -0.350 OA
BRANCH  23  24
HETATM   24  C   UNL     1      -5.943  -2.712 -34.807  1.00  0.00     0.068 A 
HETATM   25  C   UNL     1      -6.293  -4.020 -35.142  1.00  0.00     0.037 A 
HETATM   26  C   UNL     1      -5.467  -5.086 -34.762  1.00  0.00     0.003 A 
HETATM   27  C   UNL     1      -4.294  -4.848 -34.045  1.00  0.00     0.000 A 
HETATM   28  C   UNL     1      -3.943  -3.544 -33.707  1.00  0.00     0.003 A 
HETATM   29  C   UNL     1      -4.765  -2.484 -34.088  1.00  0.00     0.037 A 
ENDBRANCH  23  24
ENDBRANCH  22  23
ENDBRANCH  21  22
ENDBRANCH  18  21
ENDBRANCH  16  17
ENDBRANCH   1  16
TORSDOF 9
ENDMDL
