MODEL 1
REMARK VINA RESULT:      -7.7      0.000      0.000
REMARK  4 active torsions:
REMARK  status: ('A' for Active; 'I' for Inactive)
REMARK    1  A    between atoms: C_4  and  N_5 
REMARK       I    between atoms: N_5  and  C_6 
REMARK    2  A    between atoms: C_6  and  C_7 
REMARK    3  A    between atoms: C_11  and  C_12 
REMARK    4  A    between atoms: C_18  and  N_19 
REMARK       I    between atoms: N_19  and  C_20 
ROOT
HETATM    1  N   UNL     1      -4.733  -0.421 -33.471  1.00  0.00    -0.320 N 
HETATM    2  C   UNL     1      -5.084   0.330 -32.368  1.00  0.00     0.276 C 
HETATM    3  O   UNL     1      -5.886  -0.005 -31.503  1.00  0.00    -0.266 OA
HETATM    4  H   UNL     1      -3.907  -0.097 -33.968  1.00  0.00     0.169 HD
ENDROOT
BRANCH   1   5
HETATM    5  C   UNL     1      -5.238  -1.674 -33.899  1.00  0.00     0.062 A 
HETATM    6  C   UNL     1      -4.394  -2.797 -33.980  1.00  0.00     0.038 A 
HETATM    7  C   UNL     1      -4.869  -4.067 -34.344  1.00  0.00    -0.060 A 
HETATM    8  C   UNL     1      -3.939  -5.242 -34.416  1.00  0.00     0.048 C 
HETATM    9  C   UNL     1      -6.226  -4.232 -34.589  1.00  0.00     0.009 A 
HETATM   10  C   UNL     1      -7.085  -3.137 -34.504  1.00  0.00     0.032 A 
HETATM   11  C   UNL     1      -6.615  -1.846 -34.188  1.00  0.00     0.061 A 
BRANCH  11  12
HETATM   12  N   UNL     1      -7.639  -0.861 -34.175  1.00  0.00    -0.326 N 
HETATM   13  C   UNL     1      -7.741   0.312 -34.889  1.00  0.00     0.218 C 
HETATM   14  C   UNL     1      -8.981   1.098 -34.550  1.00  0.00     0.117 C 
HETATM   15  O   UNL     1      -6.954   0.709 -35.741  1.00  0.00    -0.274 OA
HETATM   16  H   UNL     1      -8.484  -1.133 -33.688  1.00  0.00     0.169 HD
ENDBRANCH  11  12
ENDBRANCH   1   5
BRANCH   2  17
HETATM   17  C   UNL     1      -4.381   1.581 -32.233  1.00  0.00     0.142 A 
HETATM   18  N   UNL     1      -3.336   1.697 -31.352  1.00  0.00    -0.271 N 
HETATM   19  H   UNL     1      -2.984   0.970 -30.735  1.00  0.00     0.189 HD
HETATM   20  N   UNL     1      -2.733   2.895 -31.353  1.00  0.00    -0.177 NA
HETATM   21  C   UNL     1      -3.454   3.600 -32.234  1.00  0.00     0.083 A 
HETATM   22  C   UNL     1      -4.517   2.841 -32.782  1.00  0.00     0.094 A 
HETATM   23 CL   UNL     1      -5.711   3.415 -33.846  1.00  0.00    -0.079 Cl
BRANCH  21  24
HETATM   24  C   UNL     1      -3.141   5.052 -32.583  1.00  0.00     0.041 A 
HETATM   25  C   UNL     1      -1.706   5.532 -32.503  1.00  0.00     0.011 A 
HETATM   26  C   UNL     1      -2.336   5.332 -33.838  1.00  0.00     0.011 A 
ENDBRANCH  21  24
ENDBRANCH   2  17
TORSDOF 4
ENDMDL
MODEL 2
REMARK VINA RESULT:      -7.6      2.788      5.527
REMARK  4 active torsions:
REMARK  status: ('A' for Active; 'I' for Inactive)
REMARK    1  A    between atoms: C_4  and  N_5 
REMARK       I    between atoms: N_5  and  C_6 
REMARK    2  A    between atoms: C_6  and  C_7 
REMARK    3  A    between atoms: C_11  and  C_12 
REMARK    4  A    between atoms: C_18  and  N_19 
REMARK       I    between atoms: N_19  and  C_20 
ROOT
HETATM    1  N   UNL     1      -7.441   0.157 -34.104  1.00  0.00    -0.320 N 
HETATM    2  C   UNL     1      -8.182   0.668 -33.058  1.00  0.00     0.276 C 
HETATM    3  O   UNL     1      -8.116   0.299 -31.891  1.00  0.00    -0.266 OA
HETATM    4  H   UNL     1      -7.461   0.710 -34.957  1.00  0.00     0.169 HD
ENDROOT
BRANCH   1   5
HETATM    5  C   UNL     1      -6.514  -0.915 -34.105  1.00  0.00     0.062 A 
HETATM    6  C   UNL     1      -6.862  -2.164 -34.651  1.00  0.00     0.038 A 
HETATM    7  C   UNL     1      -5.954  -3.231 -34.722  1.00  0.00    -0.060 A 
HETATM    8  C   UNL     1      -6.361  -4.547 -35.316  1.00  0.00     0.048 C 
HETATM    9  C   UNL     1      -4.651  -3.035 -34.280  1.00  0.00     0.009 A 
HETATM   10  C   UNL     1      -4.278  -1.804 -33.744  1.00  0.00     0.032 A 
HETATM   11  C   UNL     1      -5.193  -0.738 -33.621  1.00  0.00     0.061 A 
BRANCH  11  12
HETATM   12  N   UNL     1      -4.628   0.424 -33.028  1.00  0.00    -0.326 N 
HETATM   13  C   UNL     1      -4.530   0.775 -31.702  1.00  0.00     0.218 C 
HETATM   14  C   UNL     1      -3.887   2.123 -31.498  1.00  0.00     0.117 C 
HETATM   15  O   UNL     1      -4.881   0.093 -30.746  1.00  0.00    -0.274 OA
HETATM   16  H   UNL     1      -4.086   1.002 -33.660  1.00  0.00     0.169 HD
ENDBRANCH  11  12
ENDBRANCH   1   5
BRANCH   2  17
HETATM   17  C   UNL     1      -9.054   1.762 -33.406  1.00  0.00     0.142 A 
HETATM   18  N   UNL     1      -8.558   3.036 -33.510  1.00  0.00    -0.271 N 
HETATM   19  H   UNL     1      -7.597   3.324 -33.350  1.00  0.00     0.189 HD
HETATM   20  N   UNL     1      -9.458   3.957 -33.886  1.00  0.00    -0.177 NA
HETATM   21  C   UNL     1     -10.595   3.257 -33.975  1.00  0.00     0.083 A 
HETATM   22  C   UNL     1     -10.408   1.892 -33.648  1.00  0.00     0.094 A 
HETATM   23 CL   UNL     1     -11.626   0.712 -33.540  1.00  0.00    -0.079 Cl
BRANCH  21  24
HETATM   24  C   UNL     1     -11.923   3.887 -34.384  1.00  0.00     0.041 A 
HETATM   25  C   UNL     1     -11.913   5.061 -35.342  1.00  0.00     0.011 A 
HETATM   26  C   UNL     1     -12.381   3.731 -35.822  1.00  0.00     0.011 A 
ENDBRANCH  21  24
ENDBRANCH   2  17
TORSDOF 4
ENDMDL
MODEL 3
REMARK VINA RESULT:      -7.5      2.322      6.870
REMARK  4 active torsions:
REMARK  status: ('A' for Active; 'I' for Inactive)
REMARK    1  A    between atoms: C_4  and  N_5 
REMARK       I    between atoms: N_5  and  C_6 
REMARK    2  A    between atoms: C_6  and  C_7 
REMARK    3  A    between atoms: C_11  and  C_12 
REMARK    4  A    between atoms: C_18  and  N_19 
REMARK       I    between atoms: N_19  and  C_20 
ROOT
HETATM    1  N   UNL     1      -4.229   1.596 -32.552  1.00  0.00    -0.320 N 
HETATM    2  C   UNL     1      -4.363   0.411 -31.859  1.00  0.00     0.276 C 
HETATM    3  O   UNL     1      -4.423   0.301 -30.639  1.00  0.00    -0.266 OA
HETATM    4  H   UNL     1      -4.407   1.533 -33.551  1.00  0.00     0.169 HD
ENDROOT
BRANCH   1   5
HETATM    5  C   UNL     1      -4.067   2.912 -32.053  1.00  0.00     0.062 A 
HETATM    6  C   UNL     1      -2.784   3.477 -31.923  1.00  0.00     0.038 A 
HETATM    7  C   UNL     1      -2.586   4.796 -31.488  1.00  0.00    -0.060 A 
HETATM    8  C   UNL     1      -1.202   5.364 -31.367  1.00  0.00     0.048 C 
HETATM    9  C   UNL     1      -3.694   5.588 -31.218  1.00  0.00     0.009 A 
HETATM   10  C   UNL     1      -4.976   5.056 -31.348  1.00  0.00     0.032 A 
HETATM   11  C   UNL     1      -5.189   3.718 -31.737  1.00  0.00     0.061 A 
BRANCH  11  12
HETATM   12  N   UNL     1      -6.564   3.358 -31.789  1.00  0.00    -0.326 N 
HETATM   13  C   UNL     1      -7.332   2.688 -30.865  1.00  0.00     0.218 C 
HETATM   14  C   UNL     1      -8.751   2.474 -31.327  1.00  0.00     0.117 C 
HETATM   15  O   UNL     1      -6.965   2.309 -29.759  1.00  0.00    -0.274 OA
HETATM   16  H   UNL     1      -7.087   3.789 -32.541  1.00  0.00     0.169 HD
ENDBRANCH  11  12
ENDBRANCH   1   5
BRANCH   2  17
HETATM   17  C   UNL     1      -4.494  -0.766 -32.681  1.00  0.00     0.142 A 
HETATM   18  N   UNL     1      -3.663  -1.840 -32.489  1.00  0.00    -0.271 N 
HETATM   19  H   UNL     1      -2.912  -1.908 -31.808  1.00  0.00     0.189 HD
HETATM   20  N   UNL     1      -3.916  -2.891 -33.283  1.00  0.00    -0.177 NA
HETATM   21  C   UNL     1      -4.918  -2.457 -34.058  1.00  0.00     0.083 A 
HETATM   22  C   UNL     1      -5.290  -1.125 -33.751  1.00  0.00     0.094 A 
HETATM   23 CL   UNL     1      -6.441  -0.191 -34.582  1.00  0.00    -0.079 Cl
BRANCH  21  24
HETATM   24  C   UNL     1      -5.561  -3.321 -35.138  1.00  0.00     0.041 A 
HETATM   25  C   UNL     1      -5.648  -4.819 -34.923  1.00  0.00     0.011 A 
HETATM   26  C   UNL     1      -6.885  -3.995 -34.826  1.00  0.00     0.011 A 
ENDBRANCH  21  24
ENDBRANCH   2  17
TORSDOF 4
ENDMDL
MODEL 4
REMARK VINA RESULT:      -7.5      2.920      5.859
REMARK  4 active torsions:
REMARK  status: ('A' for Active; 'I' for Inactive)
REMARK    1  A    between atoms: C_4  and  N_5 
REMARK       I    between atoms: N_5  and  C_6 
REMARK    2  A    between atoms: C_6  and  C_7 
REMARK    3  A    between atoms: C_11  and  C_12 
REMARK    4  A    between atoms: C_18  and  N_19 
REMARK       I    between atoms: N_19  and  C_20 
ROOT
HETATM    1  N   UNL     1      -8.276  -0.112 -33.863  1.00  0.00    -0.320 N 
HETATM    2  C   UNL     1      -8.945   0.359 -32.753  1.00  0.00     0.276 C 
HETATM    3  O   UNL     1      -8.602   0.188 -31.588  1.00  0.00    -0.266 OA
HETATM    4  H   UNL     1      -8.572   0.293 -34.748  1.00  0.00     0.169 HD
ENDROOT
BRANCH   1   5
HETATM    5  C   UNL     1      -7.121  -0.929 -33.933  1.00  0.00     0.062 A 
HETATM    6  C   UNL     1      -7.180  -2.207 -34.521  1.00  0.00     0.038 A 
HETATM    7  C   UNL     1      -6.047  -3.022 -34.660  1.00  0.00    -0.060 A 
HETATM    8  C   UNL     1      -6.150  -4.377 -35.297  1.00  0.00     0.048 C 
HETATM    9  C   UNL     1      -4.813  -2.535 -34.245  1.00  0.00     0.009 A 
HETATM   10  C   UNL     1      -4.726  -1.268 -33.670  1.00  0.00     0.032 A 
HETATM   11  C   UNL     1      -5.864  -0.458 -33.478  1.00  0.00     0.061 A 
BRANCH  11  12
HETATM   12  N   UNL     1      -5.572   0.785 -32.854  1.00  0.00    -0.326 N 
HETATM   13  C   UNL     1      -5.804   2.067 -33.297  1.00  0.00     0.218 C 
HETATM   14  C   UNL     1      -5.302   3.118 -32.339  1.00  0.00     0.117 C 
HETATM   15  O   UNL     1      -6.377   2.381 -34.333  1.00  0.00    -0.274 OA
HETATM   16  H   UNL     1      -5.294   0.718 -31.882  1.00  0.00     0.169 HD
ENDBRANCH  11  12
ENDBRANCH   1   5
BRANCH   2  17
HETATM   17  C   UNL     1     -10.110   1.160 -33.036  1.00  0.00     0.142 A 
HETATM   18  N   UNL     1     -11.321   0.562 -33.269  1.00  0.00    -0.271 N 
HETATM   19  H   UNL     1     -11.508  -0.436 -33.283  1.00  0.00     0.189 HD
HETATM   20  N   UNL     1     -12.336   1.416 -33.472  1.00  0.00    -0.177 NA
HETATM   21  C   UNL     1     -11.743   2.615 -33.420  1.00  0.00     0.083 A 
HETATM   22  C   UNL     1     -10.350   2.512 -33.190  1.00  0.00     0.094 A 
HETATM   23 CL   UNL     1      -9.241   3.799 -33.167  1.00  0.00    -0.079 Cl
BRANCH  21  24
HETATM   24  C   UNL     1     -12.510   3.923 -33.595  1.00  0.00     0.041 A 
HETATM   25  C   UNL     1     -13.859   4.078 -32.922  1.00  0.00     0.011 A 
HETATM   26  C   UNL     1     -12.685   4.820 -32.384  1.00  0.00     0.011 A 
ENDBRANCH  21  24
ENDBRANCH   2  17
TORSDOF 4
ENDMDL
MODEL 5
REMARK VINA RESULT:      -7.5      2.342      5.142
REMARK  4 active torsions:
REMARK  status: ('A' for Active; 'I' for Inactive)
REMARK    1  A    between atoms: C_4  and  N_5 
REMARK       I    between atoms: N_5  and  C_6 
REMARK    2  A    between atoms: C_6  and  C_7 
REMARK    3  A    between atoms: C_11  and  C_12 
REMARK    4  A    between atoms: C_18  and  N_19 
REMARK       I    between atoms: N_19  and  C_20 
ROOT
HETATM    1  N   UNL     1      -7.281  -0.319 -33.727  1.00  0.00    -0.320 N 
HETATM    2  C   UNL     1      -7.568   0.724 -34.584  1.00  0.00     0.276 C 
HETATM    3  O   UNL     1      -7.107   0.868 -35.711  1.00  0.00    -0.266 OA
HETATM    4  H   UNL     1      -7.902  -0.401 -32.926  1.00  0.00     0.169 HD
ENDROOT
BRANCH   1   5
HETATM    5  C   UNL     1      -6.374  -1.393 -33.897  1.00  0.00     0.062 A 
HETATM    6  C   UNL     1      -6.769  -2.568 -34.565  1.00  0.00     0.038 A 
HETATM    7  C   UNL     1      -5.883  -3.629 -34.803  1.00  0.00    -0.060 A 
HETATM    8  C   UNL     1      -6.341  -4.864 -35.523  1.00  0.00     0.048 C 
HETATM    9  C   UNL     1      -4.558  -3.501 -34.407  1.00  0.00     0.009 A 
HETATM   10  C   UNL     1      -4.138  -2.343 -33.753  1.00  0.00     0.032 A 
HETATM   11  C   UNL     1      -5.028  -1.289 -33.463  1.00  0.00     0.061 A 
BRANCH  11  12
HETATM   12  N   UNL     1      -4.416  -0.209 -32.770  1.00  0.00    -0.326 N 
HETATM   13  C   UNL     1      -4.808   0.431 -31.617  1.00  0.00     0.218 C 
HETATM   14  C   UNL     1      -3.890   1.563 -31.234  1.00  0.00     0.117 C 
HETATM   15  O   UNL     1      -5.771   0.136 -30.919  1.00  0.00    -0.274 OA
HETATM   16  H   UNL     1      -3.481   0.021 -33.084  1.00  0.00     0.169 HD
ENDBRANCH  11  12
ENDBRANCH   1   5
BRANCH   2  17
HETATM   17  C   UNL     1      -8.540   1.669 -34.091  1.00  0.00     0.142 A 
HETATM   18  N   UNL     1      -9.788   1.736 -34.656  1.00  0.00    -0.271 N 
HETATM   19  H   UNL     1     -10.128   1.179 -35.434  1.00  0.00     0.189 HD
HETATM   20  N   UNL     1     -10.615   2.620 -34.078  1.00  0.00    -0.177 NA
HETATM   21  C   UNL     1      -9.851   3.186 -33.136  1.00  0.00     0.083 A 
HETATM   22  C   UNL     1      -8.537   2.658 -33.127  1.00  0.00     0.094 A 
HETATM   23 CL   UNL     1      -7.250   3.193 -32.155  1.00  0.00    -0.079 Cl
BRANCH  21  24
HETATM   24  C   UNL     1     -10.367   4.273 -32.197  1.00  0.00     0.041 A 
HETATM   25  C   UNL     1     -11.775   4.160 -31.649  1.00  0.00     0.011 A 
HETATM   26  C   UNL     1     -10.618   3.909 -30.746  1.00  0.00     0.011 A 
ENDBRANCH  21  24
ENDBRANCH   2  17
TORSDOF 4
ENDMDL
MODEL 6
REMARK VINA RESULT:      -7.3      2.294      3.470
REMARK  4 active torsions:
REMARK  status: ('A' for Active; 'I' for Inactive)
REMARK    1  A    between atoms: C_4  and  N_5 
REMARK       I    between atoms: N_5  and  C_6 
REMARK    2  A    between atoms: C_6  and  C_7 
REMARK    3  A    between atoms: C_11  and  C_12 
REMARK    4  A    between atoms: C_18  and  N_19 
REMARK       I    between atoms: N_19  and  C_20 
ROOT
HETATM    1  N   UNL     1      -4.793   1.766 -32.735  1.00  0.00    -0.320 N 
HETATM    2  C   UNL     1      -4.699   3.106 -33.050  1.00  0.00     0.276 C 
HETATM    3  O   UNL     1      -5.558   3.764 -33.626  1.00  0.00    -0.266 OA
HETATM    4  H   UNL     1      -4.094   1.428 -32.078  1.00  0.00     0.169 HD
ENDROOT
BRANCH   1   5
HETATM    5  C   UNL     1      -5.823   0.843 -33.043  1.00  0.00     0.062 A 
HETATM    6  C   UNL     1      -5.548  -0.315 -33.793  1.00  0.00     0.038 A 
HETATM    7  C   UNL     1      -6.528  -1.280 -34.069  1.00  0.00    -0.060 A 
HETATM    8  C   UNL     1      -6.194  -2.505 -34.868  1.00  0.00     0.048 C 
HETATM    9  C   UNL     1      -7.804  -1.111 -33.547  1.00  0.00     0.009 A 
HETATM   10  C   UNL     1      -8.100   0.023 -32.792  1.00  0.00     0.032 A 
HETATM   11  C   UNL     1      -7.138   1.026 -32.548  1.00  0.00     0.061 A 
BRANCH  11  12
HETATM   12  N   UNL     1      -7.640   2.112 -31.780  1.00  0.00    -0.326 N 
HETATM   13  C   UNL     1      -7.261   2.557 -30.534  1.00  0.00     0.218 C 
HETATM   14  C   UNL     1      -8.080   3.729 -30.057  1.00  0.00     0.117 C 
HETATM   15  O   UNL     1      -6.346   2.108 -29.854  1.00  0.00    -0.274 OA
HETATM   16  H   UNL     1      -8.256   2.739 -32.283  1.00  0.00     0.169 HD
ENDBRANCH  11  12
ENDBRANCH   1   5
BRANCH   2  17
HETATM   17  C   UNL     1      -3.496   3.757 -32.596  1.00  0.00     0.142 A 
HETATM   18  N   UNL     1      -2.936   3.415 -31.392  1.00  0.00    -0.271 N 
HETATM   19  H   UNL     1      -3.293   2.729 -30.734  1.00  0.00     0.189 HD
HETATM   20  N   UNL     1      -1.793   4.058 -31.105  1.00  0.00    -0.177 NA
HETATM   21  C   UNL     1      -1.638   4.888 -32.143  1.00  0.00     0.083 A 
HETATM   22  C   UNL     1      -2.692   4.770 -33.082  1.00  0.00     0.094 A 
HETATM   23 CL   UNL     1      -2.907   5.726 -34.471  1.00  0.00    -0.079 Cl
BRANCH  21  24
HETATM   24  C   UNL     1      -0.453   5.840 -32.269  1.00  0.00     0.041 A 
HETATM   25  C   UNL     1      -0.694   7.331 -32.150  1.00  0.00     0.011 A 
HETATM   26  C   UNL     1      -0.016   6.610 -31.037  1.00  0.00     0.011 A 
ENDBRANCH  21  24
ENDBRANCH   2  17
TORSDOF 4
ENDMDL
MODEL 7
REMARK VINA RESULT:      -7.2      2.624      7.397
REMARK  4 active torsions:
REMARK  status: ('A' for Active; 'I' for Inactive)
REMARK    1  A    between atoms: C_4  and  N_5 
REMARK       I    between atoms: N_5  and  C_6 
REMARK    2  A    between atoms: C_6  and  C_7 
REMARK    3  A    between atoms: C_11  and  C_12 
REMARK    4  A    between atoms: C_18  and  N_19 
REMARK       I    between atoms: N_19  and  C_20 
ROOT
HETATM    1  N   UNL     1      -4.954   2.432 -31.953  1.00  0.00    -0.320 N 
HETATM    2  C   UNL     1      -5.930   1.919 -32.783  1.00  0.00     0.276 C 
HETATM    3  O   UNL     1      -6.946   2.507 -33.136  1.00  0.00    -0.266 OA
HETATM    4  H   UNL     1      -4.086   1.903 -31.931  1.00  0.00     0.169 HD
ENDROOT
BRANCH   1   5
HETATM    5  C   UNL     1      -4.916   3.677 -31.278  1.00  0.00     0.062 A 
HETATM    6  C   UNL     1      -5.753   3.919 -30.173  1.00  0.00     0.038 A 
HETATM    7  C   UNL     1      -5.704   5.116 -29.443  1.00  0.00    -0.060 A 
HETATM    8  C   UNL     1      -6.610   5.336 -28.267  1.00  0.00     0.048 C 
HETATM    9  C   UNL     1      -4.766   6.080 -29.794  1.00  0.00     0.009 A 
HETATM   10  C   UNL     1      -3.918   5.859 -30.879  1.00  0.00     0.032 A 
HETATM   11  C   UNL     1      -3.989   4.682 -31.651  1.00  0.00     0.061 A 
BRANCH  11  12
HETATM   12  N   UNL     1      -3.060   4.657 -32.726  1.00  0.00    -0.326 N 
HETATM   13  C   UNL     1      -3.162   5.192 -33.990  1.00  0.00     0.218 C 
HETATM   14  C   UNL     1      -1.956   4.907 -34.847  1.00  0.00     0.117 C 
HETATM   15  O   UNL     1      -4.095   5.863 -34.417  1.00  0.00    -0.274 OA
HETATM   16  H   UNL     1      -2.133   4.333 -32.478  1.00  0.00     0.169 HD
ENDBRANCH  11  12
ENDBRANCH   1   5
BRANCH   2  17
HETATM   17  C   UNL     1      -5.662   0.599 -33.298  1.00  0.00     0.142 A 
HETATM   18  N   UNL     1      -4.638  -0.151 -32.779  1.00  0.00    -0.271 N 
HETATM   19  H   UNL     1      -3.997   0.130 -32.043  1.00  0.00     0.189 HD
HETATM   20  N   UNL     1      -4.521  -1.379 -33.309  1.00  0.00    -0.177 NA
HETATM   21  C   UNL     1      -5.477  -1.401 -34.246  1.00  0.00     0.083 A 
HETATM   22  C   UNL     1      -6.191  -0.180 -34.308  1.00  0.00     0.094 A 
HETATM   23 CL   UNL     1      -7.400   0.216 -35.435  1.00  0.00    -0.079 Cl
BRANCH  21  24
HETATM   24  C   UNL     1      -5.739  -2.617 -35.129  1.00  0.00     0.041 A 
HETATM   25  C   UNL     1      -5.365  -3.992 -34.612  1.00  0.00     0.011 A 
HETATM   26  C   UNL     1      -6.802  -3.608 -34.691  1.00  0.00     0.011 A 
ENDBRANCH  21  24
ENDBRANCH   2  17
TORSDOF 4
ENDMDL
MODEL 8
REMARK VINA RESULT:      -7.0      2.208      7.235
REMARK  4 active torsions:
REMARK  status: ('A' for Active; 'I' for Inactive)
REMARK    1  A    between atoms: C_4  and  N_5 
REMARK       I    between atoms: N_5  and  C_6 
REMARK    2  A    between atoms: C_6  and  C_7 
REMARK    3  A    between atoms: C_11  and  C_12 
REMARK    4  A    between atoms: C_18  and  N_19 
REMARK       I    between atoms: N_19  and  C_20 
ROOT
HETATM    1  N   UNL     1      -3.363   3.419 -32.445  1.00  0.00    -0.320 N 
HETATM    2  C   UNL     1      -4.086   2.554 -31.649  1.00  0.00     0.276 C 
HETATM    3  O   UNL     1      -4.523   2.810 -30.532  1.00  0.00    -0.266 OA
HETATM    4  H   UNL     1      -3.261   3.128 -33.414  1.00  0.00     0.169 HD
ENDROOT
BRANCH   1   5
HETATM    5  C   UNL     1      -2.908   4.730 -32.159  1.00  0.00     0.062 A 
HETATM    6  C   UNL     1      -1.550   4.973 -31.882  1.00  0.00     0.038 A 
HETATM    7  C   UNL     1      -1.051   6.264 -31.652  1.00  0.00    -0.060 A 
HETATM    8  C   UNL     1       0.405   6.484 -31.364  1.00  0.00     0.048 C 
HETATM    9  C   UNL     1      -1.918   7.346 -31.744  1.00  0.00     0.009 A 
HETATM   10  C   UNL     1      -3.266   7.133 -32.027  1.00  0.00     0.032 A 
HETATM   11  C   UNL     1      -3.791   5.837 -32.213  1.00  0.00     0.061 A 
BRANCH  11  12
HETATM   12  N   UNL     1      -5.190   5.827 -32.467  1.00  0.00    -0.326 N 
HETATM   13  C   UNL     1      -5.880   5.369 -33.565  1.00  0.00     0.218 C 
HETATM   14  C   UNL     1      -7.368   5.581 -33.452  1.00  0.00     0.117 C 
HETATM   15  O   UNL     1      -5.394   4.814 -34.544  1.00  0.00    -0.274 OA
HETATM   16  H   UNL     1      -5.768   6.048 -31.666  1.00  0.00     0.169 HD
ENDBRANCH  11  12
ENDBRANCH   1   5
BRANCH   2  17
HETATM   17  C   UNL     1      -4.373   1.272 -32.244  1.00  0.00     0.142 A 
HETATM   18  N   UNL     1      -3.352   0.416 -32.570  1.00  0.00    -0.271 N 
HETATM   19  H   UNL     1      -2.359   0.590 -32.450  1.00  0.00     0.189 HD
HETATM   20  N   UNL     1      -3.751  -0.763 -33.071  1.00  0.00    -0.177 NA
HETATM   21  C   UNL     1      -5.083  -0.641 -33.120  1.00  0.00     0.083 A 
HETATM   22  C   UNL     1      -5.521   0.623 -32.653  1.00  0.00     0.094 A 
HETATM   23 CL   UNL     1      -7.121   1.193 -32.662  1.00  0.00    -0.079 Cl
BRANCH  21  24
HETATM   24  C   UNL     1      -5.995  -1.754 -33.627  1.00  0.00     0.041 A 
HETATM   25  C   UNL     1      -6.809  -1.519 -34.884  1.00  0.00     0.011 A 
HETATM   26  C   UNL     1      -5.638  -2.437 -34.934  1.00  0.00     0.011 A 
ENDBRANCH  21  24
ENDBRANCH   2  17
TORSDOF 4
ENDMDL
MODEL 9
REMARK VINA RESULT:      -6.9      3.416      6.285
REMARK  4 active torsions:
REMARK  status: ('A' for Active; 'I' for Inactive)
REMARK    1  A    between atoms: C_4  and  N_5 
REMARK       I    between atoms: N_5  and  C_6 
REMARK    2  A    between atoms: C_6  and  C_7 
REMARK    3  A    between atoms: C_11  and  C_12 
REMARK    4  A    between atoms: C_18  and  N_19 
REMARK       I    between atoms: N_19  and  C_20 
ROOT
HETATM    1  N   UNL     1      -8.609   0.811 -34.257  1.00  0.00    -0.320 N 
HETATM    2  C   UNL     1      -9.868   0.738 -33.697  1.00  0.00     0.276 C 
HETATM    3  O   UNL     1     -10.213  -0.044 -32.818  1.00  0.00    -0.266 OA
HETATM    4  H   UNL     1      -8.433   1.643 -34.813  1.00  0.00     0.169 HD
ENDROOT
BRANCH   1   5
HETATM    5  C   UNL     1      -7.475  -0.005 -34.019  1.00  0.00     0.062 A 
HETATM    6  C   UNL     1      -7.374  -1.281 -34.603  1.00  0.00     0.038 A 
HETATM    7  C   UNL     1      -6.242  -2.094 -34.438  1.00  0.00    -0.060 A 
HETATM    8  C   UNL     1      -6.170  -3.448 -35.081  1.00  0.00     0.048 C 
HETATM    9  C   UNL     1      -5.164  -1.605 -33.712  1.00  0.00     0.009 A 
HETATM   10  C   UNL     1      -5.234  -0.339 -33.132  1.00  0.00     0.032 A 
HETATM   11  C   UNL     1      -6.384   0.469 -33.248  1.00  0.00     0.061 A 
BRANCH  11  12
HETATM   12  N   UNL     1      -6.270   1.712 -32.567  1.00  0.00    -0.326 N 
HETATM   13  C   UNL     1      -6.255   2.992 -33.071  1.00  0.00     0.218 C 
HETATM   14  C   UNL     1      -6.078   4.040 -32.003  1.00  0.00     0.117 C 
HETATM   15  O   UNL     1      -6.395   3.306 -34.247  1.00  0.00    -0.274 OA
HETATM   16  H   UNL     1      -6.369   1.655 -31.561  1.00  0.00     0.169 HD
ENDBRANCH  11  12
ENDBRANCH   1   5
BRANCH   2  17
HETATM   17  C   UNL     1     -10.808   1.720 -34.178  1.00  0.00     0.142 A 
HETATM   18  N   UNL     1     -11.568   1.463 -35.290  1.00  0.00    -0.271 N 
HETATM   19  H   UNL     1     -11.539   0.623 -35.860  1.00  0.00     0.189 HD
HETATM   20  N   UNL     1     -12.438   2.434 -35.608  1.00  0.00    -0.177 NA
HETATM   21  C   UNL     1     -12.191   3.379 -34.693  1.00  0.00     0.083 A 
HETATM   22  C   UNL     1     -11.157   3.002 -33.802  1.00  0.00     0.094 A 
HETATM   23 CL   UNL     1     -10.487   3.972 -32.579  1.00  0.00    -0.079 Cl
BRANCH  21  24
HETATM   24  C   UNL     1     -12.953   4.700 -34.645  1.00  0.00     0.041 A 
HETATM   25  C   UNL     1     -12.179   5.998 -34.772  1.00  0.00     0.011 A 
HETATM   26  C   UNL     1     -13.023   5.536 -35.910  1.00  0.00     0.011 A 
ENDBRANCH  21  24
ENDBRANCH   2  17
TORSDOF 4
ENDMDL
MODEL 10
REMARK VINA RESULT:      -6.9     14.361     15.929
REMARK  4 active torsions:
REMARK  status: ('A' for Active; 'I' for Inactive)
REMARK    1  A    between atoms: C_4  and  N_5 
REMARK       I    between atoms: N_5  and  C_6 
REMARK    2  A    between atoms: C_6  and  C_7 
REMARK    3  A    between atoms: C_11  and  C_12 
REMARK    4  A    between atoms: C_18  and  N_19 
REMARK       I    between atoms: N_19  and  C_20 
ROOT
HETATM    1  N   UNL     1      -7.483 -13.858 -36.604  1.00  0.00    -0.320 N 
HETATM    2  C   UNL     1      -7.034 -15.108 -36.231  1.00  0.00     0.276 C 
HETATM    3  O   UNL     1      -6.803 -16.040 -36.994  1.00  0.00    -0.266 OA
HETATM    4  H   UNL     1      -7.421 -13.145 -35.882  1.00  0.00     0.169 HD
ENDROOT
BRANCH   1   5
HETATM    5  C   UNL     1      -7.841 -13.382 -37.890  1.00  0.00     0.062 A 
HETATM    6  C   UNL     1      -9.141 -13.579 -38.392  1.00  0.00     0.038 A 
HETATM    7  C   UNL     1      -9.549 -13.072 -39.635  1.00  0.00    -0.060 A 
HETATM    8  C   UNL     1     -10.945 -13.298 -40.134  1.00  0.00     0.048 C 
HETATM    9  C   UNL     1      -8.654 -12.312 -40.378  1.00  0.00     0.009 A 
HETATM   10  C   UNL     1      -7.363 -12.094 -39.898  1.00  0.00     0.032 A 
HETATM   11  C   UNL     1      -6.924 -12.638 -38.673  1.00  0.00     0.061 A 
BRANCH  11  12
HETATM   12  N   UNL     1      -5.571 -12.324 -38.371  1.00  0.00    -0.326 N 
HETATM   13  C   UNL     1      -4.452 -13.123 -38.414  1.00  0.00     0.218 C 
HETATM   14  C   UNL     1      -3.201 -12.406 -37.976  1.00  0.00     0.117 C 
HETATM   15  O   UNL     1      -4.412 -14.290 -38.788  1.00  0.00    -0.274 OA
HETATM   16  H   UNL     1      -5.380 -11.336 -38.256  1.00  0.00     0.169 HD
ENDBRANCH  11  12
ENDBRANCH   1   5
BRANCH   2  17
HETATM   17  C   UNL     1      -6.775 -15.268 -34.821  1.00  0.00     0.142 A 
HETATM   18  N   UNL     1      -7.374 -16.282 -34.119  1.00  0.00    -0.271 N 
HETATM   19  H   UNL     1      -8.028 -16.967 -34.487  1.00  0.00     0.189 HD
HETATM   20  N   UNL     1      -7.016 -16.355 -32.828  1.00  0.00    -0.177 NA
HETATM   21  C   UNL     1      -6.192 -15.311 -32.679  1.00  0.00     0.083 A 
HETATM   22  C   UNL     1      -6.038 -14.577 -33.880  1.00  0.00     0.094 A 
HETATM   23 CL   UNL     1      -5.164 -13.131 -34.064  1.00  0.00    -0.079 Cl
BRANCH  21  24
HETATM   24  C   UNL     1      -5.514 -14.977 -31.353  1.00  0.00     0.041 A 
HETATM   25  C   UNL     1      -5.299 -16.084 -30.341  1.00  0.00     0.011 A 
HETATM   26  C   UNL     1      -4.131 -15.543 -31.090  1.00  0.00     0.011 A 
ENDBRANCH  21  24
ENDBRANCH   2  17
TORSDOF 4
ENDMDL
