MODEL 1
REMARK VINA RESULT:      -8.7      0.000      0.000
REMARK  2 active torsions:
REMARK  status: ('A' for Active; 'I' for Inactive)
REMARK    1  A    between atoms: C_5  and  C_7 
REMARK    2  A    between atoms: C_5  and  O_6 
ROOT
HETATM    1  C   UNL     1      -4.959   5.325 -30.837  1.00  0.00     0.050 C 
HETATM    2  C   UNL     1      -5.398   4.289 -31.825  1.00  0.00    -0.034 A 
HETATM    3  C   UNL     1      -5.664   2.967 -31.494  1.00  0.00     0.052 A 
HETATM    4  C   UNL     1      -6.065   2.006 -32.439  1.00  0.00     0.039 A 
HETATM    5  C   UNL     1      -6.300   0.684 -31.738  1.00  0.00     0.200 A 
HETATM    6  C   UNL     1      -5.923   1.038 -30.257  1.00  0.00     0.266 A 
HETATM    7  O   UNL     1      -5.954   0.327 -29.264  1.00  0.00    -0.269 OA
HETATM    8  N   UNL     1      -5.590   2.392 -30.232  1.00  0.00    -0.323 N 
HETATM    9  C   UNL     1      -6.234   2.379 -33.762  1.00  0.00     0.046 A 
HETATM   10 CL   UNL     1      -6.795   1.296 -34.971  1.00  0.00    -0.084 Cl
HETATM   11  C   UNL     1      -5.966   3.702 -34.128  1.00  0.00     0.025 A 
HETATM   12  C   UNL     1      -5.549   4.644 -33.172  1.00  0.00     0.011 A 
HETATM   13  H   UNL     1      -5.323   2.853 -29.376  1.00  0.00     0.169 HD
ENDROOT
BRANCH   5  14
HETATM   14  C   UNL     1      -5.369  -0.351 -32.331  1.00  0.00     0.025 A 
HETATM   15  C   UNL     1      -5.702  -1.413 -33.260  1.00  0.00     0.003 A 
HETATM   16  C   UNL     1      -4.532  -2.120 -33.534  1.00  0.00     0.043 A 
HETATM   17  C   UNL     1      -6.886  -1.845 -33.900  1.00  0.00     0.014 A 
HETATM   18  C   UNL     1      -4.482  -3.223 -34.396  1.00  0.00     0.030 A 
HETATM   19  N   UNL     1      -3.523  -1.525 -32.822  1.00  0.00    -0.359 N 
HETATM   20  C   UNL     1      -5.669  -3.622 -35.011  1.00  0.00     0.002 A 
HETATM   21  C   UNL     1      -6.857  -2.943 -34.769  1.00  0.00     0.001 A 
HETATM   22  H   UNL     1      -2.560  -1.830 -32.839  1.00  0.00     0.166 HD
HETATM   23  C   UNL     1      -3.995  -0.456 -32.109  1.00  0.00     0.016 A 
HETATM   24  C   UNL     1      -3.068   0.367 -31.283  1.00  0.00     0.069 C 
ENDBRANCH   5  14
BRANCH   5  25
HETATM   25  O   UNL     1      -7.682   0.337 -31.808  1.00  0.00    -0.371 OA
HETATM   26  H   UNL     1      -7.754  -0.432 -32.394  1.00  0.00     0.212 HD
ENDBRANCH   5  25
TORSDOF 2
ENDMDL
MODEL 2
REMARK VINA RESULT:      -8.3      1.905      2.666
REMARK  2 active torsions:
REMARK  status: ('A' for Active; 'I' for Inactive)
REMARK    1  A    between atoms: C_5  and  C_7 
REMARK    2  A    between atoms: C_5  and  O_6 
ROOT
HETATM    1  C   UNL     1      -2.297   4.093 -32.026  1.00  0.00     0.050 C 
HETATM    2  C   UNL     1      -3.701   3.909 -32.514  1.00  0.00    -0.034 A 
HETATM    3  C   UNL     1      -4.612   3.034 -31.940  1.00  0.00     0.052 A 
HETATM    4  C   UNL     1      -5.923   2.867 -32.420  1.00  0.00     0.039 A 
HETATM    5  C   UNL     1      -6.651   1.865 -31.548  1.00  0.00     0.200 A 
HETATM    6  C   UNL     1      -5.530   1.456 -30.531  1.00  0.00     0.266 A 
HETATM    7  O   UNL     1      -5.592   0.680 -29.589  1.00  0.00    -0.269 OA
HETATM    8  N   UNL     1      -4.400   2.211 -30.841  1.00  0.00    -0.323 N 
HETATM    9  C   UNL     1      -6.356   3.622 -33.498  1.00  0.00     0.046 A 
HETATM   10 CL   UNL     1      -7.960   3.546 -34.105  1.00  0.00    -0.084 Cl
HETATM   11  C   UNL     1      -5.458   4.508 -34.103  1.00  0.00     0.025 A 
HETATM   12  C   UNL     1      -4.146   4.647 -33.619  1.00  0.00     0.011 A 
HETATM   13  H   UNL     1      -3.548   2.127 -30.308  1.00  0.00     0.169 HD
ENDROOT
BRANCH   5  14
HETATM   14  C   UNL     1      -7.090   0.701 -32.411  1.00  0.00     0.025 A 
HETATM   15  C   UNL     1      -6.251  -0.298 -33.042  1.00  0.00     0.003 A 
HETATM   16  C   UNL     1      -7.084  -1.175 -33.736  1.00  0.00     0.043 A 
HETATM   17  C   UNL     1      -4.860  -0.549 -33.091  1.00  0.00     0.014 A 
HETATM   18  C   UNL     1      -6.610  -2.269 -34.471  1.00  0.00     0.030 A 
HETATM   19  N   UNL     1      -8.372  -0.750 -33.540  1.00  0.00    -0.359 N 
HETATM   20  C   UNL     1      -5.232  -2.487 -34.499  1.00  0.00     0.002 A 
HETATM   21  C   UNL     1      -4.366  -1.640 -33.817  1.00  0.00     0.001 A 
HETATM   22  H   UNL     1      -9.186  -1.209 -33.925  1.00  0.00     0.166 HD
HETATM   23  C   UNL     1      -8.403   0.359 -32.738  1.00  0.00     0.016 A 
HETATM   24  C   UNL     1      -9.702   0.980 -32.360  1.00  0.00     0.069 C 
ENDBRANCH   5  14
BRANCH   5  25
HETATM   25  O   UNL     1      -7.715   2.512 -30.852  1.00  0.00    -0.371 OA
HETATM   26  H   UNL     1      -8.515   1.982 -30.996  1.00  0.00     0.212 HD
ENDBRANCH   5  25
TORSDOF 2
ENDMDL
MODEL 3
REMARK VINA RESULT:      -8.3      1.868      5.828
REMARK  2 active torsions:
REMARK  status: ('A' for Active; 'I' for Inactive)
REMARK    1  A    between atoms: C_5  and  C_7 
REMARK    2  A    between atoms: C_5  and  O_6 
ROOT
HETATM    1  C   UNL     1      -5.402  -2.747 -34.364  1.00  0.00     0.050 C 
HETATM    2  C   UNL     1      -5.696  -1.285 -34.227  1.00  0.00    -0.034 A 
HETATM    3  C   UNL     1      -5.027  -0.438 -33.354  1.00  0.00     0.052 A 
HETATM    4  C   UNL     1      -5.326   0.930 -33.233  1.00  0.00     0.039 A 
HETATM    5  C   UNL     1      -4.391   1.558 -32.220  1.00  0.00     0.200 A 
HETATM    6  C   UNL     1      -3.550   0.319 -31.754  1.00  0.00     0.266 A 
HETATM    7  O   UNL     1      -2.631   0.272 -30.950  1.00  0.00    -0.269 OA
HETATM    8  N   UNL     1      -3.992  -0.777 -32.493  1.00  0.00    -0.323 N 
HETATM    9  C   UNL     1      -6.313   1.486 -34.031  1.00  0.00     0.046 A 
HETATM   10 CL   UNL     1      -6.694   3.160 -34.010  1.00  0.00    -0.084 Cl
HETATM   11  C   UNL     1      -7.010   0.657 -34.915  1.00  0.00     0.025 A 
HETATM   12  C   UNL     1      -6.708  -0.712 -35.009  1.00  0.00     0.011 A 
HETATM   13  H   UNL     1      -3.584  -1.692 -32.373  1.00  0.00     0.169 HD
ENDROOT
BRANCH   5  14
HETATM   14  C   UNL     1      -5.218   2.141 -31.094  1.00  0.00     0.025 A 
HETATM   15  C   UNL     1      -5.257   3.519 -30.647  1.00  0.00     0.003 A 
HETATM   16  C   UNL     1      -6.158   3.596 -29.585  1.00  0.00     0.043 A 
HETATM   17  C   UNL     1      -4.615   4.716 -31.040  1.00  0.00     0.014 A 
HETATM   18  C   UNL     1      -6.444   4.784 -28.901  1.00  0.00     0.030 A 
HETATM   19  N   UNL     1      -6.660   2.336 -29.389  1.00  0.00    -0.359 N 
HETATM   20  C   UNL     1      -5.792   5.947 -29.316  1.00  0.00     0.002 A 
HETATM   21  C   UNL     1      -4.890   5.916 -30.373  1.00  0.00     0.001 A 
HETATM   22  H   UNL     1      -7.344   2.101 -28.684  1.00  0.00     0.166 HD
HETATM   23  C   UNL     1      -6.127   1.453 -30.289  1.00  0.00     0.016 A 
HETATM   24  C   UNL     1      -6.552   0.026 -30.287  1.00  0.00     0.069 C 
ENDBRANCH   5  14
BRANCH   5  25
HETATM   25  O   UNL     1      -3.537   2.499 -32.868  1.00  0.00    -0.371 OA
HETATM   26  H   UNL     1      -3.049   2.968 -32.173  1.00  0.00     0.212 HD
ENDBRANCH   5  25
TORSDOF 2
ENDMDL
MODEL 4
REMARK VINA RESULT:      -8.2      2.607      6.005
REMARK  2 active torsions:
REMARK  status: ('A' for Active; 'I' for Inactive)
REMARK    1  A    between atoms: C_5  and  C_7 
REMARK    2  A    between atoms: C_5  and  O_6 
ROOT
HETATM    1  C   UNL     1      -6.050  -2.032 -34.855  1.00  0.00     0.050 C 
HETATM    2  C   UNL     1      -6.127  -1.208 -33.607  1.00  0.00    -0.034 A 
HETATM    3  C   UNL     1      -7.189  -0.371 -33.296  1.00  0.00     0.052 A 
HETATM    4  C   UNL     1      -7.238   0.404 -32.124  1.00  0.00     0.039 A 
HETATM    5  C   UNL     1      -8.543   1.171 -32.085  1.00  0.00     0.200 A 
HETATM    6  C   UNL     1      -9.203   0.744 -33.442  1.00  0.00     0.266 A 
HETATM    7  O   UNL     1     -10.288   1.063 -33.904  1.00  0.00    -0.269 OA
HETATM    8  N   UNL     1      -8.339  -0.167 -34.049  1.00  0.00    -0.323 N 
HETATM    9  C   UNL     1      -6.198   0.325 -31.211  1.00  0.00     0.046 A 
HETATM   10 CL   UNL     1      -6.205   1.173 -29.717  1.00  0.00    -0.084 Cl
HETATM   11  C   UNL     1      -5.110  -0.503 -31.500  1.00  0.00     0.025 A 
HETATM   12  C   UNL     1      -5.073  -1.257 -32.685  1.00  0.00     0.011 A 
HETATM   13  H   UNL     1      -8.560  -0.593 -34.936  1.00  0.00     0.169 HD
ENDROOT
BRANCH   5  14
HETATM   14  C   UNL     1      -8.234   2.652 -32.043  1.00  0.00     0.025 A 
HETATM   15  C   UNL     1      -7.225   3.367 -32.798  1.00  0.00     0.003 A 
HETATM   16  C   UNL     1      -7.301   4.713 -32.440  1.00  0.00     0.043 A 
HETATM   17  C   UNL     1      -6.250   3.004 -33.756  1.00  0.00     0.014 A 
HETATM   18  C   UNL     1      -6.465   5.701 -32.975  1.00  0.00     0.030 A 
HETATM   19  N   UNL     1      -8.310   4.831 -31.521  1.00  0.00    -0.359 N 
HETATM   20  C   UNL     1      -5.513   5.308 -33.918  1.00  0.00     0.002 A 
HETATM   21  C   UNL     1      -5.407   3.978 -34.306  1.00  0.00     0.001 A 
HETATM   22  H   UNL     1      -8.590   5.703 -31.094  1.00  0.00     0.166 HD
HETATM   23  C   UNL     1      -8.894   3.616 -31.279  1.00  0.00     0.016 A 
HETATM   24  C   UNL     1     -10.039   3.505 -30.335  1.00  0.00     0.069 C 
ENDBRANCH   5  14
BRANCH   5  25
HETATM   25  O   UNL     1      -9.344   0.709 -30.998  1.00  0.00    -0.371 OA
HETATM   26  H   UNL     1      -9.626   1.491 -30.498  1.00  0.00     0.212 HD
ENDBRANCH   5  25
TORSDOF 2
ENDMDL
MODEL 5
REMARK VINA RESULT:      -8.1     15.041     16.722
REMARK  2 active torsions:
REMARK  status: ('A' for Active; 'I' for Inactive)
REMARK    1  A    between atoms: C_5  and  C_7 
REMARK    2  A    between atoms: C_5  and  O_6 
ROOT
HETATM    1  C   UNL     1      -0.187 -14.985 -39.890  1.00  0.00     0.050 C 
HETATM    2  C   UNL     1      -1.533 -14.735 -40.497  1.00  0.00    -0.034 A 
HETATM    3  C   UNL     1      -2.528 -13.979 -39.892  1.00  0.00     0.052 A 
HETATM    4  C   UNL     1      -3.789 -13.765 -40.474  1.00  0.00     0.039 A 
HETATM    5  C   UNL     1      -4.614 -12.876 -39.566  1.00  0.00     0.200 A 
HETATM    6  C   UNL     1      -3.637 -12.663 -38.358  1.00  0.00     0.266 A 
HETATM    7  O   UNL     1      -3.800 -12.000 -37.344  1.00  0.00    -0.269 OA
HETATM    8  N   UNL     1      -2.453 -13.330 -38.666  1.00  0.00    -0.323 N 
HETATM    9  C   UNL     1      -4.065 -14.301 -41.722  1.00  0.00     0.046 A 
HETATM   10 CL   UNL     1      -5.547 -14.028 -42.546  1.00  0.00    -0.084 Cl
HETATM   11  C   UNL     1      -3.086 -15.073 -42.354  1.00  0.00     0.025 A 
HETATM   12  C   UNL     1      -1.837 -15.290 -41.748  1.00  0.00     0.011 A 
HETATM   13  H   UNL     1      -1.665 -13.323 -38.037  1.00  0.00     0.169 HD
ENDROOT
BRANCH   5  14
HETATM   14  C   UNL     1      -5.866 -13.626 -39.161  1.00  0.00     0.025 A 
HETATM   15  C   UNL     1      -7.241 -13.274 -39.452  1.00  0.00     0.003 A 
HETATM   16  C   UNL     1      -8.058 -14.250 -38.884  1.00  0.00     0.043 A 
HETATM   17  C   UNL     1      -7.877 -12.219 -40.146  1.00  0.00     0.014 A 
HETATM   18  C   UNL     1      -9.456 -14.228 -38.965  1.00  0.00     0.030 A 
HETATM   19  N   UNL     1      -7.236 -15.166 -38.281  1.00  0.00    -0.359 N 
HETATM   20  C   UNL     1     -10.051 -13.172 -39.658  1.00  0.00     0.002 A 
HETATM   21  C   UNL     1      -9.274 -12.180 -40.243  1.00  0.00     0.001 A 
HETATM   22  H   UNL     1      -7.563 -15.989 -37.795  1.00  0.00     0.166 HD
HETATM   23  C   UNL     1      -5.920 -14.823 -38.447  1.00  0.00     0.016 A 
HETATM   24  C   UNL     1      -4.841 -15.692 -37.902  1.00  0.00     0.069 C 
ENDBRANCH   5  14
BRANCH   5  25
HETATM   25  O   UNL     1      -4.862 -11.625 -40.207  1.00  0.00    -0.371 OA
HETATM   26  H   UNL     1      -5.609 -11.212 -39.747  1.00  0.00     0.212 HD
ENDBRANCH   5  25
TORSDOF 2
ENDMDL
MODEL 6
REMARK VINA RESULT:      -8.0      2.985      4.478
REMARK  2 active torsions:
REMARK  status: ('A' for Active; 'I' for Inactive)
REMARK    1  A    between atoms: C_5  and  C_7 
REMARK    2  A    between atoms: C_5  and  O_6 
ROOT
HETATM    1  C   UNL     1      -0.579   5.277 -30.444  1.00  0.00     0.050 C 
HETATM    2  C   UNL     1      -1.476   5.209 -31.642  1.00  0.00    -0.034 A 
HETATM    3  C   UNL     1      -2.852   5.042 -31.571  1.00  0.00     0.052 A 
HETATM    4  C   UNL     1      -3.675   4.969 -32.708  1.00  0.00     0.039 A 
HETATM    5  C   UNL     1      -5.118   4.818 -32.272  1.00  0.00     0.200 A 
HETATM    6  C   UNL     1      -4.974   4.769 -30.711  1.00  0.00     0.266 A 
HETATM    7  O   UNL     1      -5.846   4.674 -29.860  1.00  0.00    -0.269 OA
HETATM    8  N   UNL     1      -3.620   4.929 -30.419  1.00  0.00    -0.323 N 
HETATM    9  C   UNL     1      -3.112   5.093 -33.968  1.00  0.00     0.046 A 
HETATM   10 CL   UNL     1      -4.044   5.094 -35.410  1.00  0.00    -0.084 Cl
HETATM   11  C   UNL     1      -1.726   5.254 -34.072  1.00  0.00     0.025 A 
HETATM   12  C   UNL     1      -0.919   5.307 -32.924  1.00  0.00     0.011 A 
HETATM   13  H   UNL     1      -3.284   4.943 -29.468  1.00  0.00     0.169 HD
ENDROOT
BRANCH   5  14
HETATM   14  C   UNL     1      -5.661   3.522 -32.834  1.00  0.00     0.025 A 
HETATM   15  C   UNL     1      -5.041   2.213 -32.799  1.00  0.00     0.003 A 
HETATM   16  C   UNL     1      -5.900   1.318 -33.436  1.00  0.00     0.043 A 
HETATM   17  C   UNL     1      -3.830   1.695 -32.284  1.00  0.00     0.014 A 
HETATM   18  C   UNL     1      -5.617  -0.045 -33.591  1.00  0.00     0.030 A 
HETATM   19  N   UNL     1      -7.000   2.030 -33.838  1.00  0.00    -0.359 N 
HETATM   20  C   UNL     1      -4.413  -0.523 -33.071  1.00  0.00     0.002 A 
HETATM   21  C   UNL     1      -3.530   0.334 -32.425  1.00  0.00     0.001 A 
HETATM   22  H   UNL     1      -7.791   1.628 -34.321  1.00  0.00     0.166 HD
HETATM   23  C   UNL     1      -6.889   3.345 -33.475  1.00  0.00     0.016 A 
HETATM   24  C   UNL     1      -7.985   4.306 -33.779  1.00  0.00     0.069 C 
ENDBRANCH   5  14
BRANCH   5  25
HETATM   25  O   UNL     1      -5.861   5.976 -32.647  1.00  0.00    -0.371 OA
HETATM   26  H   UNL     1      -6.105   5.870 -33.579  1.00  0.00     0.212 HD
ENDBRANCH   5  25
TORSDOF 2
ENDMDL
MODEL 7
REMARK VINA RESULT:      -7.8      2.812      5.391
REMARK  2 active torsions:
REMARK  status: ('A' for Active; 'I' for Inactive)
REMARK    1  A    between atoms: C_5  and  C_7 
REMARK    2  A    between atoms: C_5  and  O_6 
ROOT
HETATM    1  C   UNL     1      -2.720  -1.177 -31.971  1.00  0.00     0.050 C 
HETATM    2  C   UNL     1      -3.947  -0.872 -32.772  1.00  0.00    -0.034 A 
HETATM    3  C   UNL     1      -4.607   0.349 -32.743  1.00  0.00     0.052 A 
HETATM    4  C   UNL     1      -5.765   0.613 -33.495  1.00  0.00     0.039 A 
HETATM    5  C   UNL     1      -6.204   2.043 -33.252  1.00  0.00     0.200 A 
HETATM    6  C   UNL     1      -5.139   2.529 -32.208  1.00  0.00     0.266 A 
HETATM    7  O   UNL     1      -5.019   3.627 -31.687  1.00  0.00    -0.269 OA
HETATM    8  N   UNL     1      -4.253   1.471 -32.005  1.00  0.00    -0.323 N 
HETATM    9  C   UNL     1      -6.274  -0.367 -34.331  1.00  0.00     0.046 A 
HETATM   10 CL   UNL     1      -7.636  -0.112 -35.346  1.00  0.00    -0.084 Cl
HETATM   11  C   UNL     1      -5.635  -1.610 -34.377  1.00  0.00     0.025 A 
HETATM   12  C   UNL     1      -4.489  -1.861 -33.604  1.00  0.00     0.011 A 
HETATM   13  H   UNL     1      -3.468   1.555 -31.377  1.00  0.00     0.169 HD
ENDROOT
BRANCH   5  14
HETATM   14  C   UNL     1      -7.603   2.029 -32.674  1.00  0.00     0.025 A 
HETATM   15  C   UNL     1      -8.765   2.750 -33.153  1.00  0.00     0.003 A 
HETATM   16  C   UNL     1      -9.835   2.436 -32.315  1.00  0.00     0.043 A 
HETATM   17  C   UNL     1      -9.018   3.642 -34.221  1.00  0.00     0.014 A 
HETATM   18  C   UNL     1     -11.123   2.960 -32.480  1.00  0.00     0.030 A 
HETATM   19  N   UNL     1      -9.366   1.558 -31.372  1.00  0.00    -0.359 N 
HETATM   20  C   UNL     1     -11.337   3.837 -33.544  1.00  0.00     0.002 A 
HETATM   21  C   UNL     1     -10.300   4.174 -34.406  1.00  0.00     0.001 A 
HETATM   22  H   UNL     1      -9.933   1.158 -30.639  1.00  0.00     0.166 HD
HETATM   23  C   UNL     1      -8.039   1.287 -31.576  1.00  0.00     0.016 A 
HETATM   24  C   UNL     1      -7.322   0.330 -30.689  1.00  0.00     0.069 C 
ENDBRANCH   5  14
BRANCH   5  25
HETATM   25  O   UNL     1      -6.074   2.800 -34.455  1.00  0.00    -0.371 OA
HETATM   26  H   UNL     1      -6.697   2.426 -35.096  1.00  0.00     0.212 HD
ENDBRANCH   5  25
TORSDOF 2
ENDMDL
MODEL 8
REMARK VINA RESULT:      -7.7      3.949      5.406
REMARK  2 active torsions:
REMARK  status: ('A' for Active; 'I' for Inactive)
REMARK    1  A    between atoms: C_5  and  C_7 
REMARK    2  A    between atoms: C_5  and  O_6 
ROOT
HETATM    1  C   UNL     1      -3.972   2.103 -31.057  1.00  0.00     0.050 C 
HETATM    2  C   UNL     1      -5.435   2.386 -30.911  1.00  0.00    -0.034 A 
HETATM    3  C   UNL     1      -6.433   1.646 -31.530  1.00  0.00     0.052 A 
HETATM    4  C   UNL     1      -7.801   1.935 -31.390  1.00  0.00     0.039 A 
HETATM    5  C   UNL     1      -8.609   0.917 -32.168  1.00  0.00     0.200 A 
HETATM    6  C   UNL     1      -7.480   0.037 -32.808  1.00  0.00     0.266 A 
HETATM    7  O   UNL     1      -7.585  -0.947 -33.524  1.00  0.00    -0.269 OA
HETATM    8  N   UNL     1      -6.262   0.540 -32.353  1.00  0.00    -0.323 N 
HETATM    9  C   UNL     1      -8.197   2.987 -30.580  1.00  0.00     0.046 A 
HETATM   10 CL   UNL     1      -9.845   3.368 -30.285  1.00  0.00    -0.084 Cl
HETATM   11  C   UNL     1      -7.214   3.757 -29.949  1.00  0.00     0.025 A 
HETATM   12  C   UNL     1      -5.851   3.462 -30.116  1.00  0.00     0.011 A 
HETATM   13  H   UNL     1      -5.385   0.122 -32.624  1.00  0.00     0.169 HD
ENDROOT
BRANCH   5  14
HETATM   14  C   UNL     1      -9.427   1.645 -33.214  1.00  0.00     0.025 A 
HETATM   15  C   UNL     1     -10.783   1.357 -33.635  1.00  0.00     0.003 A 
HETATM   16  C   UNL     1     -11.128   2.283 -34.619  1.00  0.00     0.043 A 
HETATM   17  C   UNL     1     -11.759   0.399 -33.276  1.00  0.00     0.014 A 
HETATM   18  C   UNL     1     -12.373   2.300 -35.259  1.00  0.00     0.030 A 
HETATM   19  N   UNL     1     -10.048   3.109 -34.793  1.00  0.00    -0.359 N 
HETATM   20  C   UNL     1     -13.313   1.340 -34.880  1.00  0.00     0.002 A 
HETATM   21  C   UNL     1     -13.012   0.401 -33.900  1.00  0.00     0.001 A 
HETATM   22  H   UNL     1     -10.023   3.881 -35.445  1.00  0.00     0.166 HD
HETATM   23  C   UNL     1      -9.025   2.758 -33.953  1.00  0.00     0.016 A 
HETATM   24  C   UNL     1      -7.757   3.539 -33.943  1.00  0.00     0.069 C 
ENDBRANCH   5  14
BRANCH   5  25
HETATM   25  O   UNL     1      -9.382   0.123 -31.269  1.00  0.00    -0.371 OA
HETATM   26  H   UNL     1     -10.309   0.387 -31.379  1.00  0.00     0.212 HD
ENDBRANCH   5  25
TORSDOF 2
ENDMDL
MODEL 9
REMARK VINA RESULT:      -7.5      2.515      4.801
REMARK  2 active torsions:
REMARK  status: ('A' for Active; 'I' for Inactive)
REMARK    1  A    between atoms: C_5  and  C_7 
REMARK    2  A    between atoms: C_5  and  O_6 
ROOT
HETATM    1  C   UNL     1     -11.206   2.860 -33.097  1.00  0.00     0.050 C 
HETATM    2  C   UNL     1      -9.977   2.007 -33.168  1.00  0.00    -0.034 A 
HETATM    3  C   UNL     1      -8.942   2.063 -32.245  1.00  0.00     0.052 A 
HETATM    4  C   UNL     1      -7.790   1.262 -32.334  1.00  0.00     0.039 A 
HETATM    5  C   UNL     1      -6.885   1.553 -31.155  1.00  0.00     0.200 A 
HETATM    6  C   UNL     1      -7.685   2.679 -30.411  1.00  0.00     0.266 A 
HETATM    7  O   UNL     1      -7.408   3.263 -29.375  1.00  0.00    -0.269 OA
HETATM    8  N   UNL     1      -8.869   2.877 -31.121  1.00  0.00    -0.323 N 
HETATM    9  C   UNL     1      -7.673   0.349 -33.370  1.00  0.00     0.046 A 
HETATM   10 CL   UNL     1      -6.342  -0.726 -33.518  1.00  0.00    -0.084 Cl
HETATM   11  C   UNL     1      -8.696   0.275 -34.320  1.00  0.00     0.025 A 
HETATM   12  C   UNL     1      -9.832   1.096 -34.222  1.00  0.00     0.011 A 
HETATM   13  H   UNL     1      -9.556   3.552 -30.822  1.00  0.00     0.169 HD
ENDROOT
BRANCH   5  14
HETATM   14  C   UNL     1      -5.554   2.050 -31.677  1.00  0.00     0.025 A 
HETATM   15  C   UNL     1      -5.288   3.282 -32.392  1.00  0.00     0.003 A 
HETATM   16  C   UNL     1      -3.923   3.323 -32.673  1.00  0.00     0.043 A 
HETATM   17  C   UNL     1      -6.074   4.373 -32.830  1.00  0.00     0.014 A 
HETATM   18  C   UNL     1      -3.310   4.377 -33.363  1.00  0.00     0.030 A 
HETATM   19  N   UNL     1      -3.367   2.184 -32.152  1.00  0.00    -0.359 N 
HETATM   20  C   UNL     1      -4.115   5.438 -33.781  1.00  0.00     0.002 A 
HETATM   21  C   UNL     1      -5.480   5.438 -33.518  1.00  0.00     0.001 A 
HETATM   22  H   UNL     1      -2.384   1.957 -32.204  1.00  0.00     0.166 HD
HETATM   23  C   UNL     1      -4.319   1.416 -31.537  1.00  0.00     0.016 A 
HETATM   24  C   UNL     1      -3.940   0.141 -30.867  1.00  0.00     0.069 C 
ENDBRANCH   5  14
BRANCH   5  25
HETATM   25  O   UNL     1      -6.793   0.401 -30.318  1.00  0.00    -0.371 OA
HETATM   26  H   UNL     1      -7.072  -0.361 -30.850  1.00  0.00     0.212 HD
ENDBRANCH   5  25
TORSDOF 2
ENDMDL
MODEL 10
REMARK VINA RESULT:      -7.5      3.629      5.103
REMARK  2 active torsions:
REMARK  status: ('A' for Active; 'I' for Inactive)
REMARK    1  A    between atoms: C_5  and  C_7 
REMARK    2  A    between atoms: C_5  and  O_6 
ROOT
HETATM    1  C   UNL     1      -1.139   6.297 -33.755  1.00  0.00     0.050 C 
HETATM    2  C   UNL     1      -2.565   5.842 -33.726  1.00  0.00    -0.034 A 
HETATM    3  C   UNL     1      -3.357   5.843 -32.586  1.00  0.00     0.052 A 
HETATM    4  C   UNL     1      -4.691   5.401 -32.577  1.00  0.00     0.039 A 
HETATM    5  C   UNL     1      -5.264   5.568 -31.185  1.00  0.00     0.200 A 
HETATM    6  C   UNL     1      -4.028   6.129 -30.398  1.00  0.00     0.266 A 
HETATM    7  O   UNL     1      -3.949   6.459 -29.225  1.00  0.00    -0.269 OA
HETATM    8  N   UNL     1      -2.987   6.266 -31.315  1.00  0.00    -0.323 N 
HETATM    9  C   UNL     1      -5.272   4.963 -33.756  1.00  0.00     0.046 A 
HETATM   10 CL   UNL     1      -6.917   4.479 -33.861  1.00  0.00    -0.084 Cl
HETATM   11  C   UNL     1      -4.498   4.943 -34.921  1.00  0.00     0.025 A 
HETATM   12  C   UNL     1      -3.161   5.373 -34.905  1.00  0.00     0.011 A 
HETATM   13  H   UNL     1      -2.086   6.626 -31.040  1.00  0.00     0.169 HD
ENDROOT
BRANCH   5  14
HETATM   14  C   UNL     1      -5.697   4.211 -30.673  1.00  0.00     0.025 A 
HETATM   15  C   UNL     1      -5.003   2.947 -30.821  1.00  0.00     0.003 A 
HETATM   16  C   UNL     1      -5.769   1.966 -30.192  1.00  0.00     0.043 A 
HETATM   17  C   UNL     1      -3.794   2.536 -31.428  1.00  0.00     0.014 A 
HETATM   18  C   UNL     1      -5.401   0.616 -30.142  1.00  0.00     0.030 A 
HETATM   19  N   UNL     1      -6.874   2.587 -29.672  1.00  0.00    -0.359 N 
HETATM   20  C   UNL     1      -4.202   0.244 -30.751  1.00  0.00     0.002 A 
HETATM   21  C   UNL     1      -3.406   1.191 -31.385  1.00  0.00     0.001 A 
HETATM   22  H   UNL     1      -7.600   2.113 -29.153  1.00  0.00     0.166 HD
HETATM   23  C   UNL     1      -6.845   3.932 -29.931  1.00  0.00     0.016 A 
HETATM   24  C   UNL     1      -7.932   4.819 -29.432  1.00  0.00     0.069 C 
ENDBRANCH   5  14
BRANCH   5  25
HETATM   25  O   UNL     1      -6.303   6.546 -31.203  1.00  0.00    -0.371 OA
HETATM   26  H   UNL     1      -7.084   6.140 -30.796  1.00  0.00     0.212 HD
ENDBRANCH   5  25
TORSDOF 2
ENDMDL
