MODEL 1
REMARK VINA RESULT:      -7.2      0.000      0.000
REMARK  9 active torsions:
REMARK  status: ('A' for Active; 'I' for Inactive)
REMARK    1  A    between atoms: C_2  and  O_3 
REMARK    2  A    between atoms: O_3  and  C_4 
REMARK    3  A    between atoms: C_4  and  C_5 
REMARK    4  A    between atoms: C_11  and  O_12 
REMARK    5  A    between atoms: C_13  and  C_14 
REMARK    6  A    between atoms: C_14  and  N_15 
REMARK    7  A    between atoms: N_19  and  C_20 
REMARK    8  A    between atoms: C_26  and  C_27 
REMARK    9  A    between atoms: C_27  and  N_28 
ROOT
HETATM    1  C   UNL     1      -9.123   4.099 -33.832  1.00  0.00     0.077 A 
HETATM    2  C   UNL     1     -10.340   3.297 -33.677  1.00  0.00     0.020 A 
HETATM    3  C   UNL     1      -9.925   1.959 -33.706  1.00  0.00     0.053 A 
HETATM    4  C   UNL     1     -10.829   0.880 -33.663  1.00  0.00     0.053 A 
HETATM    5  C   UNL     1     -12.187   1.148 -33.678  1.00  0.00     0.047 A 
HETATM    6 BR   UNL     1     -13.403  -0.304 -33.725  1.00  0.00    -0.048 Br
HETATM    7  C   UNL     1     -12.641   2.462 -33.652  1.00  0.00     0.092 A 
HETATM    8  C   UNL     1     -11.760   3.573 -33.571  1.00  0.00     0.016 A 
HETATM    9  N   UNL     1      -8.538   1.923 -33.745  1.00  0.00    -0.312 N 
HETATM   10  C   UNL     1      -8.032   3.211 -33.862  1.00  0.00     0.060 A 
ENDROOT
BRANCH  10  11
HETATM   11  C   UNL     1      -6.578   3.436 -34.192  1.00  0.00     0.293 C 
BRANCH  11  12
HETATM   12  N   UNL     1      -5.816   4.252 -33.186  1.00  0.00    -0.062 N 
HETATM   13  H   UNL     1      -6.525   4.765 -32.645  1.00  0.00     0.280 HD
HETATM   14  C   UNL     1      -4.965   3.445 -32.222  1.00  0.00     0.261 C 
HETATM   15  C   UNL     1      -4.275   4.393 -31.235  1.00  0.00     0.195 C 
HETATM   16  O   UNL     1      -3.475   5.355 -31.927  1.00  0.00    -0.388 OA
HETATM   17  C   UNL     1      -4.254   6.168 -32.810  1.00  0.00     0.195 C 
HETATM   18  C   UNL     1      -4.947   5.310 -33.873  1.00  0.00     0.261 C 
ENDBRANCH  11  12
ENDBRANCH  10  11
BRANCH   1  19
HETATM   19  C   UNL     1      -9.055   5.557 -34.034  1.00  0.00     0.296 C 
HETATM   20  O   UNL     1      -9.527   6.118 -35.010  1.00  0.00    -0.259 OA
BRANCH  19  21
HETATM   21  O   UNL     1      -8.412   6.225 -33.026  1.00  0.00    -0.318 OA
BRANCH  21  22
HETATM   22  C   UNL     1      -9.017   6.099 -31.720  1.00  0.00     0.174 C 
HETATM   23  C   UNL     1      -7.986   5.712 -30.674  1.00  0.00     0.034 C 
ENDBRANCH  21  22
ENDBRANCH  19  21
ENDBRANCH   1  19
BRANCH   9  24
HETATM   24  C   UNL     1      -7.772   0.730 -33.759  1.00  0.00     0.040 A 
HETATM   25  C   UNL     1      -7.654  -0.001 -34.947  1.00  0.00     0.030 A 
HETATM   26  C   UNL     1      -6.894  -1.170 -34.956  1.00  0.00     0.002 A 
HETATM   27  C   UNL     1      -6.266  -1.606 -33.790  1.00  0.00     0.000 A 
HETATM   28  C   UNL     1      -6.399  -0.882 -32.605  1.00  0.00     0.002 A 
HETATM   29  C   UNL     1      -7.155   0.290 -32.583  1.00  0.00     0.030 A 
ENDBRANCH   9  24
BRANCH   8  30
HETATM   30  C   UNL     1     -12.332   4.981 -33.460  1.00  0.00     0.276 C 
BRANCH  30  31
HETATM   31  N   UNL     1     -13.458   5.362 -34.401  1.00  0.00    -0.075 N 
HETATM   32  H   UNL     1     -14.068   4.527 -34.420  1.00  0.00     0.279 HD
HETATM   33  C   UNL     1     -14.304   6.492 -33.901  1.00  0.00     0.269 C 
HETATM   34  C   UNL     1     -12.980   5.593 -35.801  1.00  0.00     0.269 C 
ENDBRANCH  30  31
ENDBRANCH   8  30
BRANCH   7  35
HETATM   35  O   UNL     1     -13.998   2.702 -33.711  1.00  0.00    -0.359 OA
HETATM   36  H   UNL     1     -14.355   2.144 -34.440  1.00  0.00     0.218 HD
ENDBRANCH   7  35
TORSDOF 9
ENDMDL
MODEL 2
REMARK VINA RESULT:      -7.0      0.808      1.719
REMARK  9 active torsions:
REMARK  status: ('A' for Active; 'I' for Inactive)
REMARK    1  A    between atoms: C_2  and  O_3 
REMARK    2  A    between atoms: O_3  and  C_4 
REMARK    3  A    between atoms: C_4  and  C_5 
REMARK    4  A    between atoms: C_11  and  O_12 
REMARK    5  A    between atoms: C_13  and  C_14 
REMARK    6  A    between atoms: C_14  and  N_15 
REMARK    7  A    between atoms: N_19  and  C_20 
REMARK    8  A    between atoms: C_26  and  C_27 
REMARK    9  A    between atoms: C_27  and  N_28 
ROOT
HETATM    1  C   UNL     1      -9.289   4.221 -33.758  1.00  0.00     0.077 A 
HETATM    2  C   UNL     1     -10.486   3.387 -33.622  1.00  0.00     0.020 A 
HETATM    3  C   UNL     1     -10.038   2.060 -33.665  1.00  0.00     0.053 A 
HETATM    4  C   UNL     1     -10.915   0.958 -33.642  1.00  0.00     0.053 A 
HETATM    5  C   UNL     1     -12.279   1.193 -33.664  1.00  0.00     0.047 A 
HETATM    6 BR   UNL     1     -13.458  -0.288 -33.739  1.00  0.00    -0.048 Br
HETATM    7  C   UNL     1     -12.766   2.494 -33.624  1.00  0.00     0.092 A 
HETATM    8  C   UNL     1     -11.913   3.626 -33.523  1.00  0.00     0.016 A 
HETATM    9  N   UNL     1      -8.650   2.060 -33.694  1.00  0.00    -0.312 N 
HETATM   10  C   UNL     1      -8.175   3.361 -33.791  1.00  0.00     0.060 A 
ENDROOT
BRANCH  10  11
HETATM   11  C   UNL     1      -6.725   3.626 -34.107  1.00  0.00     0.293 C 
BRANCH  11  12
HETATM   12  N   UNL     1      -6.013   4.513 -33.125  1.00  0.00    -0.062 N 
HETATM   13  H   UNL     1      -6.705   5.209 -32.819  1.00  0.00     0.280 HD
HETATM   14  C   UNL     1      -5.471   3.801 -31.898  1.00  0.00     0.261 C 
HETATM   15  C   UNL     1      -4.803   4.823 -30.970  1.00  0.00     0.195 C 
HETATM   16  O   UNL     1      -3.756   5.520 -31.649  1.00  0.00    -0.388 OA
HETATM   17  C   UNL     1      -4.239   6.243 -32.785  1.00  0.00     0.195 C 
HETATM   18  C   UNL     1      -4.883   5.296 -33.803  1.00  0.00     0.261 C 
ENDBRANCH  11  12
ENDBRANCH  10  11
BRANCH   1  19
HETATM   19  C   UNL     1      -9.256   5.683 -33.940  1.00  0.00     0.296 C 
HETATM   20  O   UNL     1      -8.857   6.453 -33.081  1.00  0.00    -0.259 OA
BRANCH  19  21
HETATM   21  O   UNL     1      -9.715   6.098 -35.161  1.00  0.00    -0.318 OA
BRANCH  21  22
HETATM   22  C   UNL     1     -10.360   7.391 -35.171  1.00  0.00     0.174 C 
HETATM   23  C   UNL     1     -10.433   7.956 -36.579  1.00  0.00     0.034 C 
ENDBRANCH  21  22
ENDBRANCH  19  21
ENDBRANCH   1  19
BRANCH   9  24
HETATM   24  C   UNL     1      -7.855   0.886 -33.717  1.00  0.00     0.040 A 
HETATM   25  C   UNL     1      -7.255   0.435 -32.536  1.00  0.00     0.030 A 
HETATM   26  C   UNL     1      -6.480  -0.724 -32.563  1.00  0.00     0.002 A 
HETATM   27  C   UNL     1      -6.302  -1.419 -33.759  1.00  0.00     0.000 A 
HETATM   28  C   UNL     1      -6.891  -0.957 -34.937  1.00  0.00     0.002 A 
HETATM   29  C   UNL     1      -7.670   0.200 -34.922  1.00  0.00     0.030 A 
ENDBRANCH   9  24
BRANCH   8  30
HETATM   30  C   UNL     1     -12.522   5.018 -33.399  1.00  0.00     0.276 C 
BRANCH  30  31
HETATM   31  N   UNL     1     -13.583   5.417 -34.404  1.00  0.00    -0.075 N 
HETATM   32  H   UNL     1     -14.316   4.694 -34.303  1.00  0.00     0.279 HD
HETATM   33  C   UNL     1     -14.239   6.728 -34.098  1.00  0.00     0.269 C 
HETATM   34  C   UNL     1     -13.087   5.351 -35.815  1.00  0.00     0.269 C 
ENDBRANCH  30  31
ENDBRANCH   8  30
BRANCH   7  35
HETATM   35  O   UNL     1     -14.129   2.701 -33.691  1.00  0.00    -0.359 OA
HETATM   36  H   UNL     1     -14.549   2.016 -33.123  1.00  0.00     0.218 HD
ENDBRANCH   7  35
TORSDOF 9
ENDMDL
MODEL 3
REMARK VINA RESULT:      -6.7      3.205      5.719
REMARK  9 active torsions:
REMARK  status: ('A' for Active; 'I' for Inactive)
REMARK    1  A    between atoms: C_2  and  O_3 
REMARK    2  A    between atoms: O_3  and  C_4 
REMARK    3  A    between atoms: C_4  and  C_5 
REMARK    4  A    between atoms: C_11  and  O_12 
REMARK    5  A    between atoms: C_13  and  C_14 
REMARK    6  A    between atoms: C_14  and  N_15 
REMARK    7  A    between atoms: N_19  and  C_20 
REMARK    8  A    between atoms: C_26  and  C_27 
REMARK    9  A    between atoms: C_27  and  N_28 
ROOT
HETATM    1  C   UNL     1      -8.250   2.942 -32.738  1.00  0.00     0.077 A 
HETATM    2  C   UNL     1      -8.165   4.049 -31.782  1.00  0.00     0.020 A 
HETATM    3  C   UNL     1      -6.873   4.577 -31.920  1.00  0.00     0.053 A 
HETATM    4  C   UNL     1      -6.385   5.616 -31.104  1.00  0.00     0.053 A 
HETATM    5  C   UNL     1      -7.178   6.080 -30.069  1.00  0.00     0.047 A 
HETATM    6 BR   UNL     1      -6.482   7.405 -28.909  1.00  0.00    -0.048 Br
HETATM    7  C   UNL     1      -8.465   5.582 -29.897  1.00  0.00     0.092 A 
HETATM    8  C   UNL     1      -9.036   4.621 -30.774  1.00  0.00     0.016 A 
HETATM    9  N   UNL     1      -6.239   3.934 -32.974  1.00  0.00    -0.312 N 
HETATM   10  C   UNL     1      -7.042   2.910 -33.459  1.00  0.00     0.060 A 
ENDROOT
BRANCH  10  11
HETATM   11  C   UNL     1      -6.486   1.890 -34.420  1.00  0.00     0.293 C 
BRANCH  11  12
HETATM   12  N   UNL     1      -6.411   0.487 -33.885  1.00  0.00    -0.062 N 
HETATM   13  H   UNL     1      -7.101   0.439 -33.124  1.00  0.00     0.280 HD
HETATM   14  C   UNL     1      -6.733  -0.599 -34.896  1.00  0.00     0.261 C 
HETATM   15  C   UNL     1      -6.655  -1.969 -34.213  1.00  0.00     0.195 C 
HETATM   16  O   UNL     1      -5.361  -2.181 -33.642  1.00  0.00    -0.388 OA
HETATM   17  C   UNL     1      -5.043  -1.202 -32.648  1.00  0.00     0.195 C 
HETATM   18  C   UNL     1      -5.046   0.207 -33.249  1.00  0.00     0.261 C 
ENDBRANCH  11  12
ENDBRANCH  10  11
BRANCH   1  19
HETATM   19  C   UNL     1      -9.348   1.966 -32.852  1.00  0.00     0.296 C 
HETATM   20  O   UNL     1      -9.286   0.835 -32.394  1.00  0.00    -0.259 OA
BRANCH  19  21
HETATM   21  O   UNL     1     -10.445   2.443 -33.518  1.00  0.00    -0.318 OA
BRANCH  21  22
HETATM   22  C   UNL     1     -11.526   1.499 -33.682  1.00  0.00     0.174 C 
HETATM   23  C   UNL     1     -12.157   1.623 -35.058  1.00  0.00     0.034 C 
ENDBRANCH  21  22
ENDBRANCH  19  21
ENDBRANCH   1  19
BRANCH   9  24
HETATM   24  C   UNL     1      -4.924   4.232 -33.412  1.00  0.00     0.040 A 
HETATM   25  C   UNL     1      -4.739   5.025 -34.550  1.00  0.00     0.030 A 
HETATM   26  C   UNL     1      -3.443   5.321 -34.972  1.00  0.00     0.002 A 
HETATM   27  C   UNL     1      -2.346   4.824 -34.269  1.00  0.00     0.000 A 
HETATM   28  C   UNL     1      -2.537   4.021 -33.143  1.00  0.00     0.002 A 
HETATM   29  C   UNL     1      -3.828   3.719 -32.709  1.00  0.00     0.030 A 
ENDBRANCH   9  24
BRANCH   8  30
HETATM   30  C   UNL     1     -10.482   4.184 -30.573  1.00  0.00     0.276 C 
BRANCH  30  31
HETATM   31  N   UNL     1     -11.488   4.557 -31.643  1.00  0.00    -0.075 N 
HETATM   32  H   UNL     1     -11.194   4.012 -32.471  1.00  0.00     0.279 HD
HETATM   33  C   UNL     1     -12.888   4.127 -31.329  1.00  0.00     0.269 C 
HETATM   34  C   UNL     1     -11.415   6.005 -32.017  1.00  0.00     0.269 C 
ENDBRANCH  30  31
ENDBRANCH   8  30
BRANCH   7  35
HETATM   35  O   UNL     1      -9.219   6.030 -28.832  1.00  0.00    -0.359 OA
HETATM   36  H   UNL     1     -10.161   5.847 -29.051  1.00  0.00     0.218 HD
ENDBRANCH   7  35
TORSDOF 9
ENDMDL
MODEL 4
REMARK VINA RESULT:      -6.6      2.778      6.309
REMARK  9 active torsions:
REMARK  status: ('A' for Active; 'I' for Inactive)
REMARK    1  A    between atoms: C_2  and  O_3 
REMARK    2  A    between atoms: O_3  and  C_4 
REMARK    3  A    between atoms: C_4  and  C_5 
REMARK    4  A    between atoms: C_11  and  O_12 
REMARK    5  A    between atoms: C_13  and  C_14 
REMARK    6  A    between atoms: C_14  and  N_15 
REMARK    7  A    between atoms: N_19  and  C_20 
REMARK    8  A    between atoms: C_26  and  C_27 
REMARK    9  A    between atoms: C_27  and  N_28 
ROOT
HETATM    1  C   UNL     1      -8.620   4.089 -32.254  1.00  0.00     0.077 A 
HETATM    2  C   UNL     1      -7.243   4.510 -32.525  1.00  0.00     0.020 A 
HETATM    3  C   UNL     1      -6.573   3.366 -32.979  1.00  0.00     0.053 A 
HETATM    4  C   UNL     1      -5.195   3.355 -33.270  1.00  0.00     0.053 A 
HETATM    5  C   UNL     1      -4.452   4.496 -33.018  1.00  0.00     0.047 A 
HETATM    6 BR   UNL     1      -2.581   4.450 -33.312  1.00  0.00    -0.048 Br
HETATM    7  C   UNL     1      -5.078   5.652 -32.566  1.00  0.00     0.092 A 
HETATM    8  C   UNL     1      -6.484   5.737 -32.378  1.00  0.00     0.016 A 
HETATM    9  N   UNL     1      -7.492   2.333 -33.108  1.00  0.00    -0.312 N 
HETATM   10  C   UNL     1      -8.733   2.739 -32.635  1.00  0.00     0.060 A 
ENDROOT
BRANCH  10  11
HETATM   11  C   UNL     1      -9.834   1.733 -32.413  1.00  0.00     0.293 C 
BRANCH  11  12
HETATM   12  N   UNL     1     -11.064   1.942 -33.251  1.00  0.00    -0.062 N 
HETATM   13  H   UNL     1     -11.686   2.543 -32.694  1.00  0.00     0.280 HD
HETATM   14  C   UNL     1     -10.817   2.615 -34.590  1.00  0.00     0.261 C 
HETATM   15  C   UNL     1     -12.152   2.797 -35.322  1.00  0.00     0.195 C 
HETATM   16  O   UNL     1     -12.809   1.540 -35.504  1.00  0.00    -0.388 OA
HETATM   17  C   UNL     1     -13.101   0.899 -34.259  1.00  0.00     0.195 C 
HETATM   18  C   UNL     1     -11.816   0.626 -33.471  1.00  0.00     0.261 C 
ENDBRANCH  11  12
ENDBRANCH  10  11
BRANCH   1  19
HETATM   19  C   UNL     1      -9.668   4.891 -31.598  1.00  0.00     0.296 C 
HETATM   20  O   UNL     1      -9.595   5.262 -30.438  1.00  0.00    -0.259 OA
BRANCH  19  21
HETATM   21  O   UNL     1     -10.731   5.180 -32.410  1.00  0.00    -0.318 OA
BRANCH  21  22
HETATM   22  C   UNL     1     -11.940   5.577 -31.726  1.00  0.00     0.174 C 
HETATM   23  C   UNL     1     -12.943   4.437 -31.679  1.00  0.00     0.034 C 
ENDBRANCH  21  22
ENDBRANCH  19  21
ENDBRANCH   1  19
BRANCH   9  24
HETATM   24  C   UNL     1      -7.167   1.032 -33.568  1.00  0.00     0.040 A 
HETATM   25  C   UNL     1      -6.594   0.111 -32.684  1.00  0.00     0.030 A 
HETATM   26  C   UNL     1      -6.283  -1.170 -33.140  1.00  0.00     0.002 A 
HETATM   27  C   UNL     1      -6.537  -1.522 -34.465  1.00  0.00     0.000 A 
HETATM   28  C   UNL     1      -7.096  -0.595 -35.346  1.00  0.00     0.002 A 
HETATM   29  C   UNL     1      -7.412   0.689 -34.902  1.00  0.00     0.030 A 
ENDBRANCH   9  24
BRANCH   8  30
HETATM   30  C   UNL     1      -7.108   7.063 -31.961  1.00  0.00     0.276 C 
BRANCH  30  31
HETATM   31  N   UNL     1      -6.466   7.817 -30.814  1.00  0.00    -0.075 N 
HETATM   32  H   UNL     1      -5.450   7.680 -30.956  1.00  0.00     0.279 HD
HETATM   33  C   UNL     1      -6.703   9.294 -30.857  1.00  0.00     0.269 C 
HETATM   34  C   UNL     1      -6.810   7.229 -29.480  1.00  0.00     0.269 C 
ENDBRANCH  30  31
ENDBRANCH   8  30
BRANCH   7  35
HETATM   35  O   UNL     1      -4.308   6.762 -32.282  1.00  0.00    -0.359 OA
HETATM   36  H   UNL     1      -4.468   7.413 -33.003  1.00  0.00     0.218 HD
ENDBRANCH   7  35
TORSDOF 9
ENDMDL
MODEL 5
REMARK VINA RESULT:      -6.6      3.142      6.339
REMARK  9 active torsions:
REMARK  status: ('A' for Active; 'I' for Inactive)
REMARK    1  A    between atoms: C_2  and  O_3 
REMARK    2  A    between atoms: O_3  and  C_4 
REMARK    3  A    between atoms: C_4  and  C_5 
REMARK    4  A    between atoms: C_11  and  O_12 
REMARK    5  A    between atoms: C_13  and  C_14 
REMARK    6  A    between atoms: C_14  and  N_15 
REMARK    7  A    between atoms: N_19  and  C_20 
REMARK    8  A    between atoms: C_26  and  C_27 
REMARK    9  A    between atoms: C_27  and  N_28 
ROOT
HETATM    1  C   UNL     1      -7.458   4.128 -31.201  1.00  0.00     0.077 A 
HETATM    2  C   UNL     1      -6.306   4.686 -31.914  1.00  0.00     0.020 A 
HETATM    3  C   UNL     1      -5.858   3.673 -32.774  1.00  0.00     0.053 A 
HETATM    4  C   UNL     1      -4.708   3.808 -33.575  1.00  0.00     0.053 A 
HETATM    5  C   UNL     1      -3.939   4.952 -33.450  1.00  0.00     0.047 A 
HETATM    6 BR   UNL     1      -2.337   5.089 -34.451  1.00  0.00    -0.048 Br
HETATM    7  C   UNL     1      -4.347   5.980 -32.607  1.00  0.00     0.092 A 
HETATM    8  C   UNL     1      -5.564   5.931 -31.876  1.00  0.00     0.016 A 
HETATM    9  N   UNL     1      -6.742   2.605 -32.701  1.00  0.00    -0.312 N 
HETATM   10  C   UNL     1      -7.699   2.844 -31.723  1.00  0.00     0.060 A 
ENDROOT
BRANCH  10  11
HETATM   11  C   UNL     1      -8.611   1.737 -31.258  1.00  0.00     0.293 C 
BRANCH  11  12
HETATM   12  N   UNL     1      -9.953   1.693 -31.933  1.00  0.00    -0.062 N 
HETATM   13  H   UNL     1     -10.646   1.610 -31.179  1.00  0.00     0.280 HD
HETATM   14  C   UNL     1     -10.290   2.919 -32.764  1.00  0.00     0.261 C 
HETATM   15  C   UNL     1     -11.691   2.759 -33.363  1.00  0.00     0.195 C 
HETATM   16  O   UNL     1     -11.772   1.574 -34.161  1.00  0.00    -0.388 OA
HETATM   17  C   UNL     1     -11.507   0.393 -33.399  1.00  0.00     0.195 C 
HETATM   18  C   UNL     1     -10.099   0.436 -32.796  1.00  0.00     0.261 C 
ENDBRANCH  11  12
ENDBRANCH  10  11
BRANCH   1  19
HETATM   19  C   UNL     1      -8.170   4.745 -30.068  1.00  0.00     0.296 C 
HETATM   20  O   UNL     1      -9.203   5.382 -30.196  1.00  0.00    -0.259 OA
BRANCH  19  21
HETATM   21  O   UNL     1      -7.564   4.539 -28.857  1.00  0.00    -0.318 OA
BRANCH  21  22
HETATM   22  C   UNL     1      -7.204   5.739 -28.136  1.00  0.00     0.174 C 
HETATM   23  C   UNL     1      -5.768   5.673 -27.645  1.00  0.00     0.034 C 
ENDBRANCH  21  22
ENDBRANCH  19  21
ENDBRANCH   1  19
BRANCH   9  24
HETATM   24  C   UNL     1      -6.612   1.413 -33.457  1.00  0.00     0.040 A 
HETATM   25  C   UNL     1      -5.828   0.364 -32.963  1.00  0.00     0.030 A 
HETATM   26  C   UNL     1      -5.710  -0.809 -33.708  1.00  0.00     0.002 A 
HETATM   27  C   UNL     1      -6.362  -0.929 -34.934  1.00  0.00     0.000 A 
HETATM   28  C   UNL     1      -7.131   0.125 -35.429  1.00  0.00     0.002 A 
HETATM   29  C   UNL     1      -7.259   1.303 -34.693  1.00  0.00     0.030 A 
ENDBRANCH   9  24
BRANCH   8  30
HETATM   30  C   UNL     1      -5.986   7.131 -31.037  1.00  0.00     0.276 C 
BRANCH  30  31
HETATM   31  N   UNL     1      -6.548   8.338 -31.763  1.00  0.00    -0.075 N 
HETATM   32  H   UNL     1      -6.129   8.285 -32.708  1.00  0.00     0.279 HD
HETATM   33  C   UNL     1      -8.032   8.287 -31.956  1.00  0.00     0.269 C 
HETATM   34  C   UNL     1      -6.102   9.630 -31.152  1.00  0.00     0.269 C 
ENDBRANCH  30  31
ENDBRANCH   8  30
BRANCH   7  35
HETATM   35  O   UNL     1      -3.539   7.090 -32.467  1.00  0.00    -0.359 OA
HETATM   36  H   UNL     1      -3.080   7.002 -31.601  1.00  0.00     0.218 HD
ENDBRANCH   7  35
TORSDOF 9
ENDMDL
MODEL 6
REMARK VINA RESULT:      -6.5      3.982      6.834
REMARK  9 active torsions:
REMARK  status: ('A' for Active; 'I' for Inactive)
REMARK    1  A    between atoms: C_2  and  O_3 
REMARK    2  A    between atoms: O_3  and  C_4 
REMARK    3  A    between atoms: C_4  and  C_5 
REMARK    4  A    between atoms: C_11  and  O_12 
REMARK    5  A    between atoms: C_13  and  C_14 
REMARK    6  A    between atoms: C_14  and  N_15 
REMARK    7  A    between atoms: N_19  and  C_20 
REMARK    8  A    between atoms: C_26  and  C_27 
REMARK    9  A    between atoms: C_27  and  N_28 
ROOT
HETATM    1  C   UNL     1      -4.479   2.345 -31.595  1.00  0.00     0.077 A 
HETATM    2  C   UNL     1      -5.940   2.415 -31.500  1.00  0.00     0.020 A 
HETATM    3  C   UNL     1      -6.239   3.733 -31.129  1.00  0.00     0.053 A 
HETATM    4  C   UNL     1      -7.551   4.170 -30.861  1.00  0.00     0.053 A 
HETATM    5  C   UNL     1      -8.579   3.243 -30.882  1.00  0.00     0.047 A 
HETATM    6 BR   UNL     1     -10.327   3.809 -30.421  1.00  0.00    -0.048 Br
HETATM    7  C   UNL     1      -8.325   1.925 -31.244  1.00  0.00     0.092 A 
HETATM    8  C   UNL     1      -7.036   1.475 -31.639  1.00  0.00     0.016 A 
HETATM    9  N   UNL     1      -5.062   4.470 -31.118  1.00  0.00    -0.312 N 
HETATM   10  C   UNL     1      -3.977   3.638 -31.359  1.00  0.00     0.060 A 
ENDROOT
BRANCH  10  11
HETATM   11  C   UNL     1      -2.570   4.132 -31.138  1.00  0.00     0.293 C 
BRANCH  11  12
HETATM   12  N   UNL     1      -1.922   4.763 -32.339  1.00  0.00    -0.062 N 
HETATM   13  H   UNL     1      -1.007   4.305 -32.439  1.00  0.00     0.280 HD
HETATM   14  C   UNL     1      -2.689   4.598 -33.639  1.00  0.00     0.261 C 
HETATM   15  C   UNL     1      -1.904   5.254 -34.780  1.00  0.00     0.195 C 
HETATM   16  O   UNL     1      -1.670   6.638 -34.507  1.00  0.00    -0.388 OA
HETATM   17  C   UNL     1      -0.906   6.831 -33.313  1.00  0.00     0.195 C 
HETATM   18  C   UNL     1      -1.637   6.249 -32.098  1.00  0.00     0.261 C 
ENDBRANCH  11  12
ENDBRANCH  10  11
BRANCH   1  19
HETATM   19  C   UNL     1      -3.671   1.128 -31.789  1.00  0.00     0.296 C 
HETATM   20  O   UNL     1      -2.820   0.759 -30.995  1.00  0.00    -0.259 OA
BRANCH  19  21
HETATM   21  O   UNL     1      -3.963   0.448 -32.941  1.00  0.00    -0.318 OA
BRANCH  21  22
HETATM   22  C   UNL     1      -3.142  -0.712 -33.197  1.00  0.00     0.174 C 
HETATM   23  C   UNL     1      -3.736  -1.955 -32.557  1.00  0.00     0.034 C 
ENDBRANCH  21  22
ENDBRANCH  19  21
ENDBRANCH   1  19
BRANCH   9  24
HETATM   24  C   UNL     1      -4.992   5.852 -30.809  1.00  0.00     0.040 A 
HETATM   25  C   UNL     1      -5.160   6.796 -31.827  1.00  0.00     0.030 A 
HETATM   26  C   UNL     1      -5.098   8.154 -31.516  1.00  0.00     0.002 A 
HETATM   27  C   UNL     1      -4.863   8.562 -30.203  1.00  0.00     0.000 A 
HETATM   28  C   UNL     1      -4.683   7.615 -29.194  1.00  0.00     0.002 A 
HETATM   29  C   UNL     1      -4.745   6.254 -29.492  1.00  0.00     0.030 A 
ENDBRANCH   9  24
BRANCH   8  30
HETATM   30  C   UNL     1      -6.851   0.036 -32.103  1.00  0.00     0.276 C 
BRANCH  30  31
HETATM   31  N   UNL     1      -6.732  -0.216 -33.593  1.00  0.00    -0.075 N 
HETATM   32  H   UNL     1      -5.724  -0.091 -33.793  1.00  0.00     0.279 HD
HETATM   33  C   UNL     1      -7.071  -1.618 -33.995  1.00  0.00     0.269 C 
HETATM   34  C   UNL     1      -7.474   0.799 -34.405  1.00  0.00     0.269 C 
ENDBRANCH  30  31
ENDBRANCH   8  30
BRANCH   7  35
HETATM   35  O   UNL     1      -9.359   1.012 -31.215  1.00  0.00    -0.359 OA
HETATM   36  H   UNL     1     -10.040   1.333 -31.850  1.00  0.00     0.218 HD
ENDBRANCH   7  35
TORSDOF 9
ENDMDL
MODEL 7
REMARK VINA RESULT:      -6.4      2.386      6.381
REMARK  9 active torsions:
REMARK  status: ('A' for Active; 'I' for Inactive)
REMARK    1  A    between atoms: C_2  and  O_3 
REMARK    2  A    between atoms: O_3  and  C_4 
REMARK    3  A    between atoms: C_4  and  C_5 
REMARK    4  A    between atoms: C_11  and  O_12 
REMARK    5  A    between atoms: C_13  and  C_14 
REMARK    6  A    between atoms: C_14  and  N_15 
REMARK    7  A    between atoms: N_19  and  C_20 
REMARK    8  A    between atoms: C_26  and  C_27 
REMARK    9  A    between atoms: C_27  and  N_28 
ROOT
HETATM    1  C   UNL     1      -7.808   3.037 -32.724  1.00  0.00     0.077 A 
HETATM    2  C   UNL     1      -7.255   1.779 -33.235  1.00  0.00     0.020 A 
HETATM    3  C   UNL     1      -8.356   1.010 -33.636  1.00  0.00     0.053 A 
HETATM    4  C   UNL     1      -8.230  -0.309 -34.114  1.00  0.00     0.053 A 
HETATM    5  C   UNL     1      -6.979  -0.902 -34.108  1.00  0.00     0.047 A 
HETATM    6 BR   UNL     1      -6.825  -2.710 -34.653  1.00  0.00    -0.048 Br
HETATM    7  C   UNL     1      -5.861  -0.175 -33.716  1.00  0.00     0.092 A 
HETATM    8  C   UNL     1      -5.932   1.195 -33.345  1.00  0.00     0.016 A 
HETATM    9  N   UNL     1      -9.505   1.778 -33.509  1.00  0.00    -0.312 N 
HETATM   10  C   UNL     1      -9.200   2.998 -32.919  1.00  0.00     0.060 A 
ENDROOT
BRANCH  10  11
HETATM   11  C   UNL     1     -10.298   3.905 -32.425  1.00  0.00     0.293 C 
BRANCH  11  12
HETATM   12  N   UNL     1     -10.567   5.106 -33.289  1.00  0.00    -0.062 N 
HETATM   13  H   UNL     1     -10.227   5.918 -32.757  1.00  0.00     0.280 HD
HETATM   14  C   UNL     1      -9.873   5.089 -34.639  1.00  0.00     0.261 C 
HETATM   15  C   UNL     1     -10.203   6.380 -35.397  1.00  0.00     0.195 C 
HETATM   16  O   UNL     1     -11.616   6.528 -35.561  1.00  0.00    -0.388 OA
HETATM   17  C   UNL     1     -12.300   6.596 -34.306  1.00  0.00     0.195 C 
HETATM   18  C   UNL     1     -12.071   5.319 -33.489  1.00  0.00     0.261 C 
ENDBRANCH  11  12
ENDBRANCH  10  11
BRANCH   1  19
HETATM   19  C   UNL     1      -7.063   4.103 -32.030  1.00  0.00     0.296 C 
HETATM   20  O   UNL     1      -6.678   4.004 -30.875  1.00  0.00    -0.259 OA
BRANCH  19  21
HETATM   21  O   UNL     1      -6.844   5.214 -32.799  1.00  0.00    -0.318 OA
BRANCH  21  22
HETATM   22  C   UNL     1      -5.461   5.612 -32.927  1.00  0.00     0.174 C 
HETATM   23  C   UNL     1      -4.887   5.177 -34.265  1.00  0.00     0.034 C 
ENDBRANCH  21  22
ENDBRANCH  19  21
ENDBRANCH   1  19
BRANCH   9  24
HETATM   24  C   UNL     1     -10.805   1.326 -33.849  1.00  0.00     0.040 A 
HETATM   25  C   UNL     1     -11.365   0.248 -33.154  1.00  0.00     0.030 A 
HETATM   26  C   UNL     1     -12.647  -0.188 -33.487  1.00  0.00     0.002 A 
HETATM   27  C   UNL     1     -13.357   0.443 -34.508  1.00  0.00     0.000 A 
HETATM   28  C   UNL     1     -12.788   1.508 -35.208  1.00  0.00     0.002 A 
HETATM   29  C   UNL     1     -11.508   1.954 -34.883  1.00  0.00     0.030 A 
ENDBRANCH   9  24
BRANCH   8  30
HETATM   30  C   UNL     1      -4.653   1.950 -33.007  1.00  0.00     0.276 C 
BRANCH  30  31
HETATM   31  N   UNL     1      -4.363   2.233 -31.547  1.00  0.00    -0.075 N 
HETATM   32  H   UNL     1      -5.154   2.826 -31.240  1.00  0.00     0.279 HD
HETATM   33  C   UNL     1      -4.390   1.012 -30.680  1.00  0.00     0.269 C 
HETATM   34  C   UNL     1      -3.111   3.031 -31.357  1.00  0.00     0.269 C 
ENDBRANCH  30  31
ENDBRANCH   8  30
BRANCH   7  35
HETATM   35  O   UNL     1      -4.633  -0.804 -33.679  1.00  0.00    -0.359 OA
HETATM   36  H   UNL     1      -4.098  -0.428 -34.415  1.00  0.00     0.218 HD
ENDBRANCH   7  35
TORSDOF 9
ENDMDL
MODEL 8
REMARK VINA RESULT:      -6.4      4.534      8.046
REMARK  9 active torsions:
REMARK  status: ('A' for Active; 'I' for Inactive)
REMARK    1  A    between atoms: C_2  and  O_3 
REMARK    2  A    between atoms: O_3  and  C_4 
REMARK    3  A    between atoms: C_4  and  C_5 
REMARK    4  A    between atoms: C_11  and  O_12 
REMARK    5  A    between atoms: C_13  and  C_14 
REMARK    6  A    between atoms: C_14  and  N_15 
REMARK    7  A    between atoms: N_19  and  C_20 
REMARK    8  A    between atoms: C_26  and  C_27 
REMARK    9  A    between atoms: C_27  and  N_28 
ROOT
HETATM    1  C   UNL     1      -3.564   4.946 -31.351  1.00  0.00     0.077 A 
HETATM    2  C   UNL     1      -4.908   4.363 -31.390  1.00  0.00     0.020 A 
HETATM    3  C   UNL     1      -5.732   5.248 -30.681  1.00  0.00     0.053 A 
HETATM    4  C   UNL     1      -7.093   4.988 -30.433  1.00  0.00     0.053 A 
HETATM    5  C   UNL     1      -7.622   3.771 -30.829  1.00  0.00     0.047 A 
HETATM    6 BR   UNL     1      -9.425   3.378 -30.403  1.00  0.00    -0.048 Br
HETATM    7  C   UNL     1      -6.838   2.864 -31.532  1.00  0.00     0.092 A 
HETATM    8  C   UNL     1      -5.496   3.143 -31.908  1.00  0.00     0.016 A 
HETATM    9  N   UNL     1      -4.989   6.369 -30.335  1.00  0.00    -0.312 N 
HETATM   10  C   UNL     1      -3.660   6.189 -30.698  1.00  0.00     0.060 A 
ENDROOT
BRANCH  10  11
HETATM   11  C   UNL     1      -2.596   7.134 -30.200  1.00  0.00     0.293 C 
BRANCH  11  12
HETATM   12  N   UNL     1      -1.687   6.568 -29.145  1.00  0.00    -0.062 N 
HETATM   13  H   UNL     1      -1.958   5.582 -29.038  1.00  0.00     0.280 HD
HETATM   14  C   UNL     1      -0.207   6.627 -29.479  1.00  0.00     0.261 C 
HETATM   15  C   UNL     1       0.599   5.989 -28.341  1.00  0.00     0.195 C 
HETATM   16  O   UNL     1       0.337   6.650 -27.100  1.00  0.00    -0.388 OA
HETATM   17  C   UNL     1      -1.042   6.572 -26.728  1.00  0.00     0.195 C 
HETATM   18  C   UNL     1      -1.931   7.233 -27.787  1.00  0.00     0.261 C 
ENDBRANCH  11  12
ENDBRANCH  10  11
BRANCH   1  19
HETATM   19  C   UNL     1      -2.318   4.306 -31.809  1.00  0.00     0.296 C 
HETATM   20  O   UNL     1      -1.432   3.952 -31.048  1.00  0.00    -0.259 OA
BRANCH  19  21
HETATM   21  O   UNL     1      -2.245   4.146 -33.167  1.00  0.00    -0.318 OA
BRANCH  21  22
HETATM   22  C   UNL     1      -2.277   5.370 -33.934  1.00  0.00     0.174 C 
HETATM   23  C   UNL     1      -3.335   5.306 -35.022  1.00  0.00     0.034 C 
ENDBRANCH  21  22
ENDBRANCH  19  21
ENDBRANCH   1  19
BRANCH   9  24
HETATM   24  C   UNL     1      -5.510   7.482 -29.630  1.00  0.00     0.040 A 
HETATM   25  C   UNL     1      -5.593   7.438 -28.234  1.00  0.00     0.030 A 
HETATM   26  C   UNL     1      -6.100   8.539 -27.545  1.00  0.00     0.002 A 
HETATM   27  C   UNL     1      -6.525   9.668 -28.245  1.00  0.00     0.000 A 
HETATM   28  C   UNL     1      -6.453   9.702 -29.638  1.00  0.00     0.002 A 
HETATM   29  C   UNL     1      -5.946   8.607 -30.339  1.00  0.00     0.030 A 
ENDBRANCH   9  24
BRANCH   8  30
HETATM   30  C   UNL     1      -4.726   2.135 -32.751  1.00  0.00     0.276 C 
BRANCH  30  31
HETATM   31  N   UNL     1      -4.521   0.746 -32.181  1.00  0.00    -0.075 N 
HETATM   32  H   UNL     1      -5.331   0.606 -31.552  1.00  0.00     0.279 HD
HETATM   33  C   UNL     1      -4.591  -0.342 -33.207  1.00  0.00     0.269 C 
HETATM   34  C   UNL     1      -3.286   0.650 -31.341  1.00  0.00     0.269 C 
ENDBRANCH  30  31
ENDBRANCH   8  30
BRANCH   7  35
HETATM   35  O   UNL     1      -7.376   1.641 -31.877  1.00  0.00    -0.359 OA
HETATM   36  H   UNL     1      -7.666   1.711 -32.815  1.00  0.00     0.218 HD
ENDBRANCH   7  35
TORSDOF 9
ENDMDL
MODEL 9
REMARK VINA RESULT:      -6.3      3.004      7.706
REMARK  9 active torsions:
REMARK  status: ('A' for Active; 'I' for Inactive)
REMARK    1  A    between atoms: C_2  and  O_3 
REMARK    2  A    between atoms: O_3  and  C_4 
REMARK    3  A    between atoms: C_4  and  C_5 
REMARK    4  A    between atoms: C_11  and  O_12 
REMARK    5  A    between atoms: C_13  and  C_14 
REMARK    6  A    between atoms: C_14  and  N_15 
REMARK    7  A    between atoms: N_19  and  C_20 
REMARK    8  A    between atoms: C_26  and  C_27 
REMARK    9  A    between atoms: C_27  and  N_28 
ROOT
HETATM    1  C   UNL     1      -8.352   2.151 -33.045  1.00  0.00     0.077 A 
HETATM    2  C   UNL     1      -7.866   2.738 -31.794  1.00  0.00     0.020 A 
HETATM    3  C   UNL     1      -8.806   3.716 -31.438  1.00  0.00     0.053 A 
HETATM    4  C   UNL     1      -8.642   4.559 -30.321  1.00  0.00     0.053 A 
HETATM    5  C   UNL     1      -7.469   4.477 -29.592  1.00  0.00     0.047 A 
HETATM    6 BR   UNL     1      -7.204   5.680 -28.152  1.00  0.00    -0.048 Br
HETATM    7  C   UNL     1      -6.511   3.522 -29.912  1.00  0.00     0.092 A 
HETATM    8  C   UNL     1      -6.695   2.575 -30.955  1.00  0.00     0.016 A 
HETATM    9  N   UNL     1      -9.868   3.659 -32.330  1.00  0.00    -0.312 N 
HETATM   10  C   UNL     1      -9.595   2.742 -33.337  1.00  0.00     0.060 A 
ENDROOT
BRANCH  10  11
HETATM   11  C   UNL     1     -10.458   2.681 -34.572  1.00  0.00     0.293 C 
BRANCH  11  12
HETATM   12  N   UNL     1     -11.565   1.666 -34.523  1.00  0.00    -0.062 N 
HETATM   13  H   UNL     1     -11.514   1.150 -35.411  1.00  0.00     0.280 HD
HETATM   14  C   UNL     1     -11.468   0.670 -33.381  1.00  0.00     0.261 C 
HETATM   15  C   UNL     1     -12.633  -0.322 -33.470  1.00  0.00     0.195 C 
HETATM   16  O   UNL     1     -13.889   0.361 -33.436  1.00  0.00    -0.388 OA
HETATM   17  C   UNL     1     -14.035   1.274 -34.527  1.00  0.00     0.195 C 
HETATM   18  C   UNL     1     -12.939   2.344 -34.496  1.00  0.00     0.261 C 
ENDBRANCH  11  12
ENDBRANCH  10  11
BRANCH   1  19
HETATM   19  C   UNL     1      -7.626   1.200 -33.906  1.00  0.00     0.296 C 
HETATM   20  O   UNL     1      -6.749   1.540 -34.684  1.00  0.00    -0.259 OA
BRANCH  19  21
HETATM   21  O   UNL     1      -8.026  -0.100 -33.752  1.00  0.00    -0.318 OA
BRANCH  21  22
HETATM   22  C   UNL     1      -6.968  -1.042 -33.466  1.00  0.00     0.174 C 
HETATM   23  C   UNL     1      -6.798  -2.036 -34.602  1.00  0.00     0.034 C 
ENDBRANCH  21  22
ENDBRANCH  19  21
ENDBRANCH   1  19
BRANCH   9  24
HETATM   24  C   UNL     1     -11.013   4.492 -32.258  1.00  0.00     0.040 A 
HETATM   25  C   UNL     1     -11.022   5.714 -32.940  1.00  0.00     0.030 A 
HETATM   26  C   UNL     1     -12.154   6.525 -32.872  1.00  0.00     0.002 A 
HETATM   27  C   UNL     1     -13.260   6.123 -32.125  1.00  0.00     0.000 A 
HETATM   28  C   UNL     1     -13.240   4.909 -31.435  1.00  0.00     0.002 A 
HETATM   29  C   UNL     1     -12.115   4.087 -31.497  1.00  0.00     0.030 A 
ENDBRANCH   9  24
BRANCH   8  30
HETATM   30  C   UNL     1      -5.638   1.504 -31.194  1.00  0.00     0.276 C 
BRANCH  30  31
HETATM   31  N   UNL     1      -4.718   1.672 -32.386  1.00  0.00    -0.075 N 
HETATM   32  H   UNL     1      -5.334   1.536 -33.206  1.00  0.00     0.279 HD
HETATM   33  C   UNL     1      -4.143   3.048 -32.513  1.00  0.00     0.269 C 
HETATM   34  C   UNL     1      -3.662   0.612 -32.446  1.00  0.00     0.269 C 
ENDBRANCH  30  31
ENDBRANCH   8  30
BRANCH   7  35
HETATM   35  O   UNL     1      -5.331   3.491 -29.196  1.00  0.00    -0.359 OA
HETATM   36  H   UNL     1      -5.353   2.675 -28.646  1.00  0.00     0.218 HD
ENDBRANCH   7  35
TORSDOF 9
ENDMDL
MODEL 10
REMARK VINA RESULT:      -6.2      3.081      6.089
REMARK  9 active torsions:
REMARK  status: ('A' for Active; 'I' for Inactive)
REMARK    1  A    between atoms: C_2  and  O_3 
REMARK    2  A    between atoms: O_3  and  C_4 
REMARK    3  A    between atoms: C_4  and  C_5 
REMARK    4  A    between atoms: C_11  and  O_12 
REMARK    5  A    between atoms: C_13  and  C_14 
REMARK    6  A    between atoms: C_14  and  N_15 
REMARK    7  A    between atoms: N_19  and  C_20 
REMARK    8  A    between atoms: C_26  and  C_27 
REMARK    9  A    between atoms: C_27  and  N_28 
ROOT
HETATM    1  C   UNL     1      -6.734   3.942 -32.476  1.00  0.00     0.077 A 
HETATM    2  C   UNL     1      -6.163   2.602 -32.321  1.00  0.00     0.020 A 
HETATM    3  C   UNL     1      -4.772   2.776 -32.301  1.00  0.00     0.053 A 
HETATM    4  C   UNL     1      -3.870   1.696 -32.244  1.00  0.00     0.053 A 
HETATM    5  C   UNL     1      -4.371   0.406 -32.295  1.00  0.00     0.047 A 
HETATM    6 BR   UNL     1      -3.153  -1.044 -32.322  1.00  0.00    -0.048 Br
HETATM    7  C   UNL     1      -5.744   0.190 -32.317  1.00  0.00     0.092 A 
HETATM    8  C   UNL     1      -6.686   1.251 -32.253  1.00  0.00     0.016 A 
HETATM    9  N   UNL     1      -4.494   4.136 -32.311  1.00  0.00    -0.312 N 
HETATM   10  C   UNL     1      -5.669   4.862 -32.457  1.00  0.00     0.060 A 
ENDROOT
BRANCH  10  11
HETATM   11  C   UNL     1      -5.625   6.337 -32.764  1.00  0.00     0.293 C 
BRANCH  11  12
HETATM   12  N   UNL     1      -5.789   7.239 -31.573  1.00  0.00    -0.062 N 
HETATM   13  H   UNL     1      -6.541   7.897 -31.819  1.00  0.00     0.280 HD
HETATM   14  C   UNL     1      -6.171   6.532 -30.284  1.00  0.00     0.261 C 
HETATM   15  C   UNL     1      -6.339   7.567 -29.166  1.00  0.00     0.195 C 
HETATM   16  O   UNL     1      -5.140   8.324 -28.988  1.00  0.00    -0.388 OA
HETATM   17  C   UNL     1      -4.775   9.044 -30.169  1.00  0.00     0.195 C 
HETATM   18  C   UNL     1      -4.534   8.085 -31.340  1.00  0.00     0.261 C 
ENDBRANCH  11  12
ENDBRANCH  10  11
BRANCH   1  19
HETATM   19  C   UNL     1      -8.150   4.268 -32.720  1.00  0.00     0.296 C 
HETATM   20  O   UNL     1      -8.903   4.669 -31.846  1.00  0.00    -0.259 OA
BRANCH  19  21
HETATM   21  O   UNL     1      -8.545   4.078 -34.017  1.00  0.00    -0.318 OA
BRANCH  21  22
HETATM   22  C   UNL     1      -9.706   4.835 -34.425  1.00  0.00     0.174 C 
HETATM   23  C   UNL     1     -10.688   3.963 -35.188  1.00  0.00     0.034 C 
ENDBRANCH  21  22
ENDBRANCH  19  21
ENDBRANCH   1  19
BRANCH   9  24
HETATM   24  C   UNL     1      -3.185   4.681 -32.272  1.00  0.00     0.040 A 
HETATM   25  C   UNL     1      -2.623   5.039 -31.043  1.00  0.00     0.030 A 
HETATM   26  C   UNL     1      -1.332   5.567 -31.010  1.00  0.00     0.002 A 
HETATM   27  C   UNL     1      -0.617   5.741 -32.194  1.00  0.00     0.000 A 
HETATM   28  C   UNL     1      -1.189   5.395 -33.420  1.00  0.00     0.002 A 
HETATM   29  C   UNL     1      -2.477   4.864 -33.465  1.00  0.00     0.030 A 
ENDBRANCH   9  24
BRANCH   8  30
HETATM   30  C   UNL     1      -8.175   0.932 -32.197  1.00  0.00     0.276 C 
BRANCH  30  31
HETATM   31  N   UNL     1      -8.988   1.131 -33.460  1.00  0.00    -0.075 N 
HETATM   32  H   UNL     1      -9.010   2.157 -33.591  1.00  0.00     0.279 HD
HETATM   33  C   UNL     1      -8.343   0.563 -34.686  1.00  0.00     0.269 C 
HETATM   34  C   UNL     1     -10.405   0.673 -33.305  1.00  0.00     0.269 C 
ENDBRANCH  30  31
ENDBRANCH   8  30
BRANCH   7  35
HETATM   35  O   UNL     1      -6.215  -1.104 -32.412  1.00  0.00    -0.359 OA
HETATM   36  H   UNL     1      -6.282  -1.314 -33.371  1.00  0.00     0.218 HD
ENDBRANCH   7  35
TORSDOF 9
ENDMDL
