MODEL 1
REMARK VINA RESULT:      -7.9      0.000      0.000
REMARK  11 active torsions:
REMARK  status: ('A' for Active; 'I' for Inactive)
REMARK    1  A    between atoms: O_2  and  C_3 
REMARK    2  A    between atoms: C_6  and  C_7 
REMARK    3  A    between atoms: C_7  and  N_8 
REMARK    4  A    between atoms: C_7  and  C_29 
REMARK       I    between atoms: N_8  and  C_9 
REMARK    5  A    between atoms: N_8  and  C_20 
REMARK    6  A    between atoms: C_9  and  C_10 
REMARK    7  A    between atoms: C_13  and  C_14 
REMARK       I    between atoms: C_14  and  N_15 
REMARK    8  A    between atoms: C_17  and  N_18 
REMARK    9  A    between atoms: C_20  and  C_21 
REMARK   10  A    between atoms: C_21  and  N_22 
REMARK       I    between atoms: C_29  and  N_30 
REMARK   11  A    between atoms: N_30  and  C_31 
ROOT
HETATM    1  N   UNL     1      -7.778   2.929 -32.244  1.00  0.00    -0.328 N 
HETATM    2  C   UNL     1      -8.084   3.483 -30.987  1.00  0.00     0.265 C 
HETATM    3  O   UNL     1      -8.955   2.984 -30.276  1.00  0.00    -0.267 OA
ENDROOT
BRANCH   1   4
HETATM    4  C   UNL     1      -8.576   1.770 -32.693  1.00  0.00     0.213 C 
BRANCH   4   5
HETATM    5  C   UNL     1      -7.832   0.554 -33.220  1.00  0.00    -0.026 A 
HETATM    6  C   UNL     1      -7.874   0.160 -34.564  1.00  0.00     0.012 A 
HETATM    7  C   UNL     1      -7.063  -0.878 -35.032  1.00  0.00     0.037 A 
HETATM    8  C   UNL     1      -6.170  -1.527 -34.180  1.00  0.00     0.068 A 
HETATM    9  C   UNL     1      -6.127  -1.163 -32.838  1.00  0.00     0.037 A 
HETATM   10  C   UNL     1      -6.945  -0.130 -32.365  1.00  0.00     0.012 A 
BRANCH   8  11
HETATM   11  O   UNL     1      -5.404  -2.491 -34.770  1.00  0.00    -0.356 OA
HETATM   12  C   UNL     1      -6.047  -3.732 -35.039  1.00  0.00     0.210 C 
ENDBRANCH   8  11
ENDBRANCH   4   5
BRANCH   4  13
HETATM   13  C   UNL     1      -9.783   2.294 -33.504  1.00  0.00     0.245 C 
HETATM   14  N   UNL     1     -10.987   1.672 -33.312  1.00  0.00    -0.354 N 
HETATM   15  H   UNL     1     -10.928   0.745 -32.889  1.00  0.00     0.162 HD
HETATM   16  O   UNL     1      -9.575   3.162 -34.360  1.00  0.00    -0.271 OA
BRANCH  14  17
HETATM   17  C   UNL     1     -12.244   1.966 -33.990  1.00  0.00     0.084 C 
HETATM   18  C   UNL     1     -13.153   0.747 -34.164  1.00  0.00     0.025 C 
HETATM   19  C   UNL     1     -14.418   1.016 -33.351  1.00  0.00     0.002 C 
HETATM   20  C   UNL     1     -14.151   2.262 -32.521  1.00  0.00     0.002 C 
HETATM   21  C   UNL     1     -13.095   3.029 -33.298  1.00  0.00     0.025 C 
ENDBRANCH  14  17
ENDBRANCH   4  13
ENDBRANCH   1   4
BRANCH   1  22
HETATM   22  C   UNL     1      -6.733   3.440 -33.153  1.00  0.00     0.155 C 
BRANCH  22  23
HETATM   23  C   UNL     1      -5.312   2.872 -32.928  1.00  0.00     0.255 C 
BRANCH  23  24
HETATM   24  N   UNL     1      -4.199   3.866 -33.166  1.00  0.00    -0.066 N 
HETATM   25  H   UNL     1      -3.786   3.704 -34.107  1.00  0.00     0.280 HD
HETATM   26  C   UNL     1      -4.632   5.324 -33.095  1.00  0.00     0.261 C 
HETATM   27  C   UNL     1      -3.428   6.243 -33.331  1.00  0.00     0.195 C 
HETATM   28  O   UNL     1      -2.397   5.983 -32.371  1.00  0.00    -0.388 OA
HETATM   29  C   UNL     1      -1.913   4.640 -32.481  1.00  0.00     0.195 C 
HETATM   30  C   UNL     1      -3.032   3.630 -32.204  1.00  0.00     0.261 C 
ENDBRANCH  23  24
ENDBRANCH  22  23
ENDBRANCH   1  22
BRANCH   2  31
HETATM   31  C   UNL     1      -7.331   4.629 -30.558  1.00  0.00     0.115 A 
HETATM   32  S   UNL     1      -7.908   6.196 -30.898  1.00  0.00     0.019 SA
HETATM   33  N   UNL     1      -6.611   7.003 -30.260  1.00  0.00    -0.203 NA
HETATM   34  C   UNL     1      -5.775   6.120 -29.690  1.00  0.00     0.155 A 
HETATM   35  C   UNL     1      -6.171   4.732 -29.824  1.00  0.00     0.065 A 
BRANCH  34  36
HETATM   36  C   UNL     1      -4.566   6.592 -28.994  1.00  0.00     0.270 C 
HETATM   37  N   UNL     1      -3.379   6.195 -29.543  1.00  0.00    -0.365 N 
HETATM   38  H   UNL     1      -3.372   5.674 -30.412  1.00  0.00     0.159 HD
HETATM   39  H   UNL     1      -2.512   6.537 -29.154  1.00  0.00     0.159 HD
HETATM   40  O   UNL     1      -4.606   7.294 -27.987  1.00  0.00    -0.266 OA
ENDBRANCH  34  36
BRANCH  35  41
HETATM   41  N   UNL     1      -5.487   3.667 -29.315  1.00  0.00    -0.299 NA
HETATM   42  H   UNL     1      -5.561   3.538 -28.295  1.00  0.00     0.124 HD
HETATM   43  H   UNL     1      -5.619   2.759 -29.766  1.00  0.00     0.124 HD
ENDBRANCH  35  41
ENDBRANCH   2  31
TORSDOF 11
ENDMDL
MODEL 2
REMARK VINA RESULT:      -7.4      2.651      7.143
REMARK  11 active torsions:
REMARK  status: ('A' for Active; 'I' for Inactive)
REMARK    1  A    between atoms: O_2  and  C_3 
REMARK    2  A    between atoms: C_6  and  C_7 
REMARK    3  A    between atoms: C_7  and  N_8 
REMARK    4  A    between atoms: C_7  and  C_29 
REMARK       I    between atoms: N_8  and  C_9 
REMARK    5  A    between atoms: N_8  and  C_20 
REMARK    6  A    between atoms: C_9  and  C_10 
REMARK    7  A    between atoms: C_13  and  C_14 
REMARK       I    between atoms: C_14  and  N_15 
REMARK    8  A    between atoms: C_17  and  N_18 
REMARK    9  A    between atoms: C_20  and  C_21 
REMARK   10  A    between atoms: C_21  and  N_22 
REMARK       I    between atoms: C_29  and  N_30 
REMARK   11  A    between atoms: N_30  and  C_31 
ROOT
HETATM    1  N   UNL     1      -7.884   3.397 -31.811  1.00  0.00    -0.328 N 
HETATM    2  C   UNL     1      -8.416   4.599 -31.308  1.00  0.00     0.265 C 
HETATM    3  O   UNL     1      -7.700   5.404 -30.716  1.00  0.00    -0.267 OA
ENDROOT
BRANCH   1   4
HETATM    4  C   UNL     1      -6.456   3.121 -31.552  1.00  0.00     0.213 C 
BRANCH   4   5
HETATM    5  C   UNL     1      -5.427   3.800 -32.441  1.00  0.00    -0.026 A 
HETATM    6  C   UNL     1      -4.051   3.754 -32.182  1.00  0.00     0.012 A 
HETATM    7  C   UNL     1      -3.132   4.271 -33.100  1.00  0.00     0.037 A 
HETATM    8  C   UNL     1      -3.560   4.816 -34.310  1.00  0.00     0.068 A 
HETATM    9  C   UNL     1      -4.924   4.887 -34.577  1.00  0.00     0.037 A 
HETATM   10  C   UNL     1      -5.846   4.380 -33.655  1.00  0.00     0.012 A 
BRANCH   8  11
HETATM   11  O   UNL     1      -2.561   5.243 -35.138  1.00  0.00    -0.356 OA
HETATM   12  C   UNL     1      -1.323   5.572 -34.517  1.00  0.00     0.210 C 
ENDBRANCH   8  11
ENDBRANCH   4   5
BRANCH   4  13
HETATM   13  C   UNL     1      -6.295   1.610 -31.272  1.00  0.00     0.245 C 
HETATM   14  N   UNL     1      -6.111   0.787 -32.351  1.00  0.00    -0.354 N 
HETATM   15  H   UNL     1      -6.390   1.187 -33.247  1.00  0.00     0.162 HD
HETATM   16  O   UNL     1      -6.454   1.214 -30.112  1.00  0.00    -0.271 OA
BRANCH  14  17
HETATM   17  C   UNL     1      -5.976  -0.665 -32.333  1.00  0.00     0.084 C 
HETATM   18  C   UNL     1      -6.621  -1.361 -33.534  1.00  0.00     0.025 C 
HETATM   19  C   UNL     1      -5.495  -2.036 -34.315  1.00  0.00     0.002 C 
HETATM   20  C   UNL     1      -4.187  -1.541 -33.717  1.00  0.00     0.002 C 
HETATM   21  C   UNL     1      -4.531  -1.159 -32.288  1.00  0.00     0.025 C 
ENDBRANCH  14  17
ENDBRANCH   4  13
ENDBRANCH   1   4
BRANCH   1  22
HETATM   22  C   UNL     1      -8.657   2.385 -32.556  1.00  0.00     0.155 C 
BRANCH  22  23
HETATM   23  C   UNL     1      -8.923   2.706 -34.045  1.00  0.00     0.255 C 
BRANCH  23  24
HETATM   24  N   UNL     1     -10.307   2.334 -34.526  1.00  0.00    -0.066 N 
HETATM   25  H   UNL     1     -10.228   1.708 -35.354  1.00  0.00     0.280 HD
HETATM   26  C   UNL     1     -11.163   1.623 -33.488  1.00  0.00     0.261 C 
HETATM   27  C   UNL     1     -12.545   1.309 -34.071  1.00  0.00     0.195 C 
HETATM   28  O   UNL     1     -13.193   2.507 -34.512  1.00  0.00    -0.388 OA
HETATM   29  C   UNL     1     -12.447   3.146 -35.554  1.00  0.00     0.195 C 
HETATM   30  C   UNL     1     -11.056   3.558 -35.058  1.00  0.00     0.261 C 
ENDBRANCH  23  24
ENDBRANCH  22  23
ENDBRANCH   1  22
BRANCH   2  31
HETATM   31  C   UNL     1      -9.812   4.859 -31.530  1.00  0.00     0.115 A 
HETATM   32  S   UNL     1     -10.283   6.010 -32.695  1.00  0.00     0.019 SA
HETATM   33  N   UNL     1     -11.909   5.902 -32.401  1.00  0.00    -0.203 NA
HETATM   34  C   UNL     1     -12.134   4.930 -31.502  1.00  0.00     0.155 A 
HETATM   35  C   UNL     1     -10.941   4.286 -30.989  1.00  0.00     0.065 A 
BRANCH  34  36
HETATM   36  C   UNL     1     -13.513   4.592 -31.112  1.00  0.00     0.270 C 
HETATM   37  N   UNL     1     -13.884   3.294 -31.329  1.00  0.00    -0.365 N 
HETATM   38  H   UNL     1     -13.204   2.622 -31.667  1.00  0.00     0.159 HD
HETATM   39  H   UNL     1     -14.794   2.979 -31.024  1.00  0.00     0.159 HD
HETATM   40  O   UNL     1     -14.290   5.410 -30.627  1.00  0.00    -0.266 OA
ENDBRANCH  34  36
BRANCH  35  41
HETATM   41  N   UNL     1     -10.926   3.268 -30.080  1.00  0.00    -0.299 NA
HETATM   42  H   UNL     1     -11.279   2.362 -30.423  1.00  0.00     0.124 HD
HETATM   43  H   UNL     1     -10.057   3.103 -29.567  1.00  0.00     0.124 HD
ENDBRANCH  35  41
ENDBRANCH   2  31
TORSDOF 11
ENDMDL
MODEL 3
REMARK VINA RESULT:      -7.4      2.017      3.791
REMARK  11 active torsions:
REMARK  status: ('A' for Active; 'I' for Inactive)
REMARK    1  A    between atoms: O_2  and  C_3 
REMARK    2  A    between atoms: C_6  and  C_7 
REMARK    3  A    between atoms: C_7  and  N_8 
REMARK    4  A    between atoms: C_7  and  C_29 
REMARK       I    between atoms: N_8  and  C_9 
REMARK    5  A    between atoms: N_8  and  C_20 
REMARK    6  A    between atoms: C_9  and  C_10 
REMARK    7  A    between atoms: C_13  and  C_14 
REMARK       I    between atoms: C_14  and  N_15 
REMARK    8  A    between atoms: C_17  and  N_18 
REMARK    9  A    between atoms: C_20  and  C_21 
REMARK   10  A    between atoms: C_21  and  N_22 
REMARK       I    between atoms: C_29  and  N_30 
REMARK   11  A    between atoms: N_30  and  C_31 
ROOT
HETATM    1  N   UNL     1      -6.364   2.025 -31.971  1.00  0.00    -0.328 N 
HETATM    2  C   UNL     1      -6.033   2.662 -33.182  1.00  0.00     0.265 C 
HETATM    3  O   UNL     1      -6.372   2.177 -34.259  1.00  0.00    -0.267 OA
ENDROOT
BRANCH   1   4
HETATM    4  C   UNL     1      -7.079   0.735 -32.050  1.00  0.00     0.213 C 
BRANCH   4   5
HETATM    5  C   UNL     1      -6.496  -0.348 -32.943  1.00  0.00    -0.026 A 
HETATM    6  C   UNL     1      -5.180  -0.812 -32.813  1.00  0.00     0.012 A 
HETATM    7  C   UNL     1      -4.730  -1.906 -33.559  1.00  0.00     0.037 A 
HETATM    8  C   UNL     1      -5.588  -2.580 -34.428  1.00  0.00     0.068 A 
HETATM    9  C   UNL     1      -6.892  -2.122 -34.584  1.00  0.00     0.037 A 
HETATM   10  C   UNL     1      -7.342  -1.021 -33.846  1.00  0.00     0.012 A 
BRANCH   8  11
HETATM   11  O   UNL     1      -5.039  -3.658 -35.062  1.00  0.00    -0.356 OA
HETATM   12  C   UNL     1      -5.898  -4.774 -35.270  1.00  0.00     0.210 C 
ENDBRANCH   8  11
ENDBRANCH   4   5
BRANCH   4  13
HETATM   13  C   UNL     1      -8.594   1.022 -32.146  1.00  0.00     0.245 C 
HETATM   14  N   UNL     1      -8.991   2.032 -32.981  1.00  0.00    -0.354 N 
HETATM   15  H   UNL     1      -8.256   2.693 -33.233  1.00  0.00     0.162 HD
HETATM   16  O   UNL     1      -9.351   0.409 -31.384  1.00  0.00    -0.271 OA
BRANCH  14  17
HETATM   17  C   UNL     1     -10.354   2.504 -33.200  1.00  0.00     0.084 C 
HETATM   18  C   UNL     1     -10.738   3.706 -32.334  1.00  0.00     0.025 C 
HETATM   19  C   UNL     1     -11.002   4.872 -33.285  1.00  0.00     0.002 C 
HETATM   20  C   UNL     1     -10.544   4.427 -34.666  1.00  0.00     0.002 C 
HETATM   21  C   UNL     1     -10.651   2.912 -34.641  1.00  0.00     0.025 C 
ENDBRANCH  14  17
ENDBRANCH   4  13
ENDBRANCH   1   4
BRANCH   1  22
HETATM   22  C   UNL     1      -6.024   2.544 -30.631  1.00  0.00     0.155 C 
BRANCH  22  23
HETATM   23  C   UNL     1      -7.205   3.128 -29.820  1.00  0.00     0.255 C 
BRANCH  23  24
HETATM   24  N   UNL     1      -6.869   4.381 -29.044  1.00  0.00    -0.066 N 
HETATM   25  H   UNL     1      -6.826   4.157 -28.029  1.00  0.00     0.280 HD
HETATM   26  C   UNL     1      -5.546   5.024 -29.432  1.00  0.00     0.261 C 
HETATM   27  C   UNL     1      -5.313   6.292 -28.602  1.00  0.00     0.195 C 
HETATM   28  O   UNL     1      -6.389   7.219 -28.782  1.00  0.00    -0.388 OA
HETATM   29  C   UNL     1      -7.631   6.664 -28.338  1.00  0.00     0.195 C 
HETATM   30  C   UNL     1      -7.993   5.414 -29.148  1.00  0.00     0.261 C 
ENDBRANCH  23  24
ENDBRANCH  22  23
ENDBRANCH   1  22
BRANCH   2  31
HETATM   31  C   UNL     1      -5.310   3.902 -33.112  1.00  0.00     0.115 A 
HETATM   32  S   UNL     1      -6.152   5.379 -33.224  1.00  0.00     0.019 SA
HETATM   33  N   UNL     1      -4.811   6.350 -33.172  1.00  0.00    -0.203 NA
HETATM   34  C   UNL     1      -3.722   5.591 -32.966  1.00  0.00     0.155 A 
HETATM   35  C   UNL     1      -3.975   4.166 -32.904  1.00  0.00     0.065 A 
BRANCH  34  36
HETATM   36  C   UNL     1      -2.400   6.224 -32.821  1.00  0.00     0.270 C 
HETATM   37  N   UNL     1      -2.086   7.154 -33.772  1.00  0.00    -0.365 N 
HETATM   38  H   UNL     1      -2.772   7.417 -34.470  1.00  0.00     0.159 HD
HETATM   39  H   UNL     1      -1.224   7.673 -33.694  1.00  0.00     0.159 HD
HETATM   40  O   UNL     1      -1.621   5.944 -31.914  1.00  0.00    -0.266 OA
ENDBRANCH  34  36
BRANCH  35  41
HETATM   41  N   UNL     1      -3.027   3.208 -32.690  1.00  0.00    -0.299 NA
HETATM   42  H   UNL     1      -2.145   3.332 -33.210  1.00  0.00     0.124 HD
HETATM   43  H   UNL     1      -2.800   2.972 -31.721  1.00  0.00     0.124 HD
ENDBRANCH  35  41
ENDBRANCH   2  31
TORSDOF 11
ENDMDL
MODEL 4
REMARK VINA RESULT:      -7.4      2.815      7.654
REMARK  11 active torsions:
REMARK  status: ('A' for Active; 'I' for Inactive)
REMARK    1  A    between atoms: O_2  and  C_3 
REMARK    2  A    between atoms: C_6  and  C_7 
REMARK    3  A    between atoms: C_7  and  N_8 
REMARK    4  A    between atoms: C_7  and  C_29 
REMARK       I    between atoms: N_8  and  C_9 
REMARK    5  A    between atoms: N_8  and  C_20 
REMARK    6  A    between atoms: C_9  and  C_10 
REMARK    7  A    between atoms: C_13  and  C_14 
REMARK       I    between atoms: C_14  and  N_15 
REMARK    8  A    between atoms: C_17  and  N_18 
REMARK    9  A    between atoms: C_20  and  C_21 
REMARK   10  A    between atoms: C_21  and  N_22 
REMARK       I    between atoms: C_29  and  N_30 
REMARK   11  A    between atoms: N_30  and  C_31 
ROOT
HETATM    1  N   UNL     1      -8.401   2.835 -31.800  1.00  0.00    -0.328 N 
HETATM    2  C   UNL     1      -8.700   2.622 -33.159  1.00  0.00     0.265 C 
HETATM    3  O   UNL     1      -7.808   2.365 -33.965  1.00  0.00    -0.267 OA
ENDROOT
BRANCH   1   4
HETATM    4  C   UNL     1      -6.980   2.792 -31.397  1.00  0.00     0.213 C 
BRANCH   4   5
HETATM    5  C   UNL     1      -6.015   3.738 -32.093  1.00  0.00    -0.026 A 
HETATM    6  C   UNL     1      -4.745   3.341 -32.530  1.00  0.00     0.012 A 
HETATM    7  C   UNL     1      -3.947   4.203 -33.290  1.00  0.00     0.037 A 
HETATM    8  C   UNL     1      -4.409   5.466 -33.657  1.00  0.00     0.068 A 
HETATM    9  C   UNL     1      -5.660   5.885 -33.216  1.00  0.00     0.037 A 
HETATM   10  C   UNL     1      -6.456   5.029 -32.447  1.00  0.00     0.012 A 
BRANCH   8  11
HETATM   11  O   UNL     1      -3.553   6.191 -34.436  1.00  0.00    -0.356 OA
HETATM   12  C   UNL     1      -2.313   5.570 -34.760  1.00  0.00     0.210 C 
ENDBRANCH   8  11
ENDBRANCH   4   5
BRANCH   4  13
HETATM   13  C   UNL     1      -6.563   1.313 -31.236  1.00  0.00     0.245 C 
HETATM   14  N   UNL     1      -6.548   0.538 -32.364  1.00  0.00    -0.354 N 
HETATM   15  H   UNL     1      -7.089   0.908 -33.147  1.00  0.00     0.162 HD
HETATM   16  O   UNL     1      -6.379   0.883 -30.091  1.00  0.00    -0.271 OA
BRANCH  14  17
HETATM   17  C   UNL     1      -6.228  -0.883 -32.447  1.00  0.00     0.084 C 
HETATM   18  C   UNL     1      -6.810  -1.576 -33.682  1.00  0.00     0.025 C 
HETATM   19  C   UNL     1      -5.627  -2.047 -34.526  1.00  0.00     0.002 C 
HETATM   20  C   UNL     1      -4.378  -1.428 -33.918  1.00  0.00     0.002 C 
HETATM   21  C   UNL     1      -4.732  -1.188 -32.461  1.00  0.00     0.025 C 
ENDBRANCH  14  17
ENDBRANCH   4  13
ENDBRANCH   1   4
BRANCH   1  22
HETATM   22  C   UNL     1      -9.404   3.122 -30.756  1.00  0.00     0.155 C 
BRANCH  22  23
HETATM   23  C   UNL     1      -9.461   4.589 -30.267  1.00  0.00     0.255 C 
BRANCH  23  24
HETATM   24  N   UNL     1     -10.849   5.185 -30.247  1.00  0.00    -0.066 N 
HETATM   25  H   UNL     1     -11.120   5.397 -29.264  1.00  0.00     0.280 HD
HETATM   26  C   UNL     1     -10.994   6.468 -31.053  1.00  0.00     0.261 C 
HETATM   27  C   UNL     1     -12.439   6.975 -30.980  1.00  0.00     0.195 C 
HETATM   28  O   UNL     1     -13.350   5.980 -31.460  1.00  0.00    -0.388 OA
HETATM   29  C   UNL     1     -13.293   4.795 -30.659  1.00  0.00     0.195 C 
HETATM   30  C   UNL     1     -11.896   4.167 -30.708  1.00  0.00     0.261 C 
ENDBRANCH  23  24
ENDBRANCH  22  23
ENDBRANCH   1  22
BRANCH   2  31
HETATM   31  C   UNL     1     -10.077   2.693 -33.561  1.00  0.00     0.115 A 
HETATM   32  S   UNL     1     -10.654   4.082 -34.363  1.00  0.00     0.019 SA
HETATM   33  N   UNL     1     -12.232   3.590 -34.453  1.00  0.00    -0.203 NA
HETATM   34  C   UNL     1     -12.334   2.338 -33.979  1.00  0.00     0.155 A 
HETATM   35  C   UNL     1     -11.099   1.775 -33.472  1.00  0.00     0.065 A 
BRANCH  34  36
HETATM   36  C   UNL     1     -13.633   1.644 -34.005  1.00  0.00     0.270 C 
HETATM   37  N   UNL     1     -14.154   1.325 -32.782  1.00  0.00    -0.365 N 
HETATM   38  H   UNL     1     -13.684   1.628 -31.936  1.00  0.00     0.159 HD
HETATM   39  H   UNL     1     -15.071   0.907 -32.725  1.00  0.00     0.159 HD
HETATM   40  O   UNL     1     -14.220   1.363 -35.046  1.00  0.00    -0.266 OA
ENDBRANCH  34  36
BRANCH  35  41
HETATM   41  N   UNL     1     -10.961   0.519 -32.957  1.00  0.00    -0.299 NA
HETATM   42  H   UNL     1     -10.115   0.364 -32.387  1.00  0.00     0.124 HD
HETATM   43  H   UNL     1     -11.761   0.118 -32.463  1.00  0.00     0.124 HD
ENDBRANCH  35  41
ENDBRANCH   2  31
TORSDOF 11
ENDMDL
MODEL 5
REMARK VINA RESULT:      -7.3      2.106      6.427
REMARK  11 active torsions:
REMARK  status: ('A' for Active; 'I' for Inactive)
REMARK    1  A    between atoms: O_2  and  C_3 
REMARK    2  A    between atoms: C_6  and  C_7 
REMARK    3  A    between atoms: C_7  and  N_8 
REMARK    4  A    between atoms: C_7  and  C_29 
REMARK       I    between atoms: N_8  and  C_9 
REMARK    5  A    between atoms: N_8  and  C_20 
REMARK    6  A    between atoms: C_9  and  C_10 
REMARK    7  A    between atoms: C_13  and  C_14 
REMARK       I    between atoms: C_14  and  N_15 
REMARK    8  A    between atoms: C_17  and  N_18 
REMARK    9  A    between atoms: C_20  and  C_21 
REMARK   10  A    between atoms: C_21  and  N_22 
REMARK       I    between atoms: C_29  and  N_30 
REMARK   11  A    between atoms: N_30  and  C_31 
ROOT
HETATM    1  N   UNL     1      -6.417   3.788 -31.959  1.00  0.00    -0.328 N 
HETATM    2  C   UNL     1      -6.672   5.159 -32.150  1.00  0.00     0.265 C 
HETATM    3  O   UNL     1      -6.227   5.750 -33.132  1.00  0.00    -0.267 OA
ENDROOT
BRANCH   1   4
HETATM    4  C   UNL     1      -5.553   3.109 -32.946  1.00  0.00     0.213 C 
BRANCH   4   5
HETATM    5  C   UNL     1      -5.946   1.710 -33.390  1.00  0.00    -0.026 A 
HETATM    6  C   UNL     1      -6.655   1.459 -34.572  1.00  0.00     0.012 A 
HETATM    7  C   UNL     1      -6.871   0.149 -35.014  1.00  0.00     0.037 A 
HETATM    8  C   UNL     1      -6.359  -0.937 -34.306  1.00  0.00     0.068 A 
HETATM    9  C   UNL     1      -5.668  -0.709 -33.120  1.00  0.00     0.037 A 
HETATM   10  C   UNL     1      -5.459   0.600 -32.671  1.00  0.00     0.012 A 
BRANCH   8  11
HETATM   11  O   UNL     1      -6.600  -2.159 -34.867  1.00  0.00    -0.356 OA
HETATM   12  C   UNL     1      -5.490  -3.046 -34.950  1.00  0.00     0.210 C 
ENDBRANCH   8  11
ENDBRANCH   4   5
BRANCH   4  13
HETATM   13  C   UNL     1      -4.079   3.367 -32.564  1.00  0.00     0.245 C 
HETATM   14  N   UNL     1      -3.378   4.259 -33.330  1.00  0.00    -0.354 N 
HETATM   15  H   UNL     1      -3.784   4.449 -34.247  1.00  0.00     0.162 HD
HETATM   16  O   UNL     1      -3.581   2.675 -31.668  1.00  0.00    -0.271 OA
BRANCH  14  17
HETATM   17  C   UNL     1      -1.974   4.628 -33.183  1.00  0.00     0.084 C 
HETATM   18  C   UNL     1      -1.422   5.439 -34.358  1.00  0.00     0.025 C 
HETATM   19  C   UNL     1      -1.044   6.814 -33.810  1.00  0.00     0.002 C 
HETATM   20  C   UNL     1      -1.591   6.889 -32.392  1.00  0.00     0.002 C 
HETATM   21  C   UNL     1      -1.669   5.445 -31.929  1.00  0.00     0.025 C 
ENDBRANCH  14  17
ENDBRANCH   4  13
ENDBRANCH   1   4
BRANCH   1  22
HETATM   22  C   UNL     1      -6.930   2.990 -30.828  1.00  0.00     0.155 C 
BRANCH  22  23
HETATM   23  C   UNL     1      -8.463   2.788 -30.792  1.00  0.00     0.255 C 
BRANCH  23  24
HETATM   24  N   UNL     1      -9.018   2.022 -31.971  1.00  0.00    -0.066 N 
HETATM   25  H   UNL     1      -8.375   2.124 -32.783  1.00  0.00     0.280 HD
HETATM   26  C   UNL     1      -9.213   0.534 -31.718  1.00  0.00     0.261 C 
HETATM   27  C   UNL     1      -9.796  -0.139 -32.966  1.00  0.00     0.195 C 
HETATM   28  O   UNL     1     -11.038   0.469 -33.337  1.00  0.00    -0.388 OA
HETATM   29  C   UNL     1     -10.860   1.851 -33.666  1.00  0.00     0.195 C 
HETATM   30  C   UNL     1     -10.332   2.637 -32.460  1.00  0.00     0.261 C 
ENDBRANCH  23  24
ENDBRANCH  22  23
ENDBRANCH   1  22
BRANCH   2  31
HETATM   31  C   UNL     1      -7.486   5.832 -31.176  1.00  0.00     0.115 A 
HETATM   32  S   UNL     1      -9.113   6.192 -31.535  1.00  0.00     0.019 SA
HETATM   33  N   UNL     1      -9.431   6.998 -30.125  1.00  0.00    -0.203 NA
HETATM   34  C   UNL     1      -8.358   6.922 -29.319  1.00  0.00     0.155 A 
HETATM   35  C   UNL     1      -7.217   6.234 -29.887  1.00  0.00     0.065 A 
BRANCH  34  36
HETATM   36  C   UNL     1      -8.407   7.513 -27.971  1.00  0.00     0.270 C 
HETATM   37  N   UNL     1      -9.633   7.501 -27.368  1.00  0.00    -0.365 N 
HETATM   38  H   UNL     1     -10.416   7.041 -27.819  1.00  0.00     0.159 HD
HETATM   39  H   UNL     1      -9.723   7.831 -26.418  1.00  0.00     0.159 HD
HETATM   40  O   UNL     1      -7.422   7.991 -27.415  1.00  0.00    -0.266 OA
ENDBRANCH  34  36
BRANCH  35  41
HETATM   41  N   UNL     1      -6.028   6.024 -29.250  1.00  0.00    -0.299 NA
HETATM   42  H   UNL     1      -5.191   6.351 -29.754  1.00  0.00     0.124 HD
HETATM   43  H   UNL     1      -5.954   6.322 -28.274  1.00  0.00     0.124 HD
ENDBRANCH  35  41
ENDBRANCH   2  31
TORSDOF 11
ENDMDL
MODEL 6
REMARK VINA RESULT:      -7.2      2.724      7.343
REMARK  11 active torsions:
REMARK  status: ('A' for Active; 'I' for Inactive)
REMARK    1  A    between atoms: O_2  and  C_3 
REMARK    2  A    between atoms: C_6  and  C_7 
REMARK    3  A    between atoms: C_7  and  N_8 
REMARK    4  A    between atoms: C_7  and  C_29 
REMARK       I    between atoms: N_8  and  C_9 
REMARK    5  A    between atoms: N_8  and  C_20 
REMARK    6  A    between atoms: C_9  and  C_10 
REMARK    7  A    between atoms: C_13  and  C_14 
REMARK       I    between atoms: C_14  and  N_15 
REMARK    8  A    between atoms: C_17  and  N_18 
REMARK    9  A    between atoms: C_20  and  C_21 
REMARK   10  A    between atoms: C_21  and  N_22 
REMARK       I    between atoms: C_29  and  N_30 
REMARK   11  A    between atoms: N_30  and  C_31 
ROOT
HETATM    1  N   UNL     1      -7.957   3.939 -32.633  1.00  0.00    -0.328 N 
HETATM    2  C   UNL     1      -8.505   5.154 -32.182  1.00  0.00     0.265 C 
HETATM    3  O   UNL     1      -7.875   5.882 -31.417  1.00  0.00    -0.267 OA
ENDROOT
BRANCH   1   4
HETATM    4  C   UNL     1      -6.632   3.550 -32.109  1.00  0.00     0.213 C 
BRANCH   4   5
HETATM    5  C   UNL     1      -5.401   4.061 -32.839  1.00  0.00    -0.026 A 
HETATM    6  C   UNL     1      -4.099   3.878 -32.354  1.00  0.00     0.012 A 
HETATM    7  C   UNL     1      -2.990   4.238 -33.125  1.00  0.00     0.037 A 
HETATM    8  C   UNL     1      -3.150   4.758 -34.409  1.00  0.00     0.068 A 
HETATM    9  C   UNL     1      -4.435   4.965 -34.901  1.00  0.00     0.037 A 
HETATM   10  C   UNL     1      -5.547   4.614 -34.127  1.00  0.00     0.012 A 
BRANCH   8  11
HETATM   11  O   UNL     1      -1.988   5.026 -35.074  1.00  0.00    -0.356 OA
HETATM   12  C   UNL     1      -1.054   5.865 -34.403  1.00  0.00     0.210 C 
ENDBRANCH   8  11
ENDBRANCH   4   5
BRANCH   4  13
HETATM   13  C   UNL     1      -6.681   2.056 -31.718  1.00  0.00     0.245 C 
HETATM   14  N   UNL     1      -6.241   1.149 -32.644  1.00  0.00    -0.354 N 
HETATM   15  H   UNL     1      -6.201   1.500 -33.602  1.00  0.00     0.162 HD
HETATM   16  O   UNL     1      -7.217   1.753 -30.646  1.00  0.00    -0.271 OA
BRANCH  14  17
HETATM   17  C   UNL     1      -6.230  -0.304 -32.513  1.00  0.00     0.084 C 
HETATM   18  C   UNL     1      -6.899  -1.035 -33.680  1.00  0.00     0.025 C 
HETATM   19  C   UNL     1      -5.812  -1.858 -34.369  1.00  0.00     0.002 C 
HETATM   20  C   UNL     1      -4.484  -1.429 -33.765  1.00  0.00     0.002 C 
HETATM   21  C   UNL     1      -4.835  -0.910 -32.381  1.00  0.00     0.025 C 
ENDBRANCH  14  17
ENDBRANCH   4  13
ENDBRANCH   1   4
BRANCH   1  22
HETATM   22  C   UNL     1      -8.625   3.015 -33.570  1.00  0.00     0.155 C 
BRANCH  22  23
HETATM   23  C   UNL     1      -9.715   2.107 -32.954  1.00  0.00     0.255 C 
BRANCH  23  24
HETATM   24  N   UNL     1     -11.074   2.236 -33.602  1.00  0.00    -0.066 N 
HETATM   25  H   UNL     1     -11.677   2.854 -33.021  1.00  0.00     0.280 HD
HETATM   26  C   UNL     1     -11.046   2.807 -35.012  1.00  0.00     0.261 C 
HETATM   27  C   UNL     1     -12.468   2.877 -35.580  1.00  0.00     0.195 C 
HETATM   28  O   UNL     1     -13.077   1.581 -35.582  1.00  0.00    -0.388 OA
HETATM   29  C   UNL     1     -13.195   1.062 -34.252  1.00  0.00     0.195 C 
HETATM   30  C   UNL     1     -11.815   0.895 -33.606  1.00  0.00     0.261 C 
ENDBRANCH  23  24
ENDBRANCH  22  23
ENDBRANCH   1  22
BRANCH   2  31
HETATM   31  C   UNL     1      -9.807   5.523 -32.665  1.00  0.00     0.115 A 
HETATM   32  S   UNL     1     -11.157   5.404 -31.631  1.00  0.00     0.019 SA
HETATM   33  N   UNL     1     -12.282   5.856 -32.759  1.00  0.00    -0.203 NA
HETATM   34  C   UNL     1     -11.656   6.203 -33.896  1.00  0.00     0.155 A 
HETATM   35  C   UNL     1     -10.216   6.043 -33.872  1.00  0.00     0.065 A 
BRANCH  34  36
HETATM   36  C   UNL     1     -12.434   6.703 -35.041  1.00  0.00     0.270 C 
HETATM   37  N   UNL     1     -11.925   7.811 -35.660  1.00  0.00    -0.365 N 
HETATM   38  H   UNL     1     -11.031   8.188 -35.367  1.00  0.00     0.159 HD
HETATM   39  H   UNL     1     -12.373   8.167 -36.491  1.00  0.00     0.159 HD
HETATM   40  O   UNL     1     -13.474   6.174 -35.425  1.00  0.00    -0.266 OA
ENDBRANCH  34  36
BRANCH  35  41
HETATM   41  N   UNL     1      -9.375   6.344 -34.903  1.00  0.00    -0.299 NA
HETATM   42  H   UNL     1      -8.388   6.490 -34.643  1.00  0.00     0.124 HD
HETATM   43  H   UNL     1      -9.406   5.744 -35.731  1.00  0.00     0.124 HD
ENDBRANCH  35  41
ENDBRANCH   2  31
TORSDOF 11
ENDMDL
MODEL 7
REMARK VINA RESULT:      -7.2      2.490      7.595
REMARK  11 active torsions:
REMARK  status: ('A' for Active; 'I' for Inactive)
REMARK    1  A    between atoms: O_2  and  C_3 
REMARK    2  A    between atoms: C_6  and  C_7 
REMARK    3  A    between atoms: C_7  and  N_8 
REMARK    4  A    between atoms: C_7  and  C_29 
REMARK       I    between atoms: N_8  and  C_9 
REMARK    5  A    between atoms: N_8  and  C_20 
REMARK    6  A    between atoms: C_9  and  C_10 
REMARK    7  A    between atoms: C_13  and  C_14 
REMARK       I    between atoms: C_14  and  N_15 
REMARK    8  A    between atoms: C_17  and  N_18 
REMARK    9  A    between atoms: C_20  and  C_21 
REMARK   10  A    between atoms: C_21  and  N_22 
REMARK       I    between atoms: C_29  and  N_30 
REMARK   11  A    between atoms: N_30  and  C_31 
ROOT
HETATM    1  N   UNL     1      -8.630   3.314 -33.269  1.00  0.00    -0.328 N 
HETATM    2  C   UNL     1      -8.740   4.620 -33.781  1.00  0.00     0.265 C 
HETATM    3  O   UNL     1      -7.766   5.185 -34.276  1.00  0.00    -0.267 OA
ENDROOT
BRANCH   1   4
HETATM    4  C   UNL     1      -7.297   2.678 -33.299  1.00  0.00     0.213 C 
BRANCH   4   5
HETATM    5  C   UNL     1      -7.221   1.202 -33.653  1.00  0.00    -0.026 A 
HETATM    6  C   UNL     1      -7.466   0.717 -34.944  1.00  0.00     0.012 A 
HETATM    7  C   UNL     1      -7.247  -0.629 -35.258  1.00  0.00     0.037 A 
HETATM    8  C   UNL     1      -6.750  -1.513 -34.302  1.00  0.00     0.068 A 
HETATM    9  C   UNL     1      -6.519  -1.055 -33.009  1.00  0.00     0.037 A 
HETATM   10  C   UNL     1      -6.747   0.289 -32.690  1.00  0.00     0.012 A 
BRANCH   8  11
HETATM   11  O   UNL     1      -6.537  -2.787 -34.747  1.00  0.00    -0.356 OA
HETATM   12  C   UNL     1      -5.209  -3.285 -34.626  1.00  0.00     0.210 C 
ENDBRANCH   8  11
ENDBRANCH   4   5
BRANCH   4  13
HETATM   13  C   UNL     1      -6.490   3.178 -32.080  1.00  0.00     0.245 C 
HETATM   14  N   UNL     1      -5.177   3.504 -32.287  1.00  0.00    -0.354 N 
HETATM   15  H   UNL     1      -4.767   3.115 -33.136  1.00  0.00     0.162 HD
HETATM   16  O   UNL     1      -7.035   3.147 -30.970  1.00  0.00    -0.271 OA
BRANCH  14  17
HETATM   17  C   UNL     1      -4.218   3.957 -31.285  1.00  0.00     0.084 C 
HETATM   18  C   UNL     1      -2.788   3.469 -31.533  1.00  0.00     0.025 C 
HETATM   19  C   UNL     1      -1.935   4.709 -31.795  1.00  0.00     0.002 C 
HETATM   20  C   UNL     1      -2.893   5.881 -31.938  1.00  0.00     0.002 C 
HETATM   21  C   UNL     1      -4.126   5.476 -31.148  1.00  0.00     0.025 C 
ENDBRANCH  14  17
ENDBRANCH   4  13
ENDBRANCH   1   4
BRANCH   1  22
HETATM   22  C   UNL     1      -9.746   2.547 -32.682  1.00  0.00     0.155 C 
BRANCH  22  23
HETATM   23  C   UNL     1     -10.669   1.827 -33.693  1.00  0.00     0.255 C 
BRANCH  23  24
HETATM   24  N   UNL     1     -12.060   1.543 -33.174  1.00  0.00    -0.066 N 
HETATM   25  H   UNL     1     -11.994   1.028 -32.272  1.00  0.00     0.280 HD
HETATM   26  C   UNL     1     -12.908   2.784 -32.938  1.00  0.00     0.261 C 
HETATM   27  C   UNL     1     -14.299   2.383 -32.433  1.00  0.00     0.195 C 
HETATM   28  O   UNL     1     -14.944   1.510 -33.367  1.00  0.00    -0.388 OA
HETATM   29  C   UNL     1     -14.206   0.295 -33.536  1.00  0.00     0.195 C 
HETATM   30  C   UNL     1     -12.808   0.577 -34.097  1.00  0.00     0.261 C 
ENDBRANCH  23  24
ENDBRANCH  22  23
ENDBRANCH   1  22
BRANCH   2  31
HETATM   31  C   UNL     1     -10.027   5.255 -33.727  1.00  0.00     0.115 A 
HETATM   32  S   UNL     1     -10.433   6.233 -32.391  1.00  0.00     0.019 SA
HETATM   33  N   UNL     1     -11.982   6.559 -32.875  1.00  0.00    -0.203 NA
HETATM   34  C   UNL     1     -12.188   6.028 -34.092  1.00  0.00     0.155 A 
HETATM   35  C   UNL     1     -11.068   5.282 -34.628  1.00  0.00     0.065 A 
BRANCH  34  36
HETATM   36  C   UNL     1     -13.477   6.229 -34.775  1.00  0.00     0.270 C 
HETATM   37  N   UNL     1     -14.586   6.115 -33.983  1.00  0.00    -0.365 N 
HETATM   38  H   UNL     1     -14.483   5.975 -32.984  1.00  0.00     0.159 HD
HETATM   39  H   UNL     1     -15.497   6.305 -34.374  1.00  0.00     0.159 HD
HETATM   40  O   UNL     1     -13.566   6.479 -35.974  1.00  0.00    -0.266 OA
ENDBRANCH  34  36
BRANCH  35  41
HETATM   41  N   UNL     1     -11.043   4.669 -35.847  1.00  0.00    -0.299 NA
HETATM   42  H   UNL     1     -11.274   5.271 -36.652  1.00  0.00     0.124 HD
HETATM   43  H   UNL     1     -10.216   4.116 -36.084  1.00  0.00     0.124 HD
ENDBRANCH  35  41
ENDBRANCH   2  31
TORSDOF 11
ENDMDL
MODEL 8
REMARK VINA RESULT:      -7.2      1.869      4.958
REMARK  11 active torsions:
REMARK  status: ('A' for Active; 'I' for Inactive)
REMARK    1  A    between atoms: O_2  and  C_3 
REMARK    2  A    between atoms: C_6  and  C_7 
REMARK    3  A    between atoms: C_7  and  N_8 
REMARK    4  A    between atoms: C_7  and  C_29 
REMARK       I    between atoms: N_8  and  C_9 
REMARK    5  A    between atoms: N_8  and  C_20 
REMARK    6  A    between atoms: C_9  and  C_10 
REMARK    7  A    between atoms: C_13  and  C_14 
REMARK       I    between atoms: C_14  and  N_15 
REMARK    8  A    between atoms: C_17  and  N_18 
REMARK    9  A    between atoms: C_20  and  C_21 
REMARK   10  A    between atoms: C_21  and  N_22 
REMARK       I    between atoms: C_29  and  N_30 
REMARK   11  A    between atoms: N_30  and  C_31 
ROOT
HETATM    1  N   UNL     1      -8.219   3.414 -32.939  1.00  0.00    -0.328 N 
HETATM    2  C   UNL     1      -8.646   3.149 -31.624  1.00  0.00     0.265 C 
HETATM    3  O   UNL     1      -9.283   2.130 -31.364  1.00  0.00    -0.267 OA
ENDROOT
BRANCH   1   4
HETATM    4  C   UNL     1      -8.614   2.457 -33.992  1.00  0.00     0.213 C 
BRANCH   4   5
HETATM    5  C   UNL     1     -10.097   2.199 -34.200  1.00  0.00    -0.026 A 
HETATM    6  C   UNL     1     -10.722   1.005 -33.816  1.00  0.00     0.012 A 
HETATM    7  C   UNL     1     -12.111   0.866 -33.896  1.00  0.00     0.037 A 
HETATM    8  C   UNL     1     -12.911   1.922 -34.330  1.00  0.00     0.068 A 
HETATM    9  C   UNL     1     -12.308   3.109 -34.734  1.00  0.00     0.037 A 
HETATM   10  C   UNL     1     -10.917   3.247 -34.664  1.00  0.00     0.012 A 
BRANCH   8  11
HETATM   11  O   UNL     1     -14.254   1.673 -34.318  1.00  0.00    -0.356 OA
HETATM   12  C   UNL     1     -14.843   1.445 -33.043  1.00  0.00     0.210 C 
ENDBRANCH   8  11
ENDBRANCH   4   5
BRANCH   4  13
HETATM   13  C   UNL     1      -7.664   1.240 -33.926  1.00  0.00     0.245 C 
HETATM   14  N   UNL     1      -7.066   0.974 -32.724  1.00  0.00    -0.354 N 
HETATM   15  H   UNL     1      -7.059   1.755 -32.066  1.00  0.00     0.162 HD
HETATM   16  O   UNL     1      -7.406   0.646 -34.980  1.00  0.00    -0.271 OA
BRANCH  14  17
HETATM   17  C   UNL     1      -6.110  -0.089 -32.436  1.00  0.00     0.084 C 
HETATM   18  C   UNL     1      -4.716   0.159 -33.018  1.00  0.00     0.025 C 
HETATM   19  C   UNL     1      -3.758   0.290 -31.835  1.00  0.00     0.002 C 
HETATM   20  C   UNL     1      -4.614   0.359 -30.580  1.00  0.00     0.002 C 
HETATM   21  C   UNL     1      -5.902  -0.358 -30.947  1.00  0.00     0.025 C 
ENDBRANCH  14  17
ENDBRANCH   4  13
ENDBRANCH   1   4
BRANCH   1  22
HETATM   22  C   UNL     1      -7.429   4.594 -33.341  1.00  0.00     0.155 C 
BRANCH  22  23
HETATM   23  C   UNL     1      -5.957   4.315 -33.725  1.00  0.00     0.255 C 
BRANCH  23  24
HETATM   24  N   UNL     1      -4.982   4.416 -32.574  1.00  0.00    -0.066 N 
HETATM   25  H   UNL     1      -5.386   3.946 -31.738  1.00  0.00     0.280 HD
HETATM   26  C   UNL     1      -3.622   3.789 -32.845  1.00  0.00     0.261 C 
HETATM   27  C   UNL     1      -2.710   3.963 -31.625  1.00  0.00     0.195 C 
HETATM   28  O   UNL     1      -2.563   5.349 -31.297  1.00  0.00    -0.388 OA
HETATM   29  C   UNL     1      -3.822   5.936 -30.951  1.00  0.00     0.195 C 
HETATM   30  C   UNL     1      -4.800   5.869 -32.129  1.00  0.00     0.261 C 
ENDBRANCH  23  24
ENDBRANCH  22  23
ENDBRANCH   1  22
BRANCH   2  31
HETATM   31  C   UNL     1      -8.291   4.092 -30.601  1.00  0.00     0.115 A 
HETATM   32  S   UNL     1      -9.389   5.322 -30.167  1.00  0.00     0.019 SA
HETATM   33  N   UNL     1      -8.393   6.070 -29.076  1.00  0.00    -0.203 NA
HETATM   34  C   UNL     1      -7.264   5.354 -28.942  1.00  0.00     0.155 A 
HETATM   35  C   UNL     1      -7.179   4.186 -29.796  1.00  0.00     0.065 A 
BRANCH  34  36
HETATM   36  C   UNL     1      -6.233   5.777 -27.979  1.00  0.00     0.270 C 
HETATM   37  N   UNL     1      -5.279   4.842 -27.691  1.00  0.00    -0.365 N 
HETATM   38  H   UNL     1      -5.272   3.956 -28.183  1.00  0.00     0.159 HD
HETATM   39  H   UNL     1      -4.507   5.089 -27.089  1.00  0.00     0.159 HD
HETATM   40  O   UNL     1      -6.220   6.890 -27.460  1.00  0.00    -0.266 OA
ENDBRANCH  34  36
BRANCH  35  41
HETATM   41  N   UNL     1      -6.136   3.306 -29.821  1.00  0.00    -0.299 NA
HETATM   42  H   UNL     1      -6.380   2.336 -30.069  1.00  0.00     0.124 HD
HETATM   43  H   UNL     1      -5.302   3.574 -30.349  1.00  0.00     0.124 HD
ENDBRANCH  35  41
ENDBRANCH   2  31
TORSDOF 11
ENDMDL
MODEL 9
REMARK VINA RESULT:      -7.2      3.163      6.406
REMARK  11 active torsions:
REMARK  status: ('A' for Active; 'I' for Inactive)
REMARK    1  A    between atoms: O_2  and  C_3 
REMARK    2  A    between atoms: C_6  and  C_7 
REMARK    3  A    between atoms: C_7  and  N_8 
REMARK    4  A    between atoms: C_7  and  C_29 
REMARK       I    between atoms: N_8  and  C_9 
REMARK    5  A    between atoms: N_8  and  C_20 
REMARK    6  A    between atoms: C_9  and  C_10 
REMARK    7  A    between atoms: C_13  and  C_14 
REMARK       I    between atoms: C_14  and  N_15 
REMARK    8  A    between atoms: C_17  and  N_18 
REMARK    9  A    between atoms: C_20  and  C_21 
REMARK   10  A    between atoms: C_21  and  N_22 
REMARK       I    between atoms: C_29  and  N_30 
REMARK   11  A    between atoms: N_30  and  C_31 
ROOT
HETATM    1  N   UNL     1      -5.649   2.681 -32.530  1.00  0.00    -0.328 N 
HETATM    2  C   UNL     1      -6.176   3.625 -33.431  1.00  0.00     0.265 C 
HETATM    3  O   UNL     1      -5.583   3.898 -34.473  1.00  0.00    -0.267 OA
ENDROOT
BRANCH   1   4
HETATM    4  C   UNL     1      -4.340   2.080 -32.858  1.00  0.00     0.213 C 
BRANCH   4   5
HETATM    5  C   UNL     1      -4.175   0.582 -32.658  1.00  0.00    -0.026 A 
HETATM    6  C   UNL     1      -4.891  -0.366 -33.400  1.00  0.00     0.012 A 
HETATM    7  C   UNL     1      -4.606  -1.730 -33.284  1.00  0.00     0.037 A 
HETATM    8  C   UNL     1      -3.580  -2.178 -32.452  1.00  0.00     0.068 A 
HETATM    9  C   UNL     1      -2.870  -1.252 -31.693  1.00  0.00     0.037 A 
HETATM   10  C   UNL     1      -3.161   0.113 -31.800  1.00  0.00     0.012 A 
BRANCH   8  11
HETATM   11  O   UNL     1      -3.373  -3.527 -32.463  1.00  0.00    -0.356 OA
HETATM   12  C   UNL     1      -3.704  -4.207 -33.670  1.00  0.00     0.210 C 
ENDBRANCH   8  11
ENDBRANCH   4   5
BRANCH   4  13
HETATM   13  C   UNL     1      -3.228   3.014 -32.328  1.00  0.00     0.245 C 
HETATM   14  N   UNL     1      -2.786   4.002 -33.165  1.00  0.00    -0.354 N 
HETATM   15  H   UNL     1      -3.004   3.857 -34.152  1.00  0.00     0.162 HD
HETATM   16  O   UNL     1      -2.721   2.749 -31.231  1.00  0.00    -0.271 OA
BRANCH  14  17
HETATM   17  C   UNL     1      -1.726   4.968 -32.898  1.00  0.00     0.084 C 
HETATM   18  C   UNL     1      -1.322   5.796 -34.121  1.00  0.00     0.025 C 
HETATM   19  C   UNL     1      -1.672   7.250 -33.807  1.00  0.00     0.002 C 
HETATM   20  C   UNL     1      -2.488   7.240 -32.524  1.00  0.00     0.002 C 
HETATM   21  C   UNL     1      -2.060   5.975 -31.800  1.00  0.00     0.025 C 
ENDBRANCH  14  17
ENDBRANCH   4  13
ENDBRANCH   1   4
BRANCH   1  22
HETATM   22  C   UNL     1      -6.300   2.270 -31.271  1.00  0.00     0.155 C 
BRANCH  22  23
HETATM   23  C   UNL     1      -5.551   2.653 -29.973  1.00  0.00     0.255 C 
BRANCH  23  24
HETATM   24  N   UNL     1      -5.951   3.991 -29.395  1.00  0.00    -0.066 N 
HETATM   25  H   UNL     1      -5.764   3.994 -28.371  1.00  0.00     0.280 HD
HETATM   26  C   UNL     1      -5.224   5.182 -30.003  1.00  0.00     0.261 C 
HETATM   27  C   UNL     1      -5.717   6.483 -29.360  1.00  0.00     0.195 C 
HETATM   28  O   UNL     1      -7.132   6.626 -29.528  1.00  0.00    -0.388 OA
HETATM   29  C   UNL     1      -7.840   5.561 -28.884  1.00  0.00     0.195 C 
HETATM   30  C   UNL     1      -7.464   4.206 -29.495  1.00  0.00     0.261 C 
ENDBRANCH  23  24
ENDBRANCH  22  23
ENDBRANCH   1  22
BRANCH   2  31
HETATM   31  C   UNL     1      -7.434   4.235 -33.103  1.00  0.00     0.115 A 
HETATM   32  S   UNL     1      -8.825   3.266 -32.928  1.00  0.00     0.019 SA
HETATM   33  N   UNL     1      -9.879   4.516 -32.663  1.00  0.00    -0.203 NA
HETATM   34  C   UNL     1      -9.192   5.668 -32.597  1.00  0.00     0.155 A 
HETATM   35  C   UNL     1      -7.766   5.543 -32.826  1.00  0.00     0.065 A 
BRANCH  34  36
HETATM   36  C   UNL     1      -9.895   6.929 -32.307  1.00  0.00     0.270 C 
HETATM   37  N   UNL     1      -9.307   7.729 -31.368  1.00  0.00    -0.365 N 
HETATM   38  H   UNL     1      -8.408   7.471 -30.974  1.00  0.00     0.159 HD
HETATM   39  H   UNL     1      -9.701   8.636 -31.169  1.00  0.00     0.159 HD
HETATM   40  O   UNL     1     -10.942   7.253 -32.862  1.00  0.00    -0.266 OA
ENDBRANCH  34  36
BRANCH  35  41
HETATM   41  N   UNL     1      -6.872   6.572 -32.795  1.00  0.00    -0.299 NA
HETATM   42  H   UNL     1      -7.283   7.518 -32.779  1.00  0.00     0.124 HD
HETATM   43  H   UNL     1      -6.126   6.532 -32.096  1.00  0.00     0.124 HD
ENDBRANCH  35  41
ENDBRANCH   2  31
TORSDOF 11
ENDMDL
MODEL 10
REMARK VINA RESULT:      -7.1     17.102     18.975
REMARK  11 active torsions:
REMARK  status: ('A' for Active; 'I' for Inactive)
REMARK    1  A    between atoms: O_2  and  C_3 
REMARK    2  A    between atoms: C_6  and  C_7 
REMARK    3  A    between atoms: C_7  and  N_8 
REMARK    4  A    between atoms: C_7  and  C_29 
REMARK       I    between atoms: N_8  and  C_9 
REMARK    5  A    between atoms: N_8  and  C_20 
REMARK    6  A    between atoms: C_9  and  C_10 
REMARK    7  A    between atoms: C_13  and  C_14 
REMARK       I    between atoms: C_14  and  N_15 
REMARK    8  A    between atoms: C_17  and  N_18 
REMARK    9  A    between atoms: C_20  and  C_21 
REMARK   10  A    between atoms: C_21  and  N_22 
REMARK       I    between atoms: C_29  and  N_30 
REMARK   11  A    between atoms: N_30  and  C_31 
ROOT
HETATM    1  N   UNL     1      -6.309 -14.134 -36.299  1.00  0.00    -0.328 N 
HETATM    2  C   UNL     1      -6.979 -13.891 -35.085  1.00  0.00     0.265 C 
HETATM    3  O   UNL     1      -7.821 -12.999 -35.000  1.00  0.00    -0.267 OA
ENDROOT
BRANCH   1   4
HETATM    4  C   UNL     1      -6.614 -13.246 -37.439  1.00  0.00     0.213 C 
BRANCH   4   5
HETATM    5  C   UNL     1      -7.921 -13.467 -38.183  1.00  0.00    -0.026 A 
HETATM    6  C   UNL     1      -8.588 -12.442 -38.868  1.00  0.00     0.012 A 
HETATM    7  C   UNL     1      -9.710 -12.719 -39.656  1.00  0.00     0.037 A 
HETATM    8  C   UNL     1     -10.174 -14.026 -39.804  1.00  0.00     0.068 A 
HETATM    9  C   UNL     1      -9.536 -15.054 -39.116  1.00  0.00     0.037 A 
HETATM   10  C   UNL     1      -8.419 -14.777 -38.319  1.00  0.00     0.012 A 
BRANCH   8  11
HETATM   11  O   UNL     1     -11.248 -14.168 -40.635  1.00  0.00    -0.356 OA
HETATM   12  C   UNL     1     -11.170 -15.217 -41.595  1.00  0.00     0.210 C 
ENDBRANCH   8  11
ENDBRANCH   4   5
BRANCH   4  13
HETATM   13  C   UNL     1      -5.325 -13.056 -38.269  1.00  0.00     0.245 C 
HETATM   14  N   UNL     1      -5.095 -13.946 -39.283  1.00  0.00    -0.354 N 
HETATM   15  H   UNL     1      -5.622 -14.817 -39.217  1.00  0.00     0.162 HD
HETATM   16  O   UNL     1      -4.521 -12.191 -37.903  1.00  0.00    -0.271 OA
BRANCH  14  17
HETATM   17  C   UNL     1      -3.934 -13.987 -40.166  1.00  0.00     0.084 C 
HETATM   18  C   UNL     1      -3.267 -15.363 -40.247  1.00  0.00     0.025 C 
HETATM   19  C   UNL     1      -3.419 -15.846 -41.689  1.00  0.00     0.002 C 
HETATM   20  C   UNL     1      -4.368 -14.880 -42.380  1.00  0.00     0.002 C 
HETATM   21  C   UNL     1      -4.230 -13.578 -41.608  1.00  0.00     0.025 C 
ENDBRANCH  14  17
ENDBRANCH   4  13
ENDBRANCH   1   4
BRANCH   1  22
HETATM   22  C   UNL     1      -5.306 -15.197 -36.504  1.00  0.00     0.155 C 
BRANCH  22  23
HETATM   23  C   UNL     1      -3.936 -14.965 -35.824  1.00  0.00     0.255 C 
BRANCH  23  24
HETATM   24  N   UNL     1      -2.745 -15.223 -36.719  1.00  0.00    -0.066 N 
HETATM   25  H   UNL     1      -3.077 -15.482 -37.670  1.00  0.00     0.280 HD
HETATM   26  C   UNL     1      -1.800 -14.039 -36.865  1.00  0.00     0.261 C 
HETATM   27  C   UNL     1      -0.623 -14.413 -37.773  1.00  0.00     0.195 C 
HETATM   28  O   UNL     1       0.078 -15.547 -37.251  1.00  0.00    -0.388 OA
HETATM   29  C   UNL     1      -0.771 -16.698 -37.189  1.00  0.00     0.195 C 
HETATM   30  C   UNL     1      -1.960 -16.452 -36.253  1.00  0.00     0.261 C 
ENDBRANCH  23  24
ENDBRANCH  22  23
ENDBRANCH   1  22
BRANCH   2  31
HETATM   31  C   UNL     1      -6.663 -14.733 -33.965  1.00  0.00     0.115 A 
HETATM   32  S   UNL     1      -7.255 -16.330 -33.913  1.00  0.00     0.019 SA
HETATM   33  N   UNL     1      -6.649 -16.694 -32.416  1.00  0.00    -0.203 NA
HETATM   34  C   UNL     1      -5.908 -15.664 -31.975  1.00  0.00     0.155 A 
HETATM   35  C   UNL     1      -5.875 -14.515 -32.857  1.00  0.00     0.065 A 
BRANCH  34  36
HETATM   36  C   UNL     1      -5.205 -15.761 -30.684  1.00  0.00     0.270 C 
HETATM   37  N   UNL     1      -5.922 -16.324 -29.666  1.00  0.00    -0.365 N 
HETATM   38  H   UNL     1      -6.844 -16.704 -29.845  1.00  0.00     0.159 HD
HETATM   39  H   UNL     1      -5.478 -16.481 -28.773  1.00  0.00     0.159 HD
HETATM   40  O   UNL     1      -4.054 -15.365 -30.518  1.00  0.00    -0.266 OA
ENDBRANCH  34  36
BRANCH  35  41
HETATM   41  N   UNL     1      -5.179 -13.364 -32.624  1.00  0.00    -0.299 NA
HETATM   42  H   UNL     1      -5.110 -12.718 -33.424  1.00  0.00     0.124 HD
HETATM   43  H   UNL     1      -5.423 -12.823 -31.791  1.00  0.00     0.124 HD
ENDBRANCH  35  41
ENDBRANCH   2  31
TORSDOF 11
ENDMDL
