MODEL 1
REMARK VINA RESULT:      -7.4      0.000      0.000
REMARK  6 active torsions:
REMARK  status: ('A' for Active; 'I' for Inactive)
REMARK    1  A    between atoms: C_2  and  O_3 
REMARK    2  A    between atoms: O_3  and  C_4 
REMARK    3  A    between atoms: C_4  and  C_5 
REMARK    4  A    between atoms: C_6  and  O_7 
REMARK    5  A    between atoms: C_12  and  O_13 
REMARK    6  A    between atoms: C_17  and  C_18 
ROOT
HETATM    1  C   UNL     1      -6.129  -0.539 -32.584  1.00  0.00     0.133 C 
HETATM    2  C   UNL     1      -7.085  -0.488 -33.824  1.00  0.00     0.073 C 
HETATM    3  C   UNL     1      -7.094  -1.822 -34.589  1.00  0.00     0.047 C 
HETATM    4  C   UNL     1      -8.553  -0.175 -33.393  1.00  0.00     0.097 C 
HETATM    5  C   UNL     1      -8.578   0.854 -32.322  1.00  0.00     0.042 A 
HETATM    6  C   UNL     1      -7.529   1.258 -31.523  1.00  0.00     0.030 A 
HETATM    7  C   UNL     1      -8.116   2.214 -30.679  1.00  0.00     0.190 A 
HETATM    8  N   UNL     1      -9.411   2.399 -30.902  1.00  0.00    -0.149 NA
HETATM    9  N   UNL     1      -9.671   1.575 -31.932  1.00  0.00    -0.279 N 
HETATM   10  H   UNL     1     -10.614   1.553 -32.305  1.00  0.00     0.189 HD
HETATM   11  C   UNL     1      -6.155   0.691 -31.632  1.00  0.00     0.075 C 
ENDROOT
BRANCH  11  12
HETATM   12  C   UNL     1      -5.222   1.851 -31.948  1.00  0.00    -0.045 A 
HETATM   13  C   UNL     1      -5.458   2.777 -32.976  1.00  0.00     0.050 A 
HETATM   14  C   UNL     1      -4.554   3.809 -33.217  1.00  0.00     0.117 A 
HETATM   15  F   UNL     1      -4.794   4.678 -34.207  1.00  0.00    -0.206 F 
HETATM   16  C   UNL     1      -3.406   3.952 -32.450  1.00  0.00     0.042 A 
HETATM   17  C   UNL     1      -3.151   3.046 -31.426  1.00  0.00     0.004 A 
HETATM   18  C   UNL     1      -4.049   2.002 -31.181  1.00  0.00     0.008 A 
ENDBRANCH  11  12
BRANCH   1  19
HETATM   19  C   UNL     1      -4.691  -0.907 -32.881  1.00  0.00     0.267 C 
HETATM   20  O   UNL     1      -4.042  -0.384 -33.779  1.00  0.00    -0.265 OA
BRANCH  19  21
HETATM   21  O   UNL     1      -4.239  -1.904 -32.074  1.00  0.00    -0.316 OA
BRANCH  21  22
HETATM   22  C   UNL     1      -3.332  -2.855 -32.665  1.00  0.00     0.123 C 
HETATM   23  C   UNL     1      -4.074  -3.704 -33.690  1.00  0.00     0.040 C 
HETATM   24  C   UNL     1      -2.801  -3.723 -31.531  1.00  0.00     0.040 C 
ENDBRANCH  21  22
ENDBRANCH  19  21
ENDBRANCH   1  19
BRANCH   2  25
HETATM   25  O   UNL     1      -6.701   0.525 -34.762  1.00  0.00    -0.389 OA
HETATM   26  H   UNL     1      -6.162   1.188 -34.286  1.00  0.00     0.210 HD
ENDBRANCH   2  25
BRANCH   7  27
HETATM   27  O   UNL     1      -7.565   2.951 -29.713  1.00  0.00    -0.343 OA
HETATM   28  H   UNL     1      -6.679   2.613 -29.518  1.00  0.00     0.219 HD
ENDBRANCH   7  27
TORSDOF 6
ENDMDL
MODEL 2
REMARK VINA RESULT:      -7.2      2.931      4.807
REMARK  6 active torsions:
REMARK  status: ('A' for Active; 'I' for Inactive)
REMARK    1  A    between atoms: C_2  and  O_3 
REMARK    2  A    between atoms: O_3  and  C_4 
REMARK    3  A    between atoms: C_4  and  C_5 
REMARK    4  A    between atoms: C_6  and  O_7 
REMARK    5  A    between atoms: C_12  and  O_13 
REMARK    6  A    between atoms: C_17  and  C_18 
ROOT
HETATM    1  C   UNL     1      -5.116   1.280 -32.660  1.00  0.00     0.133 C 
HETATM    2  C   UNL     1      -4.071   1.615 -31.542  1.00  0.00     0.073 C 
HETATM    3  C   UNL     1      -3.098   0.447 -31.306  1.00  0.00     0.047 C 
HETATM    4  C   UNL     1      -3.224   2.873 -31.918  1.00  0.00     0.097 C 
HETATM    5  C   UNL     1      -4.078   3.911 -32.549  1.00  0.00     0.042 A 
HETATM    6  C   UNL     1      -5.337   3.747 -33.089  1.00  0.00     0.030 A 
HETATM    7  C   UNL     1      -5.651   5.028 -33.569  1.00  0.00     0.190 A 
HETATM    8  N   UNL     1      -4.692   5.923 -33.370  1.00  0.00    -0.149 NA
HETATM    9  N   UNL     1      -3.745   5.225 -32.719  1.00  0.00    -0.279 N 
HETATM   10  H   UNL     1      -2.900   5.709 -32.435  1.00  0.00     0.189 HD
HETATM   11  C   UNL     1      -6.051   2.439 -33.111  1.00  0.00     0.075 C 
ENDROOT
BRANCH  11  12
HETATM   12  C   UNL     1      -7.353   2.634 -32.348  1.00  0.00    -0.045 A 
HETATM   13  C   UNL     1      -8.617   2.325 -32.877  1.00  0.00     0.050 A 
HETATM   14  C   UNL     1      -9.769   2.541 -32.125  1.00  0.00     0.117 A 
HETATM   15  F   UNL     1     -10.964   2.246 -32.651  1.00  0.00    -0.206 F 
HETATM   16  C   UNL     1      -9.701   3.061 -30.840  1.00  0.00     0.042 A 
HETATM   17  C   UNL     1      -8.460   3.375 -30.295  1.00  0.00     0.004 A 
HETATM   18  C   UNL     1      -7.298   3.168 -31.044  1.00  0.00     0.008 A 
ENDBRANCH  11  12
BRANCH   1  19
HETATM   19  C   UNL     1      -5.943   0.034 -32.432  1.00  0.00     0.267 C 
HETATM   20  O   UNL     1      -6.600  -0.151 -31.414  1.00  0.00    -0.265 OA
BRANCH  19  21
HETATM   21  O   UNL     1      -5.826  -0.855 -33.455  1.00  0.00    -0.316 OA
BRANCH  21  22
HETATM   22  C   UNL     1      -7.053  -1.364 -34.014  1.00  0.00     0.123 C 
HETATM   23  C   UNL     1      -6.826  -2.769 -34.557  1.00  0.00     0.040 C 
HETATM   24  C   UNL     1      -7.456  -0.413 -35.134  1.00  0.00     0.040 C 
ENDBRANCH  21  22
ENDBRANCH  19  21
ENDBRANCH   1  19
BRANCH   2  25
HETATM   25  O   UNL     1      -4.697   1.894 -30.283  1.00  0.00    -0.389 OA
HETATM   26  H   UNL     1      -4.455   1.179 -29.662  1.00  0.00     0.210 HD
ENDBRANCH   2  25
BRANCH   7  27
HETATM   27  O   UNL     1      -6.758   5.464 -34.174  1.00  0.00    -0.343 OA
HETATM   28  H   UNL     1      -7.526   5.267 -33.618  1.00  0.00     0.219 HD
ENDBRANCH   7  27
TORSDOF 6
ENDMDL
MODEL 3
REMARK VINA RESULT:      -7.0      2.967      4.821
REMARK  6 active torsions:
REMARK  status: ('A' for Active; 'I' for Inactive)
REMARK    1  A    between atoms: C_2  and  O_3 
REMARK    2  A    between atoms: O_3  and  C_4 
REMARK    3  A    between atoms: C_4  and  C_5 
REMARK    4  A    between atoms: C_6  and  O_7 
REMARK    5  A    between atoms: C_12  and  O_13 
REMARK    6  A    between atoms: C_17  and  C_18 
ROOT
HETATM    1  C   UNL     1      -5.552   1.231 -32.519  1.00  0.00     0.133 C 
HETATM    2  C   UNL     1      -4.286   1.544 -31.652  1.00  0.00     0.073 C 
HETATM    3  C   UNL     1      -3.429   0.287 -31.423  1.00  0.00     0.047 C 
HETATM    4  C   UNL     1      -3.382   2.618 -32.338  1.00  0.00     0.097 C 
HETATM    5  C   UNL     1      -4.211   3.685 -32.955  1.00  0.00     0.042 A 
HETATM    6  C   UNL     1      -5.559   3.637 -33.246  1.00  0.00     0.030 A 
HETATM    7  C   UNL     1      -5.805   4.884 -33.840  1.00  0.00     0.190 A 
HETATM    8  N   UNL     1      -4.727   5.653 -33.933  1.00  0.00    -0.149 NA
HETATM    9  N   UNL     1      -3.764   4.910 -33.361  1.00  0.00    -0.279 N 
HETATM   10  H   UNL     1      -2.830   5.300 -33.295  1.00  0.00     0.189 HD
HETATM   11  C   UNL     1      -6.413   2.448 -32.962  1.00  0.00     0.075 C 
ENDROOT
BRANCH  11  12
HETATM   12  C   UNL     1      -7.518   2.912 -32.025  1.00  0.00    -0.045 A 
HETATM   13  C   UNL     1      -7.284   3.665 -30.863  1.00  0.00     0.050 A 
HETATM   14  C   UNL     1      -8.343   4.047 -30.043  1.00  0.00     0.117 A 
HETATM   15  F   UNL     1      -8.098   4.759 -28.937  1.00  0.00    -0.206 F 
HETATM   16  C   UNL     1      -9.651   3.699 -30.352  1.00  0.00     0.042 A 
HETATM   17  C   UNL     1      -9.907   2.953 -31.498  1.00  0.00     0.004 A 
HETATM   18  C   UNL     1      -8.849   2.559 -32.324  1.00  0.00     0.008 A 
ENDBRANCH  11  12
BRANCH   1  19
HETATM   19  C   UNL     1      -6.462   0.148 -31.982  1.00  0.00     0.267 C 
HETATM   20  O   UNL     1      -6.616  -0.057 -30.783  1.00  0.00    -0.265 OA
BRANCH  19  21
HETATM   21  O   UNL     1      -7.034  -0.583 -32.976  1.00  0.00    -0.316 OA
BRANCH  21  22
HETATM   22  C   UNL     1      -6.350  -0.601 -34.243  1.00  0.00     0.123 C 
HETATM   23  C   UNL     1      -7.296  -0.143 -35.346  1.00  0.00     0.040 C 
HETATM   24  C   UNL     1      -5.900  -2.037 -34.483  1.00  0.00     0.040 C 
ENDBRANCH  21  22
ENDBRANCH  19  21
ENDBRANCH   1  19
BRANCH   2  25
HETATM   25  O   UNL     1      -4.629   2.053 -30.357  1.00  0.00    -0.389 OA
HETATM   26  H   UNL     1      -4.986   2.956 -30.474  1.00  0.00     0.210 HD
ENDBRANCH   2  25
BRANCH   7  27
HETATM   27  O   UNL     1      -6.947   5.397 -34.304  1.00  0.00    -0.343 OA
HETATM   28  H   UNL     1      -6.775   6.272 -34.681  1.00  0.00     0.219 HD
ENDBRANCH   7  27
TORSDOF 6
ENDMDL
MODEL 4
REMARK VINA RESULT:      -7.0      2.199      3.200
REMARK  6 active torsions:
REMARK  status: ('A' for Active; 'I' for Inactive)
REMARK    1  A    between atoms: C_2  and  O_3 
REMARK    2  A    between atoms: O_3  and  C_4 
REMARK    3  A    between atoms: C_4  and  C_5 
REMARK    4  A    between atoms: C_6  and  O_7 
REMARK    5  A    between atoms: C_12  and  O_13 
REMARK    6  A    between atoms: C_17  and  C_18 
ROOT
HETATM    1  C   UNL     1      -7.459   0.186 -32.428  1.00  0.00     0.133 C 
HETATM    2  C   UNL     1      -7.106   0.212 -33.954  1.00  0.00     0.073 C 
HETATM    3  C   UNL     1      -6.301  -1.030 -34.372  1.00  0.00     0.047 C 
HETATM    4  C   UNL     1      -8.398   0.261 -34.831  1.00  0.00     0.097 C 
HETATM    5  C   UNL     1      -9.408   1.169 -34.229  1.00  0.00     0.042 A 
HETATM    6  C   UNL     1      -9.441   1.646 -32.935  1.00  0.00     0.030 A 
HETATM    7  C   UNL     1     -10.612   2.419 -32.907  1.00  0.00     0.190 A 
HETATM    8  N   UNL     1     -11.272   2.431 -34.058  1.00  0.00    -0.149 NA
HETATM    9  N   UNL     1     -10.503   1.679 -34.865  1.00  0.00    -0.279 N 
HETATM   10  H   UNL     1     -10.797   1.552 -35.828  1.00  0.00     0.189 HD
HETATM   11  C   UNL     1      -8.412   1.302 -31.912  1.00  0.00     0.075 C 
ENDROOT
BRANCH  11  12
HETATM   12  C   UNL     1      -7.787   2.612 -31.457  1.00  0.00    -0.045 A 
HETATM   13  C   UNL     1      -7.231   3.554 -32.337  1.00  0.00     0.050 A 
HETATM   14  C   UNL     1      -6.665   4.729 -31.849  1.00  0.00     0.117 A 
HETATM   15  F   UNL     1      -6.134   5.610 -32.705  1.00  0.00    -0.206 F 
HETATM   16  C   UNL     1      -6.637   5.001 -30.488  1.00  0.00     0.042 A 
HETATM   17  C   UNL     1      -7.182   4.083 -29.596  1.00  0.00     0.004 A 
HETATM   18  C   UNL     1      -7.747   2.897 -30.077  1.00  0.00     0.008 A 
ENDBRANCH  11  12
BRANCH   1  19
HETATM   19  C   UNL     1      -6.281   0.065 -31.486  1.00  0.00     0.267 C 
HETATM   20  O   UNL     1      -6.372  -0.423 -30.366  1.00  0.00    -0.265 OA
BRANCH  19  21
HETATM   21  O   UNL     1      -5.146   0.600 -32.011  1.00  0.00    -0.316 OA
BRANCH  21  22
HETATM   22  C   UNL     1      -4.145   1.044 -31.074  1.00  0.00     0.123 C 
HETATM   23  C   UNL     1      -3.698   2.456 -31.428  1.00  0.00     0.040 C 
HETATM   24  C   UNL     1      -2.979   0.068 -31.179  1.00  0.00     0.040 C 
ENDBRANCH  21  22
ENDBRANCH  19  21
ENDBRANCH   1  19
BRANCH   2  25
HETATM   25  O   UNL     1      -6.318   1.356 -34.308  1.00  0.00    -0.389 OA
HETATM   26  H   UNL     1      -5.966   1.745 -33.483  1.00  0.00     0.210 HD
ENDBRANCH   2  25
BRANCH   7  27
HETATM   27  O   UNL     1     -11.136   3.135 -31.910  1.00  0.00    -0.343 OA
HETATM   28  H   UNL     1     -11.818   3.725 -32.263  1.00  0.00     0.219 HD
ENDBRANCH   7  27
TORSDOF 6
ENDMDL
MODEL 5
REMARK VINA RESULT:      -6.9      3.207      6.038
REMARK  6 active torsions:
REMARK  status: ('A' for Active; 'I' for Inactive)
REMARK    1  A    between atoms: C_2  and  O_3 
REMARK    2  A    between atoms: O_3  and  C_4 
REMARK    3  A    between atoms: C_4  and  C_5 
REMARK    4  A    between atoms: C_6  and  O_7 
REMARK    5  A    between atoms: C_12  and  O_13 
REMARK    6  A    between atoms: C_17  and  C_18 
ROOT
HETATM    1  C   UNL     1      -7.192   4.067 -31.803  1.00  0.00     0.133 C 
HETATM    2  C   UNL     1      -7.178   5.142 -32.942  1.00  0.00     0.073 C 
HETATM    3  C   UNL     1      -8.220   6.246 -32.692  1.00  0.00     0.047 C 
HETATM    4  C   UNL     1      -5.778   5.825 -33.056  1.00  0.00     0.097 C 
HETATM    5  C   UNL     1      -4.691   4.827 -32.888  1.00  0.00     0.042 A 
HETATM    6  C   UNL     1      -4.793   3.559 -32.354  1.00  0.00     0.030 A 
HETATM    7  C   UNL     1      -3.475   3.080 -32.407  1.00  0.00     0.190 A 
HETATM    8  N   UNL     1      -2.610   3.951 -32.912  1.00  0.00    -0.149 NA
HETATM    9  N   UNL     1      -3.380   5.007 -33.226  1.00  0.00    -0.279 N 
HETATM   10  H   UNL     1      -2.939   5.814 -33.655  1.00  0.00     0.189 HD
HETATM   11  C   UNL     1      -6.074   2.986 -31.849  1.00  0.00     0.075 C 
ENDROOT
BRANCH  11  12
HETATM   12  C   UNL     1      -6.341   1.725 -32.657  1.00  0.00    -0.045 A 
HETATM   13  C   UNL     1      -6.502   1.717 -34.052  1.00  0.00     0.050 A 
HETATM   14  C   UNL     1      -6.756   0.525 -34.726  1.00  0.00     0.117 A 
HETATM   15  F   UNL     1      -6.913   0.540 -36.056  1.00  0.00    -0.206 F 
HETATM   16  C   UNL     1      -6.854  -0.680 -34.044  1.00  0.00     0.042 A 
HETATM   17  C   UNL     1      -6.698  -0.696 -32.661  1.00  0.00     0.004 A 
HETATM   18  C   UNL     1      -6.449   0.497 -31.975  1.00  0.00     0.008 A 
ENDBRANCH  11  12
BRANCH   1  19
HETATM   19  C   UNL     1      -8.524   3.392 -31.556  1.00  0.00     0.267 C 
HETATM   20  O   UNL     1      -8.896   3.043 -30.442  1.00  0.00    -0.265 OA
BRANCH  19  21
HETATM   21  O   UNL     1      -9.216   3.184 -32.708  1.00  0.00    -0.316 OA
BRANCH  21  22
HETATM   22  C   UNL     1     -10.396   2.362 -32.615  1.00  0.00     0.123 C 
HETATM   23  C   UNL     1     -10.163   1.044 -33.343  1.00  0.00     0.040 C 
HETATM   24  C   UNL     1     -11.531   3.143 -33.266  1.00  0.00     0.040 C 
ENDBRANCH  21  22
ENDBRANCH  19  21
ENDBRANCH   1  19
BRANCH   2  25
HETATM   25  O   UNL     1      -7.472   4.576 -34.224  1.00  0.00    -0.389 OA
HETATM   26  H   UNL     1      -6.805   3.885 -34.409  1.00  0.00     0.210 HD
ENDBRANCH   2  25
BRANCH   7  27
HETATM   27  O   UNL     1      -2.982   1.896 -32.038  1.00  0.00    -0.343 OA
HETATM   28  H   UNL     1      -3.311   1.674 -31.154  1.00  0.00     0.219 HD
ENDBRANCH   7  27
TORSDOF 6
ENDMDL
MODEL 6
REMARK VINA RESULT:      -6.9      2.673      5.221
REMARK  6 active torsions:
REMARK  status: ('A' for Active; 'I' for Inactive)
REMARK    1  A    between atoms: C_2  and  O_3 
REMARK    2  A    between atoms: O_3  and  C_4 
REMARK    3  A    between atoms: C_4  and  C_5 
REMARK    4  A    between atoms: C_6  and  O_7 
REMARK    5  A    between atoms: C_12  and  O_13 
REMARK    6  A    between atoms: C_17  and  C_18 
ROOT
HETATM    1  C   UNL     1      -6.839   3.993 -31.544  1.00  0.00     0.133 C 
HETATM    2  C   UNL     1      -7.723   4.027 -30.251  1.00  0.00     0.073 C 
HETATM    3  C   UNL     1      -7.413   5.259 -29.384  1.00  0.00     0.047 C 
HETATM    4  C   UNL     1      -9.243   4.064 -30.608  1.00  0.00     0.097 C 
HETATM    5  C   UNL     1      -9.537   3.164 -31.752  1.00  0.00     0.042 A 
HETATM    6  C   UNL     1      -8.636   2.627 -32.649  1.00  0.00     0.030 A 
HETATM    7  C   UNL     1      -9.452   1.894 -33.525  1.00  0.00     0.190 A 
HETATM    8  N   UNL     1     -10.744   1.959 -33.231  1.00  0.00    -0.149 NA
HETATM    9  N   UNL     1     -10.774   2.722 -32.124  1.00  0.00    -0.279 N 
HETATM   10  H   UNL     1     -11.672   2.904 -31.689  1.00  0.00     0.189 HD
HETATM   11  C   UNL     1      -7.169   2.887 -32.587  1.00  0.00     0.075 C 
ENDROOT
BRANCH  11  12
HETATM   12  C   UNL     1      -6.488   1.536 -32.426  1.00  0.00    -0.045 A 
HETATM   13  C   UNL     1      -5.533   1.037 -33.326  1.00  0.00     0.050 A 
HETATM   14  C   UNL     1      -4.958  -0.215 -33.123  1.00  0.00     0.117 A 
HETATM   15  F   UNL     1      -4.054  -0.675 -33.997  1.00  0.00    -0.206 F 
HETATM   16  C   UNL     1      -5.308  -0.998 -32.031  1.00  0.00     0.042 A 
HETATM   17  C   UNL     1      -6.252  -0.524 -31.126  1.00  0.00     0.004 A 
HETATM   18  C   UNL     1      -6.840   0.729 -31.325  1.00  0.00     0.008 A 
ENDBRANCH  11  12
BRANCH   1  19
HETATM   19  C   UNL     1      -5.343   4.029 -31.315  1.00  0.00     0.267 C 
HETATM   20  O   UNL     1      -4.789   3.381 -30.435  1.00  0.00    -0.265 OA
BRANCH  19  21
HETATM   21  O   UNL     1      -4.714   4.890 -32.160  1.00  0.00    -0.316 OA
BRANCH  21  22
HETATM   22  C   UNL     1      -3.996   4.306 -33.264  1.00  0.00     0.123 C 
HETATM   23  C   UNL     1      -2.497   4.473 -33.049  1.00  0.00     0.040 C 
HETATM   24  C   UNL     1      -4.444   5.042 -34.521  1.00  0.00     0.040 C 
ENDBRANCH  21  22
ENDBRANCH  19  21
ENDBRANCH   1  19
BRANCH   2  25
HETATM   25  O   UNL     1      -7.516   2.875 -29.424  1.00  0.00    -0.389 OA
HETATM   26  H   UNL     1      -7.462   3.178 -28.496  1.00  0.00     0.210 HD
ENDBRANCH   2  25
BRANCH   7  27
HETATM   27  O   UNL     1      -9.116   1.150 -34.581  1.00  0.00    -0.343 OA
HETATM   28  H   UNL     1      -8.986   1.724 -35.349  1.00  0.00     0.219 HD
ENDBRANCH   7  27
TORSDOF 6
ENDMDL
MODEL 7
REMARK VINA RESULT:      -6.8      1.621      2.270
REMARK  6 active torsions:
REMARK  status: ('A' for Active; 'I' for Inactive)
REMARK    1  A    between atoms: C_2  and  O_3 
REMARK    2  A    between atoms: O_3  and  C_4 
REMARK    3  A    between atoms: C_4  and  C_5 
REMARK    4  A    between atoms: C_6  and  O_7 
REMARK    5  A    between atoms: C_12  and  O_13 
REMARK    6  A    between atoms: C_17  and  C_18 
ROOT
HETATM    1  C   UNL     1      -7.043   1.142 -32.091  1.00  0.00     0.133 C 
HETATM    2  C   UNL     1      -8.358   1.740 -32.695  1.00  0.00     0.073 C 
HETATM    3  C   UNL     1      -9.241   0.648 -33.326  1.00  0.00     0.047 C 
HETATM    4  C   UNL     1      -9.205   2.464 -31.600  1.00  0.00     0.097 C 
HETATM    5  C   UNL     1      -8.327   3.232 -30.681  1.00  0.00     0.042 A 
HETATM    6  C   UNL     1      -6.965   3.098 -30.515  1.00  0.00     0.030 A 
HETATM    7  C   UNL     1      -6.668   4.035 -29.512  1.00  0.00     0.190 A 
HETATM    8  N   UNL     1      -7.730   4.696 -29.069  1.00  0.00    -0.149 NA
HETATM    9  N   UNL     1      -8.735   4.209 -29.817  1.00  0.00    -0.279 N 
HETATM   10  H   UNL     1      -9.667   4.582 -29.673  1.00  0.00     0.189 HD
HETATM   11  C   UNL     1      -6.143   2.115 -31.278  1.00  0.00     0.075 C 
ENDROOT
BRANCH  11  12
HETATM   12  C   UNL     1      -5.095   2.914 -32.039  1.00  0.00    -0.045 A 
HETATM   13  C   UNL     1      -5.408   3.851 -33.037  1.00  0.00     0.050 A 
HETATM   14  C   UNL     1      -4.396   4.538 -33.703  1.00  0.00     0.117 A 
HETATM   15  F   UNL     1      -4.716   5.422 -34.656  1.00  0.00    -0.206 F 
HETATM   16  C   UNL     1      -3.059   4.320 -33.398  1.00  0.00     0.042 A 
HETATM   17  C   UNL     1      -2.725   3.397 -32.412  1.00  0.00     0.004 A 
HETATM   18  C   UNL     1      -3.734   2.697 -31.743  1.00  0.00     0.008 A 
ENDBRANCH  11  12
BRANCH   1  19
HETATM   19  C   UNL     1      -6.180   0.353 -33.052  1.00  0.00     0.267 C 
HETATM   20  O   UNL     1      -6.143   0.584 -34.255  1.00  0.00    -0.265 OA
BRANCH  19  21
HETATM   21  O   UNL     1      -5.505  -0.651 -32.432  1.00  0.00    -0.316 OA
BRANCH  21  22
HETATM   22  C   UNL     1      -4.218  -1.000 -32.977  1.00  0.00     0.123 C 
HETATM   23  C   UNL     1      -4.288  -2.381 -33.618  1.00  0.00     0.040 C 
HETATM   24  C   UNL     1      -3.230  -0.996 -31.817  1.00  0.00     0.040 C 
ENDBRANCH  21  22
ENDBRANCH  19  21
ENDBRANCH   1  19
BRANCH   2  25
HETATM   25  O   UNL     1      -8.093   2.703 -33.722  1.00  0.00    -0.389 OA
HETATM   26  H   UNL     1      -7.420   2.325 -34.322  1.00  0.00     0.210 HD
ENDBRANCH   2  25
BRANCH   7  27
HETATM   27  O   UNL     1      -5.494   4.352 -28.962  1.00  0.00    -0.343 OA
HETATM   28  H   UNL     1      -4.889   4.657 -29.653  1.00  0.00     0.219 HD
ENDBRANCH   7  27
TORSDOF 6
ENDMDL
MODEL 8
REMARK VINA RESULT:      -6.8      3.082      5.155
REMARK  6 active torsions:
REMARK  status: ('A' for Active; 'I' for Inactive)
REMARK    1  A    between atoms: C_2  and  O_3 
REMARK    2  A    between atoms: O_3  and  C_4 
REMARK    3  A    between atoms: C_4  and  C_5 
REMARK    4  A    between atoms: C_6  and  O_7 
REMARK    5  A    between atoms: C_12  and  O_13 
REMARK    6  A    between atoms: C_17  and  C_18 
ROOT
HETATM    1  C   UNL     1      -6.527   1.520 -31.895  1.00  0.00     0.133 C 
HETATM    2  C   UNL     1      -6.296   1.895 -30.392  1.00  0.00     0.073 C 
HETATM    3  C   UNL     1      -5.611   0.754 -29.621  1.00  0.00     0.047 C 
HETATM    4  C   UNL     1      -5.398   3.167 -30.259  1.00  0.00     0.097 C 
HETATM    5  C   UNL     1      -5.761   4.176 -31.288  1.00  0.00     0.042 A 
HETATM    6  C   UNL     1      -6.497   3.974 -32.437  1.00  0.00     0.030 A 
HETATM    7  C   UNL     1      -6.502   5.240 -33.043  1.00  0.00     0.190 A 
HETATM    8  N   UNL     1      -5.831   6.161 -32.362  1.00  0.00    -0.149 NA
HETATM    9  N   UNL     1      -5.406   5.494 -31.274  1.00  0.00    -0.279 N 
HETATM   10  H   UNL     1      -4.872   6.002 -30.577  1.00  0.00     0.189 HD
HETATM   11  C   UNL     1      -7.061   2.649 -32.823  1.00  0.00     0.075 C 
ENDROOT
BRANCH  11  12
HETATM   12  C   UNL     1      -8.569   2.825 -32.928  1.00  0.00    -0.045 A 
HETATM   13  C   UNL     1      -9.364   3.337 -31.890  1.00  0.00     0.050 A 
HETATM   14  C   UNL     1     -10.742   3.460 -32.051  1.00  0.00     0.117 A 
HETATM   15  F   UNL     1     -11.483   3.944 -31.046  1.00  0.00    -0.206 F 
HETATM   16  C   UNL     1     -11.363   3.087 -33.236  1.00  0.00     0.042 A 
HETATM   17  C   UNL     1     -10.595   2.577 -34.278  1.00  0.00     0.004 A 
HETATM   18  C   UNL     1      -9.211   2.443 -34.123  1.00  0.00     0.008 A 
ENDBRANCH  11  12
BRANCH   1  19
HETATM   19  C   UNL     1      -7.326   0.258 -32.139  1.00  0.00     0.267 C 
HETATM   20  O   UNL     1      -8.429   0.063 -31.644  1.00  0.00    -0.265 OA
BRANCH  19  21
HETATM   21  O   UNL     1      -6.655  -0.632 -32.920  1.00  0.00    -0.316 OA
BRANCH  21  22
HETATM   22  C   UNL     1      -7.343  -1.114 -34.090  1.00  0.00     0.123 C 
HETATM   23  C   UNL     1      -6.871  -2.524 -34.420  1.00  0.00     0.040 C 
HETATM   24  C   UNL     1      -7.008  -0.155 -35.226  1.00  0.00     0.040 C 
ENDBRANCH  21  22
ENDBRANCH  19  21
ENDBRANCH   1  19
BRANCH   2  25
HETATM   25  O   UNL     1      -7.524   2.178 -29.710  1.00  0.00    -0.389 OA
HETATM   26  H   UNL     1      -8.257   1.824 -30.251  1.00  0.00     0.210 HD
ENDBRANCH   2  25
BRANCH   7  27
HETATM   27  O   UNL     1      -7.082   5.641 -34.176  1.00  0.00    -0.343 OA
HETATM   28  H   UNL     1      -7.636   6.415 -33.997  1.00  0.00     0.219 HD
ENDBRANCH   7  27
TORSDOF 6
ENDMDL
MODEL 9
REMARK VINA RESULT:      -6.8     14.654     16.016
REMARK  6 active torsions:
REMARK  status: ('A' for Active; 'I' for Inactive)
REMARK    1  A    between atoms: C_2  and  O_3 
REMARK    2  A    between atoms: O_3  and  C_4 
REMARK    3  A    between atoms: C_4  and  C_5 
REMARK    4  A    between atoms: C_6  and  O_7 
REMARK    5  A    between atoms: C_12  and  O_13 
REMARK    6  A    between atoms: C_17  and  C_18 
ROOT
HETATM    1  C   UNL     1      -4.075 -13.112 -37.358  1.00  0.00     0.133 C 
HETATM    2  C   UNL     1      -3.311 -14.467 -37.176  1.00  0.00     0.073 C 
HETATM    3  C   UNL     1      -1.903 -14.412 -37.791  1.00  0.00     0.047 C 
HETATM    4  C   UNL     1      -3.158 -14.830 -35.664  1.00  0.00     0.097 C 
HETATM    5  C   UNL     1      -4.401 -14.508 -34.918  1.00  0.00     0.042 A 
HETATM    6  C   UNL     1      -5.434 -13.688 -35.324  1.00  0.00     0.030 A 
HETATM    7  C   UNL     1      -6.316 -13.717 -34.232  1.00  0.00     0.190 A 
HETATM    8  N   UNL     1      -5.892 -14.466 -33.223  1.00  0.00    -0.149 NA
HETATM    9  N   UNL     1      -4.728 -14.965 -33.673  1.00  0.00    -0.279 N 
HETATM   10  H   UNL     1      -4.210 -15.598 -33.072  1.00  0.00     0.189 HD
HETATM   11  C   UNL     1      -5.447 -12.981 -36.636  1.00  0.00     0.075 C 
ENDROOT
BRANCH  11  12
HETATM   12  C   UNL     1      -6.687 -13.455 -37.381  1.00  0.00    -0.045 A 
HETATM   13  C   UNL     1      -7.568 -12.590 -38.050  1.00  0.00     0.050 A 
HETATM   14  C   UNL     1      -8.691 -13.092 -38.702  1.00  0.00     0.117 A 
HETATM   15  F   UNL     1      -9.522 -12.250 -39.328  1.00  0.00    -0.206 F 
HETATM   16  C   UNL     1      -8.968 -14.453 -38.711  1.00  0.00     0.042 A 
HETATM   17  C   UNL     1      -8.109 -15.329 -38.054  1.00  0.00     0.004 A 
HETATM   18  C   UNL     1      -6.982 -14.833 -37.391  1.00  0.00     0.008 A 
ENDBRANCH  11  12
BRANCH   1  19
HETATM   19  C   UNL     1      -4.217 -12.627 -38.785  1.00  0.00     0.267 C 
HETATM   20  O   UNL     1      -4.153 -11.443 -39.094  1.00  0.00    -0.265 OA
BRANCH  19  21
HETATM   21  O   UNL     1      -4.467 -13.645 -39.651  1.00  0.00    -0.316 OA
BRANCH  21  22
HETATM   22  C   UNL     1      -4.674 -13.285 -41.031  1.00  0.00     0.123 C 
HETATM   23  C   UNL     1      -6.141 -13.476 -41.398  1.00  0.00     0.040 C 
HETATM   24  C   UNL     1      -3.788 -14.202 -41.865  1.00  0.00     0.040 C 
ENDBRANCH  21  22
ENDBRANCH  19  21
ENDBRANCH   1  19
BRANCH   2  25
HETATM   25  O   UNL     1      -3.994 -15.561 -37.800  1.00  0.00    -0.389 OA
HETATM   26  H   UNL     1      -3.872 -15.479 -38.767  1.00  0.00     0.210 HD
ENDBRANCH   2  25
BRANCH   7  27
HETATM   27  O   UNL     1      -7.498 -13.117 -34.076  1.00  0.00    -0.343 OA
HETATM   28  H   UNL     1      -8.164 -13.576 -34.609  1.00  0.00     0.219 HD
ENDBRANCH   7  27
TORSDOF 6
ENDMDL
MODEL 10
REMARK VINA RESULT:      -6.8      7.603     10.046
REMARK  6 active torsions:
REMARK  status: ('A' for Active; 'I' for Inactive)
REMARK    1  A    between atoms: C_2  and  O_3 
REMARK    2  A    between atoms: O_3  and  C_4 
REMARK    3  A    between atoms: C_4  and  C_5 
REMARK    4  A    between atoms: C_6  and  O_7 
REMARK    5  A    between atoms: C_12  and  O_13 
REMARK    6  A    between atoms: C_17  and  C_18 
ROOT
HETATM    1  C   UNL     1      -1.781   8.189 -27.349  1.00  0.00     0.133 C 
HETATM    2  C   UNL     1      -3.233   7.718 -27.000  1.00  0.00     0.073 C 
HETATM    3  C   UNL     1      -3.462   7.660 -25.480  1.00  0.00     0.047 C 
HETATM    4  C   UNL     1      -4.302   8.683 -27.606  1.00  0.00     0.097 C 
HETATM    5  C   UNL     1      -3.908   9.110 -28.973  1.00  0.00     0.042 A 
HETATM    6  C   UNL     1      -2.659   9.021 -29.553  1.00  0.00     0.030 A 
HETATM    7  C   UNL     1      -2.849   9.594 -30.819  1.00  0.00     0.190 A 
HETATM    8  N   UNL     1      -4.088  10.020 -31.032  1.00  0.00    -0.149 NA
HETATM    9  N   UNL     1      -4.729   9.690 -29.897  1.00  0.00    -0.279 N 
HETATM   10  H   UNL     1      -5.719   9.902 -29.824  1.00  0.00     0.189 HD
HETATM   11  C   UNL     1      -1.473   8.449 -28.851  1.00  0.00     0.075 C 
ENDROOT
BRANCH  11  12
HETATM   12  C   UNL     1      -0.990   7.274 -29.689  1.00  0.00    -0.045 A 
HETATM   13  C   UNL     1      -1.828   6.235 -30.124  1.00  0.00     0.050 A 
HETATM   14  C   UNL     1      -1.314   5.183 -30.879  1.00  0.00     0.117 A 
HETATM   15  F   UNL     1      -2.129   4.199 -31.278  1.00  0.00    -0.206 F 
HETATM   16  C   UNL     1       0.030   5.135 -31.223  1.00  0.00     0.042 A 
HETATM   17  C   UNL     1       0.879   6.154 -30.803  1.00  0.00     0.004 A 
HETATM   18  C   UNL     1       0.374   7.211 -30.039  1.00  0.00     0.008 A 
ENDBRANCH  11  12
BRANCH   1  19
HETATM   19  C   UNL     1      -0.663   7.364 -26.749  1.00  0.00     0.267 C 
HETATM   20  O   UNL     1      -0.570   6.153 -26.908  1.00  0.00    -0.265 OA
BRANCH  19  21
HETATM   21  O   UNL     1       0.177   8.115 -25.987  1.00  0.00    -0.316 OA
BRANCH  21  22
HETATM   22  C   UNL     1       1.584   8.011 -26.279  1.00  0.00     0.123 C 
HETATM   23  C   UNL     1       2.396   8.487 -25.081  1.00  0.00     0.040 C 
HETATM   24  C   UNL     1       1.849   8.894 -27.493  1.00  0.00     0.040 C 
ENDBRANCH  21  22
ENDBRANCH  19  21
ENDBRANCH   1  19
BRANCH   2  25
HETATM   25  O   UNL     1      -3.515   6.409 -27.512  1.00  0.00    -0.389 OA
HETATM   26  H   UNL     1      -3.206   6.376 -28.439  1.00  0.00     0.210 HD
ENDBRANCH   2  25
BRANCH   7  27
HETATM   27  O   UNL     1      -1.981   9.759 -31.819  1.00  0.00    -0.343 OA
HETATM   28  H   UNL     1      -2.269   9.238 -32.583  1.00  0.00     0.219 HD
ENDBRANCH   7  27
TORSDOF 6
ENDMDL
