MODEL 1
REMARK VINA RESULT:     -10.0      0.000      0.000
REMARK  4 active torsions:
REMARK  status: ('A' for Active; 'I' for Inactive)
REMARK    1  A    between atoms: C_6  and  C_7 
REMARK    2  A    between atoms: C_10  and  N_11 
REMARK       I    between atoms: N_11  and  C_12 
REMARK    3  A    between atoms: C_24  and  C_25 
REMARK       I    between atoms: C_25  and  N_26 
REMARK    4  A    between atoms: N_26  and  C_27 
ROOT
HETATM    1  C   UNL     1      -8.267   0.334 -35.100  1.00  0.00     0.070 C 
HETATM    2  C   UNL     1      -7.755   1.309 -34.070  1.00  0.00     0.037 C 
HETATM    3  N   UNL     1      -8.379   2.555 -34.071  1.00  0.00    -0.193 N 
HETATM    4  C   UNL     1      -8.373   3.375 -33.000  1.00  0.00     0.709 A 
HETATM    5  N   UNL     1      -7.507   3.114 -31.969  1.00  0.00    -0.165 N 
HETATM    6  C   UNL     1      -6.500   2.044 -32.027  1.00  0.00     0.182 C 
HETATM    7  N   UNL     1      -9.135   4.407 -32.745  1.00  0.00    -0.062 NA
HETATM    8  C   UNL     1      -8.790   4.793 -31.468  1.00  0.00     0.103 A 
HETATM    9  C   UNL     1      -7.778   3.987 -30.946  1.00  0.00     0.082 A 
HETATM   10  C   UNL     1      -9.316   5.829 -30.680  1.00  0.00     0.034 A 
HETATM   11  C   UNL     1      -8.811   6.016 -29.387  1.00  0.00     0.002 A 
HETATM   12  C   UNL     1      -7.801   5.191 -28.888  1.00  0.00     0.002 A 
HETATM   13  C   UNL     1      -7.258   4.157 -29.659  1.00  0.00     0.032 A 
HETATM   14  C   UNL     1      -6.831   1.029 -33.115  1.00  0.00     0.061 C 
HETATM   15  H   UNL     1      -9.138   2.690 -34.733  1.00  0.00     0.184 HD
ENDROOT
BRANCH   6  16
HETATM   16  C   UNL     1      -5.122   2.686 -32.192  1.00  0.00    -0.030 A 
HETATM   17  C   UNL     1      -4.082   2.354 -31.312  1.00  0.00     0.012 A 
HETATM   18  C   UNL     1      -2.870   3.058 -31.332  1.00  0.00     0.030 A 
HETATM   19  C   UNL     1      -2.667   4.098 -32.238  1.00  0.00     0.034 A 
HETATM   20  C   UNL     1      -3.672   4.383 -33.169  1.00  0.00     0.030 A 
HETATM   21  C   UNL     1      -4.886   3.689 -33.147  1.00  0.00     0.012 A 
BRANCH  19  22
HETATM   22  N   UNL     1      -1.522   4.923 -32.258  1.00  0.00    -0.328 N 
HETATM   23  C   UNL     1      -1.216   5.957 -31.392  1.00  0.00     0.218 C 
HETATM   24  C   UNL     1       0.038   6.689 -31.803  1.00  0.00     0.117 C 
HETATM   25  O   UNL     1      -1.835   6.288 -30.386  1.00  0.00    -0.274 OA
HETATM   26  H   UNL     1      -0.891   4.782 -33.036  1.00  0.00     0.169 HD
ENDBRANCH  19  22
ENDBRANCH   6  16
BRANCH  14  27
HETATM   27  C   UNL     1      -6.221  -0.314 -32.901  1.00  0.00     0.256 C 
HETATM   28  N   UNL     1      -5.776  -0.925 -34.052  1.00  0.00    -0.323 N 
HETATM   29  H   UNL     1      -5.785  -0.375 -34.900  1.00  0.00     0.169 HD
HETATM   30  O   UNL     1      -6.143  -0.747 -31.758  1.00  0.00    -0.267 OA
BRANCH  28  31
HETATM   31  C   UNL     1      -5.406  -2.280 -34.201  1.00  0.00     0.035 A 
HETATM   32  C   UNL     1      -4.178  -2.804 -33.788  1.00  0.00     0.029 A 
HETATM   33  C   UNL     1      -3.911  -4.172 -33.909  1.00  0.00     0.002 A 
HETATM   34  C   UNL     1      -4.870  -5.029 -34.441  1.00  0.00     0.000 A 
HETATM   35  C   UNL     1      -6.095  -4.518 -34.862  1.00  0.00     0.002 A 
HETATM   36  C   UNL     1      -6.359  -3.151 -34.745  1.00  0.00     0.029 A 
ENDBRANCH  28  31
ENDBRANCH  14  27
TORSDOF 4
ENDMDL
MODEL 2
REMARK VINA RESULT:      -9.8      2.123      7.005
REMARK  4 active torsions:
REMARK  status: ('A' for Active; 'I' for Inactive)
REMARK    1  A    between atoms: C_6  and  C_7 
REMARK    2  A    between atoms: C_10  and  N_11 
REMARK       I    between atoms: N_11  and  C_12 
REMARK    3  A    between atoms: C_24  and  C_25 
REMARK       I    between atoms: C_25  and  N_26 
REMARK    4  A    between atoms: N_26  and  C_27 
ROOT
HETATM    1  C   UNL     1      -5.805   4.001 -28.949  1.00  0.00     0.070 C 
HETATM    2  C   UNL     1      -6.566   3.518 -30.159  1.00  0.00     0.037 C 
HETATM    3  N   UNL     1      -7.927   3.302 -29.955  1.00  0.00    -0.193 N 
HETATM    4  C   UNL     1      -8.823   3.292 -30.964  1.00  0.00     0.709 A 
HETATM    5  N   UNL     1      -8.368   3.221 -32.255  1.00  0.00    -0.165 N 
HETATM    6  C   UNL     1      -6.948   3.037 -32.590  1.00  0.00     0.182 C 
HETATM    7  N   UNL     1     -10.126   3.397 -30.913  1.00  0.00    -0.062 NA
HETATM    8  C   UNL     1     -10.527   3.458 -32.229  1.00  0.00     0.103 A 
HETATM    9  C   UNL     1      -9.440   3.366 -33.099  1.00  0.00     0.082 A 
HETATM   10  C   UNL     1     -11.818   3.606 -32.760  1.00  0.00     0.034 A 
HETATM   11  C   UNL     1     -11.974   3.664 -34.150  1.00  0.00     0.002 A 
HETATM   12  C   UNL     1     -10.868   3.574 -34.998  1.00  0.00     0.002 A 
HETATM   13  C   UNL     1      -9.573   3.420 -34.490  1.00  0.00     0.032 A 
HETATM   14  C   UNL     1      -6.050   3.383 -31.407  1.00  0.00     0.061 C 
HETATM   15  H   UNL     1      -8.295   3.514 -29.032  1.00  0.00     0.184 HD
ENDROOT
BRANCH   6  16
HETATM   16  C   UNL     1      -6.753   1.610 -33.104  1.00  0.00    -0.030 A 
HETATM   17  C   UNL     1      -6.741   1.355 -34.483  1.00  0.00     0.012 A 
HETATM   18  C   UNL     1      -6.744   0.042 -34.973  1.00  0.00     0.030 A 
HETATM   19  C   UNL     1      -6.746  -1.043 -34.097  1.00  0.00     0.034 A 
HETATM   20  C   UNL     1      -6.681  -0.795 -32.721  1.00  0.00     0.030 A 
HETATM   21  C   UNL     1      -6.687   0.514 -32.229  1.00  0.00     0.012 A 
BRANCH  19  22
HETATM   22  N   UNL     1      -6.852  -2.390 -34.501  1.00  0.00    -0.328 N 
HETATM   23  C   UNL     1      -5.823  -3.247 -34.852  1.00  0.00     0.218 C 
HETATM   24  C   UNL     1      -6.336  -4.577 -35.346  1.00  0.00     0.117 C 
HETATM   25  O   UNL     1      -4.619  -3.025 -34.783  1.00  0.00    -0.274 OA
HETATM   26  H   UNL     1      -7.793  -2.744 -34.612  1.00  0.00     0.169 HD
ENDBRANCH  19  22
ENDBRANCH   6  16
BRANCH  14  27
HETATM   27  C   UNL     1      -4.657   3.751 -31.788  1.00  0.00     0.256 C 
HETATM   28  N   UNL     1      -4.534   5.002 -32.350  1.00  0.00    -0.323 N 
HETATM   29  H   UNL     1      -5.352   5.595 -32.339  1.00  0.00     0.169 HD
HETATM   30  O   UNL     1      -3.757   2.952 -31.561  1.00  0.00    -0.267 OA
BRANCH  28  31
HETATM   31  C   UNL     1      -3.411   5.512 -33.040  1.00  0.00     0.035 A 
HETATM   32  C   UNL     1      -2.686   6.633 -32.630  1.00  0.00     0.029 A 
HETATM   33  C   UNL     1      -1.544   7.037 -33.330  1.00  0.00     0.002 A 
HETATM   34  C   UNL     1      -1.116   6.323 -34.446  1.00  0.00     0.000 A 
HETATM   35  C   UNL     1      -1.834   5.208 -34.868  1.00  0.00     0.002 A 
HETATM   36  C   UNL     1      -2.978   4.808 -34.171  1.00  0.00     0.029 A 
ENDBRANCH  28  31
ENDBRANCH  14  27
TORSDOF 4
ENDMDL
MODEL 3
REMARK VINA RESULT:      -9.3      3.203      6.125
REMARK  4 active torsions:
REMARK  status: ('A' for Active; 'I' for Inactive)
REMARK    1  A    between atoms: C_6  and  C_7 
REMARK    2  A    between atoms: C_10  and  N_11 
REMARK       I    between atoms: N_11  and  C_12 
REMARK    3  A    between atoms: C_24  and  C_25 
REMARK       I    between atoms: C_25  and  N_26 
REMARK    4  A    between atoms: N_26  and  C_27 
ROOT
HETATM    1  C   UNL     1      -5.679   0.324 -29.659  1.00  0.00     0.070 C 
HETATM    2  C   UNL     1      -6.574   1.255 -30.437  1.00  0.00     0.037 C 
HETATM    3  N   UNL     1      -7.241   2.212 -29.675  1.00  0.00    -0.193 N 
HETATM    4  C   UNL     1      -7.722   3.358 -30.200  1.00  0.00     0.709 A 
HETATM    5  N   UNL     1      -7.808   3.479 -31.563  1.00  0.00    -0.165 N 
HETATM    6  C   UNL     1      -7.507   2.370 -32.481  1.00  0.00     0.182 C 
HETATM    7  N   UNL     1      -8.094   4.454 -29.591  1.00  0.00    -0.062 NA
HETATM    8  C   UNL     1      -8.373   5.344 -30.605  1.00  0.00     0.103 A 
HETATM    9  C   UNL     1      -8.187   4.763 -31.859  1.00  0.00     0.082 A 
HETATM   10  C   UNL     1      -8.785   6.683 -30.523  1.00  0.00     0.034 A 
HETATM   11  C   UNL     1      -8.988   7.399 -31.710  1.00  0.00     0.002 A 
HETATM   12  C   UNL     1      -8.790   6.795 -32.953  1.00  0.00     0.002 A 
HETATM   13  C   UNL     1      -8.387   5.459 -33.056  1.00  0.00     0.032 A 
HETATM   14  C   UNL     1      -6.691   1.284 -31.790  1.00  0.00     0.061 C 
HETATM   15  H   UNL     1      -7.047   2.224 -28.678  1.00  0.00     0.184 HD
ENDROOT
BRANCH   6  16
HETATM   16  C   UNL     1      -8.823   1.860 -33.071  1.00  0.00    -0.030 A 
HETATM   17  C   UNL     1      -9.414   2.527 -34.153  1.00  0.00     0.012 A 
HETATM   18  C   UNL     1     -10.701   2.188 -34.592  1.00  0.00     0.030 A 
HETATM   19  C   UNL     1     -11.418   1.167 -33.969  1.00  0.00     0.034 A 
HETATM   20  C   UNL     1     -10.803   0.447 -32.938  1.00  0.00     0.030 A 
HETATM   21  C   UNL     1      -9.523   0.789 -32.491  1.00  0.00     0.012 A 
BRANCH  19  22
HETATM   22  N   UNL     1     -12.753   0.831 -34.278  1.00  0.00    -0.328 N 
HETATM   23  C   UNL     1     -13.904   1.453 -33.828  1.00  0.00     0.218 C 
HETATM   24  C   UNL     1     -15.151   0.734 -34.278  1.00  0.00     0.117 C 
HETATM   25  O   UNL     1     -13.977   2.474 -33.152  1.00  0.00    -0.274 OA
HETATM   26  H   UNL     1     -12.878  -0.002 -34.839  1.00  0.00     0.169 HD
ENDBRANCH  19  22
ENDBRANCH   6  16
BRANCH  14  27
HETATM   27  C   UNL     1      -5.899   0.431 -32.722  1.00  0.00     0.256 C 
HETATM   28  N   UNL     1      -6.507  -0.758 -33.057  1.00  0.00    -0.323 N 
HETATM   29  H   UNL     1      -7.461  -0.890 -32.754  1.00  0.00     0.169 HD
HETATM   30  O   UNL     1      -4.819   0.847 -33.123  1.00  0.00    -0.267 OA
BRANCH  28  31
HETATM   31  C   UNL     1      -5.903  -1.867 -33.692  1.00  0.00     0.035 A 
HETATM   32  C   UNL     1      -4.563  -2.228 -33.525  1.00  0.00     0.029 A 
HETATM   33  C   UNL     1      -4.056  -3.380 -34.136  1.00  0.00     0.002 A 
HETATM   34  C   UNL     1      -4.883  -4.182 -34.917  1.00  0.00     0.000 A 
HETATM   35  C   UNL     1      -6.217  -3.829 -35.096  1.00  0.00     0.002 A 
HETATM   36  C   UNL     1      -6.723  -2.675 -34.489  1.00  0.00     0.029 A 
ENDBRANCH  28  31
ENDBRANCH  14  27
TORSDOF 4
ENDMDL
MODEL 4
REMARK VINA RESULT:      -9.3      2.457      7.013
REMARK  4 active torsions:
REMARK  status: ('A' for Active; 'I' for Inactive)
REMARK    1  A    between atoms: C_6  and  C_7 
REMARK    2  A    between atoms: C_10  and  N_11 
REMARK       I    between atoms: N_11  and  C_12 
REMARK    3  A    between atoms: C_24  and  C_25 
REMARK       I    between atoms: C_25  and  N_26 
REMARK    4  A    between atoms: N_26  and  C_27 
ROOT
HETATM    1  C   UNL     1      -6.618   5.149 -30.703  1.00  0.00     0.070 C 
HETATM    2  C   UNL     1      -7.367   4.166 -31.567  1.00  0.00     0.037 C 
HETATM    3  N   UNL     1      -8.607   3.767 -31.073  1.00  0.00    -0.193 N 
HETATM    4  C   UNL     1      -9.578   3.260 -31.860  1.00  0.00     0.709 A 
HETATM    5  N   UNL     1      -9.261   2.866 -33.135  1.00  0.00    -0.165 N 
HETATM    6  C   UNL     1      -7.882   2.863 -33.647  1.00  0.00     0.182 C 
HETATM    7  N   UNL     1     -10.855   3.121 -31.612  1.00  0.00    -0.062 NA
HETATM    8  C   UNL     1     -11.398   2.676 -32.798  1.00  0.00     0.103 A 
HETATM    9  C   UNL     1     -10.420   2.522 -33.781  1.00  0.00     0.082 A 
HETATM   10  C   UNL     1     -12.736   2.392 -33.111  1.00  0.00     0.034 A 
HETATM   11  C   UNL     1     -13.050   1.969 -34.409  1.00  0.00     0.002 A 
HETATM   12  C   UNL     1     -12.052   1.827 -35.375  1.00  0.00     0.002 A 
HETATM   13  C   UNL     1     -10.711   2.098 -35.082  1.00  0.00     0.032 A 
HETATM   14  C   UNL     1      -6.972   3.738 -32.793  1.00  0.00     0.061 C 
HETATM   15  H   UNL     1      -8.914   4.189 -30.200  1.00  0.00     0.184 HD
ENDROOT
BRANCH   6  16
HETATM   16  C   UNL     1      -7.408   1.413 -33.752  1.00  0.00    -0.030 A 
HETATM   17  C   UNL     1      -6.974   0.730 -32.607  1.00  0.00     0.012 A 
HETATM   18  C   UNL     1      -6.370  -0.531 -32.707  1.00  0.00     0.030 A 
HETATM   19  C   UNL     1      -6.199  -1.141 -33.949  1.00  0.00     0.034 A 
HETATM   20  C   UNL     1      -6.698  -0.497 -35.087  1.00  0.00     0.030 A 
HETATM   21  C   UNL     1      -7.294   0.764 -34.993  1.00  0.00     0.012 A 
BRANCH  19  22
HETATM   22  N   UNL     1      -5.512  -2.356 -34.149  1.00  0.00    -0.328 N 
HETATM   23  C   UNL     1      -6.047  -3.570 -34.544  1.00  0.00     0.218 C 
HETATM   24  C   UNL     1      -5.018  -4.674 -34.533  1.00  0.00     0.117 C 
HETATM   25  O   UNL     1      -7.202  -3.792 -34.888  1.00  0.00    -0.274 OA
HETATM   26  H   UNL     1      -4.529  -2.351 -33.910  1.00  0.00     0.169 HD
ENDBRANCH  19  22
ENDBRANCH   6  16
BRANCH  14  27
HETATM   27  C   UNL     1      -5.756   4.226 -33.504  1.00  0.00     0.256 C 
HETATM   28  N   UNL     1      -4.569   3.901 -32.886  1.00  0.00    -0.323 N 
HETATM   29  H   UNL     1      -4.616   3.271 -32.098  1.00  0.00     0.169 HD
HETATM   30  O   UNL     1      -5.897   4.837 -34.557  1.00  0.00    -0.267 OA
BRANCH  28  31
HETATM   31  C   UNL     1      -3.293   4.439 -33.169  1.00  0.00     0.035 A 
HETATM   32  C   UNL     1      -2.909   4.920 -34.424  1.00  0.00     0.029 A 
HETATM   33  C   UNL     1      -1.649   5.500 -34.608  1.00  0.00     0.002 A 
HETATM   34  C   UNL     1      -0.763   5.608 -33.540  1.00  0.00     0.000 A 
HETATM   35  C   UNL     1      -1.132   5.127 -32.287  1.00  0.00     0.002 A 
HETATM   36  C   UNL     1      -2.389   4.542 -32.104  1.00  0.00     0.029 A 
ENDBRANCH  28  31
ENDBRANCH  14  27
TORSDOF 4
ENDMDL
MODEL 5
REMARK VINA RESULT:      -9.1      2.040      7.197
REMARK  4 active torsions:
REMARK  status: ('A' for Active; 'I' for Inactive)
REMARK    1  A    between atoms: C_6  and  C_7 
REMARK    2  A    between atoms: C_10  and  N_11 
REMARK       I    between atoms: N_11  and  C_12 
REMARK    3  A    between atoms: C_24  and  C_25 
REMARK       I    between atoms: C_25  and  N_26 
REMARK    4  A    between atoms: N_26  and  C_27 
ROOT
HETATM    1  C   UNL     1      -5.625   5.489 -29.166  1.00  0.00     0.070 C 
HETATM    2  C   UNL     1      -6.027   4.384 -30.109  1.00  0.00     0.037 C 
HETATM    3  N   UNL     1      -7.275   3.817 -29.861  1.00  0.00    -0.193 N 
HETATM    4  C   UNL     1      -7.975   3.151 -30.802  1.00  0.00     0.709 A 
HETATM    5  N   UNL     1      -7.341   2.777 -31.960  1.00  0.00    -0.165 N 
HETATM    6  C   UNL     1      -5.899   2.967 -32.174  1.00  0.00     0.182 C 
HETATM    7  N   UNL     1      -9.243   2.829 -30.817  1.00  0.00    -0.062 NA
HETATM    8  C   UNL     1      -9.453   2.279 -32.063  1.00  0.00     0.103 A 
HETATM    9  C   UNL     1      -8.277   2.247 -32.811  1.00  0.00     0.082 A 
HETATM   10  C   UNL     1     -10.640   1.790 -32.630  1.00  0.00     0.034 A 
HETATM   11  C   UNL     1     -10.607   1.293 -33.938  1.00  0.00     0.002 A 
HETATM   12  C   UNL     1      -9.417   1.277 -34.668  1.00  0.00     0.002 A 
HETATM   13  C   UNL     1      -8.221   1.753 -34.119  1.00  0.00     0.032 A 
HETATM   14  C   UNL     1      -5.323   3.990 -31.201  1.00  0.00     0.061 C 
HETATM   15  H   UNL     1      -7.817   4.210 -29.096  1.00  0.00     0.184 HD
ENDROOT
BRANCH   6  16
HETATM   16  C   UNL     1      -5.214   1.602 -32.098  1.00  0.00    -0.030 A 
HETATM   17  C   UNL     1      -3.969   1.405 -32.711  1.00  0.00     0.012 A 
HETATM   18  C   UNL     1      -3.409   0.124 -32.808  1.00  0.00     0.030 A 
HETATM   19  C   UNL     1      -4.074  -0.984 -32.284  1.00  0.00     0.034 A 
HETATM   20  C   UNL     1      -5.281  -0.783 -31.605  1.00  0.00     0.030 A 
HETATM   21  C   UNL     1      -5.847   0.492 -31.514  1.00  0.00     0.012 A 
BRANCH  19  22
HETATM   22  N   UNL     1      -3.633  -2.316 -32.428  1.00  0.00    -0.328 N 
HETATM   23  C   UNL     1      -3.903  -3.183 -33.473  1.00  0.00     0.218 C 
HETATM   24  C   UNL     1      -3.359  -4.567 -33.216  1.00  0.00     0.117 C 
HETATM   25  O   UNL     1      -4.495  -2.925 -34.515  1.00  0.00    -0.274 OA
HETATM   26  H   UNL     1      -3.120  -2.697 -31.645  1.00  0.00     0.169 HD
ENDBRANCH  19  22
ENDBRANCH   6  16
BRANCH  14  27
HETATM   27  C   UNL     1      -4.065   4.636 -31.671  1.00  0.00     0.256 C 
HETATM   28  N   UNL     1      -3.061   4.674 -30.730  1.00  0.00    -0.323 N 
HETATM   29  H   UNL     1      -3.214   4.163 -29.871  1.00  0.00     0.169 HD
HETATM   30  O   UNL     1      -4.012   5.049 -32.823  1.00  0.00    -0.267 OA
BRANCH  28  31
HETATM   31  C   UNL     1      -1.876   5.440 -30.788  1.00  0.00     0.035 A 
HETATM   32  C   UNL     1      -1.726   6.695 -30.191  1.00  0.00     0.029 A 
HETATM   33  C   UNL     1      -0.498   7.363 -30.236  1.00  0.00     0.002 A 
HETATM   34  C   UNL     1       0.593   6.782 -30.876  1.00  0.00     0.000 A 
HETATM   35  C   UNL     1       0.455   5.536 -31.481  1.00  0.00     0.002 A 
HETATM   36  C   UNL     1      -0.774   4.871 -31.440  1.00  0.00     0.029 A 
ENDBRANCH  28  31
ENDBRANCH  14  27
TORSDOF 4
ENDMDL
MODEL 6
REMARK VINA RESULT:      -9.1      1.726      2.388
REMARK  4 active torsions:
REMARK  status: ('A' for Active; 'I' for Inactive)
REMARK    1  A    between atoms: C_6  and  C_7 
REMARK    2  A    between atoms: C_10  and  N_11 
REMARK       I    between atoms: N_11  and  C_12 
REMARK    3  A    between atoms: C_24  and  C_25 
REMARK       I    between atoms: C_25  and  N_26 
REMARK    4  A    between atoms: N_26  and  C_27 
ROOT
HETATM    1  C   UNL     1     -10.459   1.468 -34.039  1.00  0.00     0.070 C 
HETATM    2  C   UNL     1      -9.671   2.459 -33.220  1.00  0.00     0.037 C 
HETATM    3  N   UNL     1     -10.248   3.721 -33.102  1.00  0.00    -0.193 N 
HETATM    4  C   UNL     1      -9.939   4.574 -32.102  1.00  0.00     0.709 A 
HETATM    5  N   UNL     1      -8.834   4.320 -31.330  1.00  0.00    -0.165 N 
HETATM    6  C   UNL     1      -7.901   3.220 -31.615  1.00  0.00     0.182 C 
HETATM    7  N   UNL     1     -10.584   5.636 -31.693  1.00  0.00    -0.062 NA
HETATM    8  C   UNL     1      -9.903   6.051 -30.569  1.00  0.00     0.103 A 
HETATM    9  C   UNL     1      -8.805   5.231 -30.306  1.00  0.00     0.082 A 
HETATM   10  C   UNL     1     -10.178   7.125 -29.709  1.00  0.00     0.034 A 
HETATM   11  C   UNL     1      -9.343   7.337 -28.605  1.00  0.00     0.002 A 
HETATM   12  C   UNL     1      -8.252   6.499 -28.363  1.00  0.00     0.002 A 
HETATM   13  C   UNL     1      -7.957   5.426 -29.211  1.00  0.00     0.032 A 
HETATM   14  C   UNL     1      -8.531   2.182 -32.537  1.00  0.00     0.061 C 
HETATM   15  H   UNL     1     -11.153   3.859 -33.542  1.00  0.00     0.184 HD
ENDROOT
BRANCH   6  16
HETATM   16  C   UNL     1      -6.605   3.815 -32.165  1.00  0.00    -0.030 A 
HETATM   17  C   UNL     1      -6.537   4.240 -33.500  1.00  0.00     0.012 A 
HETATM   18  C   UNL     1      -5.315   4.620 -34.073  1.00  0.00     0.030 A 
HETATM   19  C   UNL     1      -4.140   4.596 -33.323  1.00  0.00     0.034 A 
HETATM   20  C   UNL     1      -4.215   4.245 -31.970  1.00  0.00     0.030 A 
HETATM   21  C   UNL     1      -5.429   3.857 -31.397  1.00  0.00     0.012 A 
BRANCH  19  22
HETATM   22  N   UNL     1      -2.858   4.862 -33.847  1.00  0.00    -0.328 N 
HETATM   23  C   UNL     1      -2.182   6.070 -33.845  1.00  0.00     0.218 C 
HETATM   24  C   UNL     1      -0.882   5.994 -34.606  1.00  0.00     0.117 C 
HETATM   25  O   UNL     1      -2.531   7.112 -33.301  1.00  0.00    -0.274 OA
HETATM   26  H   UNL     1      -2.415   4.097 -34.339  1.00  0.00     0.169 HD
ENDBRANCH  19  22
ENDBRANCH   6  16
BRANCH  14  27
HETATM   27  C   UNL     1      -7.913   0.829 -32.442  1.00  0.00     0.256 C 
HETATM   28  N   UNL     1      -6.971   0.567 -33.412  1.00  0.00    -0.323 N 
HETATM   29  H   UNL     1      -6.696   1.335 -34.008  1.00  0.00     0.169 HD
HETATM   30  O   UNL     1      -8.259   0.088 -31.530  1.00  0.00    -0.267 OA
BRANCH  28  31
HETATM   31  C   UNL     1      -6.421  -0.693 -33.738  1.00  0.00     0.035 A 
HETATM   32  C   UNL     1      -7.098  -1.679 -34.460  1.00  0.00     0.029 A 
HETATM   33  C   UNL     1      -6.460  -2.876 -34.801  1.00  0.00     0.002 A 
HETATM   34  C   UNL     1      -5.139  -3.099 -34.424  1.00  0.00     0.000 A 
HETATM   35  C   UNL     1      -4.455  -2.127 -33.699  1.00  0.00     0.002 A 
HETATM   36  C   UNL     1      -5.095  -0.933 -33.354  1.00  0.00     0.029 A 
ENDBRANCH  28  31
ENDBRANCH  14  27
TORSDOF 4
ENDMDL
MODEL 7
REMARK VINA RESULT:      -8.8      2.727      6.349
REMARK  4 active torsions:
REMARK  status: ('A' for Active; 'I' for Inactive)
REMARK    1  A    between atoms: C_6  and  C_7 
REMARK    2  A    between atoms: C_10  and  N_11 
REMARK       I    between atoms: N_11  and  C_12 
REMARK    3  A    between atoms: C_24  and  C_25 
REMARK       I    between atoms: C_25  and  N_26 
REMARK    4  A    between atoms: N_26  and  C_27 
ROOT
HETATM    1  C   UNL     1      -6.169  -0.243 -32.072  1.00  0.00     0.070 C 
HETATM    2  C   UNL     1      -5.815   1.218 -31.959  1.00  0.00     0.037 C 
HETATM    3  N   UNL     1      -4.578   1.485 -31.379  1.00  0.00    -0.193 N 
HETATM    4  C   UNL     1      -3.914   2.644 -31.574  1.00  0.00     0.709 A 
HETATM    5  N   UNL     1      -4.581   3.704 -32.133  1.00  0.00    -0.165 N 
HETATM    6  C   UNL     1      -6.022   3.674 -32.424  1.00  0.00     0.182 C 
HETATM    7  N   UNL     1      -2.656   2.924 -31.352  1.00  0.00    -0.062 NA
HETATM    8  C   UNL     1      -2.485   4.198 -31.847  1.00  0.00     0.103 A 
HETATM    9  C   UNL     1      -3.677   4.710 -32.359  1.00  0.00     0.082 A 
HETATM   10  C   UNL     1      -1.322   4.983 -31.900  1.00  0.00     0.034 A 
HETATM   11  C   UNL     1      -1.395   6.257 -32.476  1.00  0.00     0.002 A 
HETATM   12  C   UNL     1      -2.600   6.744 -32.987  1.00  0.00     0.002 A 
HETATM   13  C   UNL     1      -3.772   5.981 -32.937  1.00  0.00     0.032 A 
HETATM   14  C   UNL     1      -6.551   2.245 -32.458  1.00  0.00     0.061 C 
HETATM   15  H   UNL     1      -4.010   0.685 -31.112  1.00  0.00     0.184 HD
ENDROOT
BRANCH   6  16
HETATM   16  C   UNL     1      -6.740   4.565 -31.409  1.00  0.00    -0.030 A 
HETATM   17  C   UNL     1      -6.737   4.225 -30.049  1.00  0.00     0.012 A 
HETATM   18  C   UNL     1      -7.534   4.923 -29.131  1.00  0.00     0.030 A 
HETATM   19  C   UNL     1      -8.338   5.981 -29.549  1.00  0.00     0.034 A 
HETATM   20  C   UNL     1      -8.287   6.374 -30.892  1.00  0.00     0.030 A 
HETATM   21  C   UNL     1      -7.501   5.674 -31.812  1.00  0.00     0.012 A 
BRANCH  19  22
HETATM   22  N   UNL     1      -9.244   6.669 -28.714  1.00  0.00    -0.328 N 
HETATM   23  C   UNL     1      -8.944   7.570 -27.709  1.00  0.00     0.218 C 
HETATM   24  C   UNL     1     -10.174   8.007 -26.952  1.00  0.00     0.117 C 
HETATM   25  O   UNL     1      -7.838   8.015 -27.420  1.00  0.00    -0.274 OA
HETATM   26  H   UNL     1     -10.218   6.419 -28.822  1.00  0.00     0.169 HD
ENDBRANCH  19  22
ENDBRANCH   6  16
BRANCH  14  27
HETATM   27  C   UNL     1      -7.802   2.078 -33.251  1.00  0.00     0.256 C 
HETATM   28  N   UNL     1      -8.956   2.093 -32.500  1.00  0.00    -0.323 N 
HETATM   29  H   UNL     1      -8.868   2.336 -31.524  1.00  0.00     0.169 HD
HETATM   30  O   UNL     1      -7.714   1.967 -34.468  1.00  0.00    -0.267 OA
BRANCH  28  31
HETATM   31  C   UNL     1     -10.245   1.700 -32.924  1.00  0.00     0.035 A 
HETATM   32  C   UNL     1     -10.628   0.373 -33.133  1.00  0.00     0.029 A 
HETATM   33  C   UNL     1     -11.945   0.059 -33.487  1.00  0.00     0.002 A 
HETATM   34  C   UNL     1     -12.891   1.069 -33.635  1.00  0.00     0.000 A 
HETATM   35  C   UNL     1     -12.520   2.396 -33.436  1.00  0.00     0.002 A 
HETATM   36  C   UNL     1     -11.203   2.709 -33.086  1.00  0.00     0.029 A 
ENDBRANCH  28  31
ENDBRANCH  14  27
TORSDOF 4
ENDMDL
MODEL 8
REMARK VINA RESULT:      -8.6      3.393      7.189
REMARK  4 active torsions:
REMARK  status: ('A' for Active; 'I' for Inactive)
REMARK    1  A    between atoms: C_6  and  C_7 
REMARK    2  A    between atoms: C_10  and  N_11 
REMARK       I    between atoms: N_11  and  C_12 
REMARK    3  A    between atoms: C_24  and  C_25 
REMARK       I    between atoms: C_25  and  N_26 
REMARK    4  A    between atoms: N_26  and  C_27 
ROOT
HETATM    1  C   UNL     1     -11.408   4.091 -30.510  1.00  0.00     0.070 C 
HETATM    2  C   UNL     1     -10.217   3.611 -31.301  1.00  0.00     0.037 C 
HETATM    3  N   UNL     1      -9.739   2.352 -30.948  1.00  0.00    -0.193 N 
HETATM    4  C   UNL     1      -8.998   1.592 -31.780  1.00  0.00     0.709 A 
HETATM    5  N   UNL     1      -8.461   2.169 -32.903  1.00  0.00    -0.165 N 
HETATM    6  C   UNL     1      -8.560   3.609 -33.183  1.00  0.00     0.182 C 
HETATM    7  N   UNL     1      -8.732   0.313 -31.717  1.00  0.00    -0.062 NA
HETATM    8  C   UNL     1      -8.047   0.037 -32.880  1.00  0.00     0.103 A 
HETATM    9  C   UNL     1      -7.875   1.183 -33.656  1.00  0.00     0.082 A 
HETATM   10  C   UNL     1      -7.548  -1.189 -33.348  1.00  0.00     0.034 A 
HETATM   11  C   UNL     1      -6.897  -1.223 -34.587  1.00  0.00     0.002 A 
HETATM   12  C   UNL     1      -6.742  -0.061 -35.346  1.00  0.00     0.002 A 
HETATM   13  C   UNL     1      -7.226   1.172 -34.895  1.00  0.00     0.032 A 
HETATM   14  C   UNL     1      -9.665   4.259 -32.359  1.00  0.00     0.061 C 
HETATM   15  H   UNL     1     -10.244   1.853 -30.220  1.00  0.00     0.184 HD
ENDROOT
BRANCH   6  16
HETATM   16  C   UNL     1      -7.185   4.241 -32.964  1.00  0.00    -0.030 A 
HETATM   17  C   UNL     1      -6.352   4.509 -34.059  1.00  0.00     0.012 A 
HETATM   18  C   UNL     1      -5.025   4.919 -33.870  1.00  0.00     0.030 A 
HETATM   19  C   UNL     1      -4.507   5.081 -32.586  1.00  0.00     0.034 A 
HETATM   20  C   UNL     1      -5.356   4.887 -31.491  1.00  0.00     0.030 A 
HETATM   21  C   UNL     1      -6.678   4.470 -31.674  1.00  0.00     0.012 A 
BRANCH  19  22
HETATM   22  N   UNL     1      -3.159   5.389 -32.306  1.00  0.00    -0.328 N 
HETATM   23  C   UNL     1      -2.189   4.540 -31.802  1.00  0.00     0.218 C 
HETATM   24  C   UNL     1      -0.894   5.262 -31.521  1.00  0.00     0.117 C 
HETATM   25  O   UNL     1      -2.294   3.336 -31.595  1.00  0.00    -0.274 OA
HETATM   26  H   UNL     1      -2.895   6.358 -32.425  1.00  0.00     0.169 HD
ENDBRANCH  19  22
ENDBRANCH   6  16
BRANCH  14  27
HETATM   27  C   UNL     1     -10.195   5.525 -32.941  1.00  0.00     0.256 C 
HETATM   28  N   UNL     1     -10.966   5.351 -34.069  1.00  0.00    -0.323 N 
HETATM   29  H   UNL     1     -11.205   4.403 -34.323  1.00  0.00     0.169 HD
HETATM   30  O   UNL     1      -9.933   6.583 -32.382  1.00  0.00    -0.267 OA
BRANCH  28  31
HETATM   31  C   UNL     1     -11.374   6.354 -34.977  1.00  0.00     0.035 A 
HETATM   32  C   UNL     1     -10.491   7.154 -35.707  1.00  0.00     0.029 A 
HETATM   33  C   UNL     1     -10.974   8.080 -36.637  1.00  0.00     0.002 A 
HETATM   34  C   UNL     1     -12.343   8.215 -36.848  1.00  0.00     0.000 A 
HETATM   35  C   UNL     1     -13.233   7.428 -36.123  1.00  0.00     0.002 A 
HETATM   36  C   UNL     1     -12.751   6.505 -35.189  1.00  0.00     0.029 A 
ENDBRANCH  28  31
ENDBRANCH  14  27
TORSDOF 4
ENDMDL
MODEL 9
REMARK VINA RESULT:      -8.6      2.615      3.644
REMARK  4 active torsions:
REMARK  status: ('A' for Active; 'I' for Inactive)
REMARK    1  A    between atoms: C_6  and  C_7 
REMARK    2  A    between atoms: C_10  and  N_11 
REMARK       I    between atoms: N_11  and  C_12 
REMARK    3  A    between atoms: C_24  and  C_25 
REMARK       I    between atoms: C_25  and  N_26 
REMARK    4  A    between atoms: N_26  and  C_27 
ROOT
HETATM    1  C   UNL     1      -8.012  -0.002 -35.129  1.00  0.00     0.070 C 
HETATM    2  C   UNL     1      -8.572   1.138 -34.316  1.00  0.00     0.037 C 
HETATM    3  N   UNL     1      -9.671   1.783 -34.878  1.00  0.00    -0.193 N 
HETATM    4  C   UNL     1     -10.546   2.504 -34.147  1.00  0.00     0.709 A 
HETATM    5  N   UNL     1     -10.213   2.849 -32.862  1.00  0.00    -0.165 N 
HETATM    6  C   UNL     1      -8.892   2.567 -32.280  1.00  0.00     0.182 C 
HETATM    7  N   UNL     1     -11.750   2.910 -34.462  1.00  0.00    -0.062 NA
HETATM    8  C   UNL     1     -12.240   3.486 -33.310  1.00  0.00     0.103 A 
HETATM    9  C   UNL     1     -11.301   3.449 -32.281  1.00  0.00     0.082 A 
HETATM   10  C   UNL     1     -13.499   4.058 -33.070  1.00  0.00     0.034 A 
HETATM   11  C   UNL     1     -13.776   4.567 -31.795  1.00  0.00     0.002 A 
HETATM   12  C   UNL     1     -12.818   4.513 -30.780  1.00  0.00     0.002 A 
HETATM   13  C   UNL     1     -11.555   3.954 -31.001  1.00  0.00     0.032 A 
HETATM   14  C   UNL     1      -8.153   1.497 -33.075  1.00  0.00     0.061 C 
HETATM   15  H   UNL     1     -10.020   1.418 -35.760  1.00  0.00     0.184 HD
ENDROOT
BRANCH   6  16
HETATM   16  C   UNL     1      -8.122   3.883 -32.166  1.00  0.00    -0.030 A 
HETATM   17  C   UNL     1      -7.557   4.468 -33.309  1.00  0.00     0.012 A 
HETATM   18  C   UNL     1      -6.700   5.572 -33.203  1.00  0.00     0.030 A 
HETATM   19  C   UNL     1      -6.400   6.121 -31.957  1.00  0.00     0.034 A 
HETATM   20  C   UNL     1      -7.020   5.589 -30.822  1.00  0.00     0.030 A 
HETATM   21  C   UNL     1      -7.869   4.483 -30.922  1.00  0.00     0.012 A 
BRANCH  19  22
HETATM   22  N   UNL     1      -5.470   7.163 -31.752  1.00  0.00    -0.328 N 
HETATM   23  C   UNL     1      -4.096   7.053 -31.636  1.00  0.00     0.218 C 
HETATM   24  C   UNL     1      -3.447   8.373 -31.300  1.00  0.00     0.117 C 
HETATM   25  O   UNL     1      -3.419   6.042 -31.788  1.00  0.00    -0.274 OA
HETATM   26  H   UNL     1      -5.865   8.082 -31.605  1.00  0.00     0.169 HD
ENDBRANCH  19  22
ENDBRANCH   6  16
BRANCH  14  27
HETATM   27  C   UNL     1      -7.106   0.775 -32.297  1.00  0.00     0.256 C 
HETATM   28  N   UNL     1      -5.855   0.800 -32.871  1.00  0.00    -0.323 N 
HETATM   29  H   UNL     1      -5.729   1.394 -33.679  1.00  0.00     0.169 HD
HETATM   30  O   UNL     1      -7.421   0.253 -31.235  1.00  0.00    -0.267 OA
BRANCH  28  31
HETATM   31  C   UNL     1      -4.746  -0.001 -32.517  1.00  0.00     0.035 A 
HETATM   32  C   UNL     1      -3.701   0.431 -31.696  1.00  0.00     0.029 A 
HETATM   33  C   UNL     1      -2.671  -0.445 -31.335  1.00  0.00     0.002 A 
HETATM   34  C   UNL     1      -2.677  -1.760 -31.790  1.00  0.00     0.000 A 
HETATM   35  C   UNL     1      -3.709  -2.200 -32.614  1.00  0.00     0.002 A 
HETATM   36  C   UNL     1      -4.736  -1.324 -32.978  1.00  0.00     0.029 A 
ENDBRANCH  28  31
ENDBRANCH  14  27
TORSDOF 4
ENDMDL
MODEL 10
REMARK VINA RESULT:      -8.5      2.501      5.741
REMARK  4 active torsions:
REMARK  status: ('A' for Active; 'I' for Inactive)
REMARK    1  A    between atoms: C_6  and  C_7 
REMARK    2  A    between atoms: C_10  and  N_11 
REMARK       I    between atoms: N_11  and  C_12 
REMARK    3  A    between atoms: C_24  and  C_25 
REMARK       I    between atoms: C_25  and  N_26 
REMARK    4  A    between atoms: N_26  and  C_27 
ROOT
HETATM    1  C   UNL     1      -5.442   0.792 -29.253  1.00  0.00     0.070 C 
HETATM    2  C   UNL     1      -5.439   1.755 -30.413  1.00  0.00     0.037 C 
HETATM    3  N   UNL     1      -4.936   3.023 -30.131  1.00  0.00    -0.193 N 
HETATM    4  C   UNL     1      -4.462   3.850 -31.085  1.00  0.00     0.709 A 
HETATM    5  N   UNL     1      -4.725   3.564 -32.401  1.00  0.00    -0.165 N 
HETATM    6  C   UNL     1      -5.600   2.457 -32.815  1.00  0.00     0.182 C 
HETATM    7  N   UNL     1      -3.709   4.912 -30.960  1.00  0.00    -0.062 NA
HETATM    8  C   UNL     1      -3.420   5.294 -32.252  1.00  0.00     0.103 A 
HETATM    9  C   UNL     1      -4.033   4.454 -33.182  1.00  0.00     0.082 A 
HETATM   10  C   UNL     1      -2.622   6.355 -32.708  1.00  0.00     0.034 A 
HETATM   11  C   UNL     1      -2.459   6.531 -34.087  1.00  0.00     0.002 A 
HETATM   12  C   UNL     1      -3.080   5.673 -34.997  1.00  0.00     0.002 A 
HETATM   13  C   UNL     1      -3.886   4.614 -34.564  1.00  0.00     0.032 A 
HETATM   14  C   UNL     1      -5.788   1.447 -31.689  1.00  0.00     0.061 C 
HETATM   15  H   UNL     1      -4.588   3.182 -29.189  1.00  0.00     0.184 HD
ENDROOT
BRANCH   6  16
HETATM   16  C   UNL     1      -6.913   3.045 -33.331  1.00  0.00    -0.030 A 
HETATM   17  C   UNL     1      -7.273   4.360 -33.003  1.00  0.00     0.012 A 
HETATM   18  C   UNL     1      -8.547   4.857 -33.312  1.00  0.00     0.030 A 
HETATM   19  C   UNL     1      -9.481   4.056 -33.967  1.00  0.00     0.034 A 
HETATM   20  C   UNL     1      -9.102   2.769 -34.365  1.00  0.00     0.030 A 
HETATM   21  C   UNL     1      -7.836   2.267 -34.050  1.00  0.00     0.012 A 
BRANCH  19  22
HETATM   22  N   UNL     1     -10.814   4.440 -34.224  1.00  0.00    -0.328 N 
HETATM   23  C   UNL     1     -11.924   4.208 -33.431  1.00  0.00     0.218 C 
HETATM   24  C   UNL     1     -13.201   4.663 -34.095  1.00  0.00     0.117 C 
HETATM   25  O   UNL     1     -11.942   3.711 -32.311  1.00  0.00    -0.274 OA
HETATM   26  H   UNL     1     -10.982   4.874 -35.122  1.00  0.00     0.169 HD
ENDBRANCH  19  22
ENDBRANCH   6  16
BRANCH  14  27
HETATM   27  C   UNL     1      -6.174   0.084 -32.151  1.00  0.00     0.256 C 
HETATM   28  N   UNL     1      -5.181  -0.586 -32.832  1.00  0.00    -0.323 N 
HETATM   29  H   UNL     1      -4.265  -0.161 -32.848  1.00  0.00     0.169 HD
HETATM   30  O   UNL     1      -7.294  -0.332 -31.882  1.00  0.00    -0.267 OA
BRANCH  28  31
HETATM   31  C   UNL     1      -5.330  -1.759 -33.606  1.00  0.00     0.035 A 
HETATM   32  C   UNL     1      -4.352  -2.750 -33.718  1.00  0.00     0.029 A 
HETATM   33  C   UNL     1      -4.601  -3.915 -34.451  1.00  0.00     0.002 A 
HETATM   34  C   UNL     1      -5.830  -4.102 -35.076  1.00  0.00     0.000 A 
HETATM   35  C   UNL     1      -6.811  -3.119 -34.977  1.00  0.00     0.002 A 
HETATM   36  C   UNL     1      -6.560  -1.952 -34.249  1.00  0.00     0.029 A 
ENDBRANCH  28  31
ENDBRANCH  14  27
TORSDOF 4
ENDMDL
