MODEL 1
REMARK VINA RESULT:      -8.6      0.000      0.000
REMARK  6 active torsions:
REMARK  status: ('A' for Active; 'I' for Inactive)
REMARK    1  A    between atoms: C_2  and  N_3 
REMARK    2  A    between atoms: C_2  and  C_12 
REMARK       I    between atoms: N_3  and  C_4 
REMARK    3  A    between atoms: C_4  and  C_5 
REMARK    4  A    between atoms: C_12  and  C_13 
REMARK       I    between atoms: C_13  and  N_14 
REMARK    5  A    between atoms: N_14  and  C_15 
REMARK    6  A    between atoms: C_17  and  C_18 
ROOT
HETATM    1  C   UNL     1      -5.610   2.229 -32.184  1.00  0.00     0.224 C 
HETATM    2  N   UNL     1      -5.576   3.519 -32.669  1.00  0.00    -0.327 N 
HETATM    3  O   UNL     1      -4.659   1.462 -32.065  1.00  0.00    -0.273 OA
HETATM    4  H   UNL     1      -6.461   4.031 -32.622  1.00  0.00     0.169 HD
ENDROOT
BRANCH   1   5
HETATM    5  C   UNL     1      -7.004   1.804 -31.747  1.00  0.00     0.128 C 
BRANCH   5   6
HETATM    6  C   UNL     1      -7.599   0.812 -32.760  1.00  0.00     0.089 C 
HETATM    7  C   UNL     1      -8.967   0.328 -32.269  1.00  0.00     0.032 C 
BRANCH   6   8
HETATM    8  N   UNL     1      -6.756  -0.361 -33.034  1.00  0.00    -0.352 N 
HETATM    9  C   UNL     1      -6.591  -0.904 -34.292  1.00  0.00     0.252 C 
HETATM   10  O   UNL     1      -6.828  -0.302 -35.333  1.00  0.00    -0.268 OA
HETATM   11  H   UNL     1      -6.515  -0.941 -32.241  1.00  0.00     0.163 HD
BRANCH   9  12
HETATM   12  C   UNL     1      -6.088  -2.301 -34.356  1.00  0.00     0.032 A 
HETATM   13  C   UNL     1      -6.903  -3.356 -34.789  1.00  0.00     0.017 A 
HETATM   14  C   UNL     1      -6.374  -4.644 -34.895  1.00  0.00     0.001 A 
HETATM   15  C   UNL     1      -5.036  -4.880 -34.577  1.00  0.00     0.000 A 
HETATM   16  C   UNL     1      -4.220  -3.829 -34.158  1.00  0.00     0.001 A 
HETATM   17  C   UNL     1      -4.743  -2.540 -34.054  1.00  0.00     0.017 A 
ENDBRANCH   9  12
ENDBRANCH   6   8
ENDBRANCH   5   6
ENDBRANCH   1   5
BRANCH   2  18
HETATM   18  C   UNL     1      -4.479   4.255 -33.154  1.00  0.00     0.035 A 
HETATM   19  C   UNL     1      -3.368   4.614 -32.387  1.00  0.00     0.042 A 
HETATM   20  C   UNL     1      -2.316   5.361 -32.947  1.00  0.00    -0.021 A 
HETATM   21  C   UNL     1      -2.392   5.731 -34.297  1.00  0.00     0.012 A 
HETATM   22  C   UNL     1      -3.496   5.376 -35.069  1.00  0.00     0.003 A 
HETATM   23  C   UNL     1      -4.536   4.648 -34.496  1.00  0.00     0.029 A 
BRANCH  20  24
HETATM   24  C   UNL     1      -1.166   5.767 -32.151  1.00  0.00     0.010 A 
HETATM   25  C   UNL     1      -0.426   6.975 -32.143  1.00  0.00     0.152 A 
HETATM   26  N   UNL     1       0.580   6.965 -31.264  1.00  0.00    -0.187 NA
HETATM   27  N   UNL     1       0.486   5.750 -30.700  1.00  0.00    -0.289 N 
HETATM   28  H   UNL     1       1.157   5.501 -29.981  1.00  0.00     0.188 HD
HETATM   29  C   UNL     1      -0.536   4.996 -31.197  1.00  0.00     0.123 A 
ENDBRANCH  20  24
ENDBRANCH   2  18
TORSDOF 6
ENDMDL
MODEL 2
REMARK VINA RESULT:      -8.6      4.120      7.721
REMARK  6 active torsions:
REMARK  status: ('A' for Active; 'I' for Inactive)
REMARK    1  A    between atoms: C_2  and  N_3 
REMARK    2  A    between atoms: C_2  and  C_12 
REMARK       I    between atoms: N_3  and  C_4 
REMARK    3  A    between atoms: C_4  and  C_5 
REMARK    4  A    between atoms: C_12  and  C_13 
REMARK       I    between atoms: C_13  and  N_14 
REMARK    5  A    between atoms: N_14  and  C_15 
REMARK    6  A    between atoms: C_17  and  C_18 
ROOT
HETATM    1  C   UNL     1      -6.793   2.078 -31.755  1.00  0.00     0.224 C 
HETATM    2  N   UNL     1      -6.139   1.592 -32.867  1.00  0.00    -0.327 N 
HETATM    3  O   UNL     1      -6.835   1.563 -30.642  1.00  0.00    -0.273 OA
HETATM    4  H   UNL     1      -6.156   2.202 -33.690  1.00  0.00     0.169 HD
ENDROOT
BRANCH   1   5
HETATM    5  C   UNL     1      -7.482   3.409 -32.016  1.00  0.00     0.128 C 
BRANCH   5   6
HETATM    6  C   UNL     1      -8.255   3.355 -33.346  1.00  0.00     0.089 C 
HETATM    7  C   UNL     1      -8.411   4.770 -33.912  1.00  0.00     0.032 C 
BRANCH   6   8
HETATM    8  N   UNL     1      -9.586   2.737 -33.254  1.00  0.00    -0.352 N 
HETATM    9  C   UNL     1      -9.888   1.497 -33.780  1.00  0.00     0.252 C 
HETATM   10  O   UNL     1      -9.046   0.650 -34.062  1.00  0.00    -0.268 OA
HETATM   11  H   UNL     1     -10.359   3.354 -33.043  1.00  0.00     0.163 HD
BRANCH   9  12
HETATM   12  C   UNL     1     -11.326   1.197 -34.000  1.00  0.00     0.032 A 
HETATM   13  C   UNL     1     -11.934   0.065 -33.443  1.00  0.00     0.017 A 
HETATM   14  C   UNL     1     -13.304  -0.148 -33.620  1.00  0.00     0.001 A 
HETATM   15  C   UNL     1     -14.065   0.767 -34.346  1.00  0.00     0.000 A 
HETATM   16  C   UNL     1     -13.464   1.902 -34.892  1.00  0.00     0.001 A 
HETATM   17  C   UNL     1     -12.098   2.121 -34.714  1.00  0.00     0.017 A 
ENDBRANCH   9  12
ENDBRANCH   6   8
ENDBRANCH   5   6
ENDBRANCH   1   5
BRANCH   2  18
HETATM   18  C   UNL     1      -5.392   0.409 -33.010  1.00  0.00     0.035 A 
HETATM   19  C   UNL     1      -5.871  -0.759 -33.612  1.00  0.00     0.042 A 
HETATM   20  C   UNL     1      -5.061  -1.905 -33.707  1.00  0.00    -0.021 A 
HETATM   21  C   UNL     1      -3.755  -1.855 -33.199  1.00  0.00     0.012 A 
HETATM   22  C   UNL     1      -3.270  -0.695 -32.598  1.00  0.00     0.003 A 
HETATM   23  C   UNL     1      -4.089   0.427 -32.500  1.00  0.00     0.029 A 
BRANCH  20  24
HETATM   24  C   UNL     1      -5.556  -3.136 -34.305  1.00  0.00     0.010 A 
HETATM   25  C   UNL     1      -4.918  -4.383 -34.520  1.00  0.00     0.152 A 
HETATM   26  N   UNL     1      -5.712  -5.280 -35.113  1.00  0.00    -0.187 NA
HETATM   27  N   UNL     1      -6.866  -4.613 -35.275  1.00  0.00    -0.289 N 
HETATM   28  H   UNL     1      -7.642  -5.096 -35.712  1.00  0.00     0.188 HD
HETATM   29  C   UNL     1      -6.823  -3.331 -34.813  1.00  0.00     0.123 A 
ENDBRANCH  20  24
ENDBRANCH   2  18
TORSDOF 6
ENDMDL
MODEL 3
REMARK VINA RESULT:      -8.6      1.486      2.204
REMARK  6 active torsions:
REMARK  status: ('A' for Active; 'I' for Inactive)
REMARK    1  A    between atoms: C_2  and  N_3 
REMARK    2  A    between atoms: C_2  and  C_12 
REMARK       I    between atoms: N_3  and  C_4 
REMARK    3  A    between atoms: C_4  and  C_5 
REMARK    4  A    between atoms: C_12  and  C_13 
REMARK       I    between atoms: C_13  and  N_14 
REMARK    5  A    between atoms: N_14  and  C_15 
REMARK    6  A    between atoms: C_17  and  C_18 
ROOT
HETATM    1  C   UNL     1      -7.662   2.264 -32.646  1.00  0.00     0.224 C 
HETATM    2  N   UNL     1      -6.594   2.798 -33.335  1.00  0.00    -0.327 N 
HETATM    3  O   UNL     1      -7.678   1.919 -31.468  1.00  0.00    -0.273 OA
HETATM    4  H   UNL     1      -6.794   3.095 -34.295  1.00  0.00     0.169 HD
ENDROOT
BRANCH   1   5
HETATM    5  C   UNL     1      -8.915   2.154 -33.501  1.00  0.00     0.128 C 
BRANCH   5   6
HETATM    6  C   UNL     1      -9.207   0.679 -33.828  1.00  0.00     0.089 C 
HETATM    7  C   UNL     1     -10.379   0.181 -32.977  1.00  0.00     0.032 C 
BRANCH   6   8
HETATM    8  N   UNL     1      -8.066  -0.227 -33.633  1.00  0.00    -0.352 N 
HETATM    9  C   UNL     1      -7.114  -0.473 -34.602  1.00  0.00     0.252 C 
HETATM   10  O   UNL     1      -6.912   0.260 -35.564  1.00  0.00    -0.268 OA
HETATM   11  H   UNL     1      -8.138  -0.889 -32.872  1.00  0.00     0.163 HD
BRANCH   9  12
HETATM   12  C   UNL     1      -6.296  -1.703 -34.437  1.00  0.00     0.032 A 
HETATM   13  C   UNL     1      -6.739  -2.948 -34.903  1.00  0.00     0.017 A 
HETATM   14  C   UNL     1      -5.913  -4.068 -34.786  1.00  0.00     0.001 A 
HETATM   15  C   UNL     1      -4.647  -3.947 -34.212  1.00  0.00     0.000 A 
HETATM   16  C   UNL     1      -4.198  -2.706 -33.759  1.00  0.00     0.001 A 
HETATM   17  C   UNL     1      -5.019  -1.584 -33.878  1.00  0.00     0.017 A 
ENDBRANCH   9  12
ENDBRANCH   6   8
ENDBRANCH   5   6
ENDBRANCH   1   5
BRANCH   2  18
HETATM   18  C   UNL     1      -5.287   3.058 -32.885  1.00  0.00     0.035 A 
HETATM   19  C   UNL     1      -4.563   4.214 -33.188  1.00  0.00     0.042 A 
HETATM   20  C   UNL     1      -3.255   4.393 -32.704  1.00  0.00    -0.021 A 
HETATM   21  C   UNL     1      -2.689   3.396 -31.896  1.00  0.00     0.012 A 
HETATM   22  C   UNL     1      -3.405   2.241 -31.588  1.00  0.00     0.003 A 
HETATM   23  C   UNL     1      -4.695   2.073 -32.086  1.00  0.00     0.029 A 
BRANCH  20  24
HETATM   24  C   UNL     1      -2.477   5.578 -33.037  1.00  0.00     0.010 A 
HETATM   25  C   UNL     1      -2.539   6.439 -34.161  1.00  0.00     0.152 A 
HETATM   26  N   UNL     1      -1.642   7.429 -34.108  1.00  0.00    -0.187 NA
HETATM   27  N   UNL     1      -1.005   7.209 -32.947  1.00  0.00    -0.289 N 
HETATM   28  H   UNL     1      -0.264   7.847 -32.678  1.00  0.00     0.188 HD
HETATM   29  C   UNL     1      -1.463   6.116 -32.273  1.00  0.00     0.123 A 
ENDBRANCH  20  24
ENDBRANCH   2  18
TORSDOF 6
ENDMDL
MODEL 4
REMARK VINA RESULT:      -8.5      2.274      8.464
REMARK  6 active torsions:
REMARK  status: ('A' for Active; 'I' for Inactive)
REMARK    1  A    between atoms: C_2  and  N_3 
REMARK    2  A    between atoms: C_2  and  C_12 
REMARK       I    between atoms: N_3  and  C_4 
REMARK    3  A    between atoms: C_4  and  C_5 
REMARK    4  A    between atoms: C_12  and  C_13 
REMARK       I    between atoms: C_13  and  N_14 
REMARK    5  A    between atoms: N_14  and  C_15 
REMARK    6  A    between atoms: C_17  and  C_18 
ROOT
HETATM    1  C   UNL     1      -5.319   1.534 -31.110  1.00  0.00     0.224 C 
HETATM    2  N   UNL     1      -6.483   1.129 -31.726  1.00  0.00    -0.327 N 
HETATM    3  O   UNL     1      -4.172   1.335 -31.500  1.00  0.00    -0.273 OA
HETATM    4  H   UNL     1      -7.350   1.455 -31.287  1.00  0.00     0.169 HD
ENDROOT
BRANCH   1   5
HETATM    5  C   UNL     1      -5.574   2.329 -29.838  1.00  0.00     0.128 C 
BRANCH   5   6
HETATM    6  C   UNL     1      -5.320   3.826 -30.087  1.00  0.00     0.089 C 
HETATM    7  C   UNL     1      -6.577   4.474 -30.678  1.00  0.00     0.032 C 
BRANCH   6   8
HETATM    8  N   UNL     1      -4.183   4.113 -30.974  1.00  0.00    -0.352 N 
HETATM    9  C   UNL     1      -3.553   5.340 -31.032  1.00  0.00     0.252 C 
HETATM   10  O   UNL     1      -3.628   6.190 -30.151  1.00  0.00    -0.268 OA
HETATM   11  H   UNL     1      -4.041   3.479 -31.749  1.00  0.00     0.163 HD
BRANCH   9  12
HETATM   12  C   UNL     1      -2.738   5.616 -32.244  1.00  0.00     0.032 A 
HETATM   13  C   UNL     1      -1.912   6.743 -32.332  1.00  0.00     0.017 A 
HETATM   14  C   UNL     1      -1.113   6.933 -33.463  1.00  0.00     0.001 A 
HETATM   15  C   UNL     1      -1.134   6.000 -34.499  1.00  0.00     0.000 A 
HETATM   16  C   UNL     1      -1.948   4.870 -34.408  1.00  0.00     0.001 A 
HETATM   17  C   UNL     1      -2.744   4.674 -33.279  1.00  0.00     0.017 A 
ENDBRANCH   9  12
ENDBRANCH   6   8
ENDBRANCH   5   6
ENDBRANCH   1   5
BRANCH   2  18
HETATM   18  C   UNL     1      -6.649   0.390 -32.911  1.00  0.00     0.035 A 
HETATM   19  C   UNL     1      -6.238  -0.934 -33.080  1.00  0.00     0.042 A 
HETATM   20  C   UNL     1      -6.434  -1.600 -34.303  1.00  0.00    -0.021 A 
HETATM   21  C   UNL     1      -7.063  -0.917 -35.353  1.00  0.00     0.012 A 
HETATM   22  C   UNL     1      -7.477   0.404 -35.193  1.00  0.00     0.003 A 
HETATM   23  C   UNL     1      -7.264   1.054 -33.979  1.00  0.00     0.029 A 
BRANCH  20  24
HETATM   24  C   UNL     1      -5.983  -2.970 -34.502  1.00  0.00     0.010 A 
HETATM   25  C   UNL     1      -6.663  -4.104 -35.011  1.00  0.00     0.152 A 
HETATM   26  N   UNL     1      -5.903  -5.203 -35.031  1.00  0.00    -0.187 NA
HETATM   27  N   UNL     1      -4.728  -4.776 -34.539  1.00  0.00    -0.289 N 
HETATM   28  H   UNL     1      -3.971  -5.445 -34.457  1.00  0.00     0.188 HD
HETATM   29  C   UNL     1      -4.726  -3.454 -34.206  1.00  0.00     0.123 A 
ENDBRANCH  20  24
ENDBRANCH   2  18
TORSDOF 6
ENDMDL
MODEL 5
REMARK VINA RESULT:      -8.4      1.671      2.227
REMARK  6 active torsions:
REMARK  status: ('A' for Active; 'I' for Inactive)
REMARK    1  A    between atoms: C_2  and  N_3 
REMARK    2  A    between atoms: C_2  and  C_12 
REMARK       I    between atoms: N_3  and  C_4 
REMARK    3  A    between atoms: C_4  and  C_5 
REMARK    4  A    between atoms: C_12  and  C_13 
REMARK       I    between atoms: C_13  and  N_14 
REMARK    5  A    between atoms: N_14  and  C_15 
REMARK    6  A    between atoms: C_17  and  C_18 
ROOT
HETATM    1  C   UNL     1      -5.291   3.291 -32.081  1.00  0.00     0.224 C 
HETATM    2  N   UNL     1      -3.972   3.068 -32.413  1.00  0.00    -0.327 N 
HETATM    3  O   UNL     1      -5.802   4.366 -31.781  1.00  0.00    -0.273 OA
HETATM    4  H   UNL     1      -3.747   2.113 -32.707  1.00  0.00     0.169 HD
ENDROOT
BRANCH   1   5
HETATM    5  C   UNL     1      -6.133   2.026 -32.147  1.00  0.00     0.128 C 
BRANCH   5   6
HETATM    6  C   UNL     1      -6.037   1.397 -33.548  1.00  0.00     0.089 C 
HETATM    7  C   UNL     1      -7.169   1.928 -34.433  1.00  0.00     0.032 C 
BRANCH   6   8
HETATM    8  N   UNL     1      -6.079  -0.072 -33.561  1.00  0.00    -0.352 N 
HETATM    9  C   UNL     1      -4.953  -0.867 -33.631  1.00  0.00     0.252 C 
HETATM   10  O   UNL     1      -3.824  -0.479 -33.349  1.00  0.00    -0.268 OA
HETATM   11  H   UNL     1      -6.965  -0.498 -33.801  1.00  0.00     0.163 HD
BRANCH   9  12
HETATM   12  C   UNL     1      -5.153  -2.273 -34.070  1.00  0.00     0.032 A 
HETATM   13  C   UNL     1      -4.162  -3.246 -33.890  1.00  0.00     0.017 A 
HETATM   14  C   UNL     1      -4.413  -4.570 -34.259  1.00  0.00     0.001 A 
HETATM   15  C   UNL     1      -5.649  -4.923 -34.800  1.00  0.00     0.000 A 
HETATM   16  C   UNL     1      -6.642  -3.958 -34.969  1.00  0.00     0.001 A 
HETATM   17  C   UNL     1      -6.397  -2.635 -34.598  1.00  0.00     0.017 A 
ENDBRANCH   9  12
ENDBRANCH   6   8
ENDBRANCH   5   6
ENDBRANCH   1   5
BRANCH   2  18
HETATM   18  C   UNL     1      -2.905   3.984 -32.472  1.00  0.00     0.035 A 
HETATM   19  C   UNL     1      -2.230   4.482 -31.355  1.00  0.00     0.042 A 
HETATM   20  C   UNL     1      -1.177   5.404 -31.501  1.00  0.00    -0.021 A 
HETATM   21  C   UNL     1      -0.803   5.807 -32.791  1.00  0.00     0.012 A 
HETATM   22  C   UNL     1      -1.471   5.314 -33.909  1.00  0.00     0.003 A 
HETATM   23  C   UNL     1      -2.520   4.412 -33.748  1.00  0.00     0.029 A 
BRANCH  20  24
HETATM   24  C   UNL     1      -0.485   5.954 -30.344  1.00  0.00     0.010 A 
HETATM   25  C   UNL     1       0.392   5.344 -29.413  1.00  0.00     0.152 A 
HETATM   26  N   UNL     1       0.824   6.189 -28.472  1.00  0.00    -0.187 NA
HETATM   27  N   UNL     1       0.227   7.347 -28.798  1.00  0.00    -0.289 N 
HETATM   28  H   UNL     1       0.406   8.160 -28.218  1.00  0.00     0.188 HD
HETATM   29  C   UNL     1      -0.566   7.259 -29.904  1.00  0.00     0.123 A 
ENDBRANCH  20  24
ENDBRANCH   2  18
TORSDOF 6
ENDMDL
MODEL 6
REMARK VINA RESULT:      -8.2      1.944      2.719
REMARK  6 active torsions:
REMARK  status: ('A' for Active; 'I' for Inactive)
REMARK    1  A    between atoms: C_2  and  N_3 
REMARK    2  A    between atoms: C_2  and  C_12 
REMARK       I    between atoms: N_3  and  C_4 
REMARK    3  A    between atoms: C_4  and  C_5 
REMARK    4  A    between atoms: C_12  and  C_13 
REMARK       I    between atoms: C_13  and  N_14 
REMARK    5  A    between atoms: N_14  and  C_15 
REMARK    6  A    between atoms: C_17  and  C_18 
ROOT
HETATM    1  C   UNL     1      -6.583   2.154 -31.274  1.00  0.00     0.224 C 
HETATM    2  N   UNL     1      -6.830   3.461 -30.912  1.00  0.00    -0.327 N 
HETATM    3  O   UNL     1      -5.491   1.655 -31.529  1.00  0.00    -0.273 OA
HETATM    4  H   UNL     1      -7.801   3.674 -30.664  1.00  0.00     0.169 HD
ENDROOT
BRANCH   1   5
HETATM    5  C   UNL     1      -7.846   1.307 -31.305  1.00  0.00     0.128 C 
BRANCH   5   6
HETATM    6  C   UNL     1      -8.013   0.654 -32.688  1.00  0.00     0.089 C 
HETATM    7  C   UNL     1      -9.449   0.144 -32.851  1.00  0.00     0.032 C 
BRANCH   6   8
HETATM    8  N   UNL     1      -7.088  -0.457 -32.954  1.00  0.00    -0.352 N 
HETATM    9  C   UNL     1      -6.635  -0.786 -34.216  1.00  0.00     0.252 C 
HETATM   10  O   UNL     1      -6.664  -0.022 -35.174  1.00  0.00    -0.268 OA
HETATM   11  H   UNL     1      -7.002  -1.159 -32.231  1.00  0.00     0.163 HD
BRANCH   9  12
HETATM   12  C   UNL     1      -6.078  -2.153 -34.391  1.00  0.00     0.032 A 
HETATM   13  C   UNL     1      -4.711  -2.415 -34.236  1.00  0.00     0.017 A 
HETATM   14  C   UNL     1      -4.237  -3.725 -34.346  1.00  0.00     0.001 A 
HETATM   15  C   UNL     1      -5.123  -4.770 -34.603  1.00  0.00     0.000 A 
HETATM   16  C   UNL     1      -6.487  -4.514 -34.746  1.00  0.00     0.001 A 
HETATM   17  C   UNL     1      -6.966  -3.208 -34.633  1.00  0.00     0.017 A 
ENDBRANCH   9  12
ENDBRANCH   6   8
ENDBRANCH   5   6
ENDBRANCH   1   5
BRANCH   2  18
HETATM   18  C   UNL     1      -5.924   4.528 -30.767  1.00  0.00     0.035 A 
HETATM   19  C   UNL     1      -5.068   4.979 -31.775  1.00  0.00     0.042 A 
HETATM   20  C   UNL     1      -4.183   6.048 -31.545  1.00  0.00    -0.021 A 
HETATM   21  C   UNL     1      -4.182   6.668 -30.287  1.00  0.00     0.012 A 
HETATM   22  C   UNL     1      -5.033   6.224 -29.277  1.00  0.00     0.003 A 
HETATM   23  C   UNL     1      -5.894   5.156 -29.516  1.00  0.00     0.029 A 
BRANCH  20  24
HETATM   24  C   UNL     1      -3.265   6.508 -32.577  1.00  0.00     0.010 A 
HETATM   25  C   UNL     1      -2.263   7.510 -32.545  1.00  0.00     0.152 A 
HETATM   26  N   UNL     1      -1.625   7.647 -33.711  1.00  0.00    -0.187 NA
HETATM   27  N   UNL     1      -2.214   6.731 -34.496  1.00  0.00    -0.289 N 
HETATM   28  H   UNL     1      -1.892   6.640 -35.453  1.00  0.00     0.188 HD
HETATM   29  C   UNL     1      -3.200   6.028 -33.868  1.00  0.00     0.123 A 
ENDBRANCH  20  24
ENDBRANCH   2  18
TORSDOF 6
ENDMDL
MODEL 7
REMARK VINA RESULT:      -8.2      3.933      7.614
REMARK  6 active torsions:
REMARK  status: ('A' for Active; 'I' for Inactive)
REMARK    1  A    between atoms: C_2  and  N_3 
REMARK    2  A    between atoms: C_2  and  C_12 
REMARK       I    between atoms: N_3  and  C_4 
REMARK    3  A    between atoms: C_4  and  C_5 
REMARK    4  A    between atoms: C_12  and  C_13 
REMARK       I    between atoms: C_13  and  N_14 
REMARK    5  A    between atoms: N_14  and  C_15 
REMARK    6  A    between atoms: C_17  and  C_18 
ROOT
HETATM    1  C   UNL     1      -6.636   2.866 -33.433  1.00  0.00     0.224 C 
HETATM    2  N   UNL     1      -7.854   2.314 -33.098  1.00  0.00    -0.327 N 
HETATM    3  O   UNL     1      -6.433   3.755 -34.254  1.00  0.00    -0.273 OA
HETATM    4  H   UNL     1      -7.834   1.632 -32.334  1.00  0.00     0.169 HD
ENDROOT
BRANCH   1   5
HETATM    5  C   UNL     1      -5.486   2.274 -32.634  1.00  0.00     0.128 C 
BRANCH   5   6
HETATM    6  C   UNL     1      -5.886   0.904 -32.061  1.00  0.00     0.089 C 
HETATM    7  C   UNL     1      -5.314   0.745 -30.648  1.00  0.00     0.032 C 
BRANCH   6   8
HETATM    8  N   UNL     1      -5.460  -0.246 -32.872  1.00  0.00    -0.352 N 
HETATM    9  C   UNL     1      -6.303  -0.933 -33.721  1.00  0.00     0.252 C 
HETATM   10  O   UNL     1      -7.359  -0.481 -34.150  1.00  0.00    -0.268 OA
HETATM   11  H   UNL     1      -4.604  -0.706 -32.591  1.00  0.00     0.163 HD
BRANCH   9  12
HETATM   12  C   UNL     1      -5.875  -2.297 -34.128  1.00  0.00     0.032 A 
HETATM   13  C   UNL     1      -4.577  -2.764 -33.882  1.00  0.00     0.017 A 
HETATM   14  C   UNL     1      -4.233  -4.074 -34.222  1.00  0.00     0.001 A 
HETATM   15  C   UNL     1      -5.180  -4.919 -34.800  1.00  0.00     0.000 A 
HETATM   16  C   UNL     1      -6.477  -4.460 -35.035  1.00  0.00     0.001 A 
HETATM   17  C   UNL     1      -6.826  -3.153 -34.693  1.00  0.00     0.017 A 
ENDBRANCH   9  12
ENDBRANCH   6   8
ENDBRANCH   5   6
ENDBRANCH   1   5
BRANCH   2  18
HETATM   18  C   UNL     1      -9.132   2.606 -33.610  1.00  0.00     0.035 A 
HETATM   19  C   UNL     1     -10.238   1.759 -33.503  1.00  0.00     0.042 A 
HETATM   20  C   UNL     1     -11.481   2.123 -34.051  1.00  0.00    -0.021 A 
HETATM   21  C   UNL     1     -11.599   3.362 -34.699  1.00  0.00     0.012 A 
HETATM   22  C   UNL     1     -10.501   4.212 -34.808  1.00  0.00     0.003 A 
HETATM   23  C   UNL     1      -9.274   3.831 -34.272  1.00  0.00     0.029 A 
BRANCH  20  24
HETATM   24  C   UNL     1     -12.634   1.237 -33.973  1.00  0.00     0.010 A 
HETATM   25  C   UNL     1     -13.987   1.444 -34.338  1.00  0.00     0.152 A 
HETATM   26  N   UNL     1     -14.759   0.379 -34.104  1.00  0.00    -0.187 NA
HETATM   27  N   UNL     1     -13.902  -0.519 -33.593  1.00  0.00    -0.289 N 
HETATM   28  H   UNL     1     -14.260  -1.431 -33.333  1.00  0.00     0.188 HD
HETATM   29  C   UNL     1     -12.624  -0.055 -33.491  1.00  0.00     0.123 A 
ENDBRANCH  20  24
ENDBRANCH   2  18
TORSDOF 6
ENDMDL
MODEL 8
REMARK VINA RESULT:      -8.1      2.465      9.043
REMARK  6 active torsions:
REMARK  status: ('A' for Active; 'I' for Inactive)
REMARK    1  A    between atoms: C_2  and  N_3 
REMARK    2  A    between atoms: C_2  and  C_12 
REMARK       I    between atoms: N_3  and  C_4 
REMARK    3  A    between atoms: C_4  and  C_5 
REMARK    4  A    between atoms: C_12  and  C_13 
REMARK       I    between atoms: C_13  and  N_14 
REMARK    5  A    between atoms: N_14  and  C_15 
REMARK    6  A    between atoms: C_17  and  C_18 
ROOT
HETATM    1  C   UNL     1      -6.034   2.304 -31.748  1.00  0.00     0.224 C 
HETATM    2  N   UNL     1      -5.783   1.947 -33.055  1.00  0.00    -0.327 N 
HETATM    3  O   UNL     1      -6.683   1.669 -30.923  1.00  0.00    -0.273 OA
HETATM    4  H   UNL     1      -5.156   2.572 -33.570  1.00  0.00     0.169 HD
ENDROOT
BRANCH   1   5
HETATM    5  C   UNL     1      -5.374   3.620 -31.364  1.00  0.00     0.128 C 
BRANCH   5   6
HETATM    6  C   UNL     1      -3.863   3.560 -31.645  1.00  0.00     0.089 C 
HETATM    7  C   UNL     1      -3.307   2.204 -31.198  1.00  0.00     0.032 C 
BRANCH   6   8
HETATM    8  N   UNL     1      -3.079   4.624 -31.003  1.00  0.00    -0.352 N 
HETATM    9  C   UNL     1      -1.825   5.011 -31.431  1.00  0.00     0.252 C 
HETATM   10  O   UNL     1      -1.381   4.775 -32.549  1.00  0.00    -0.268 OA
HETATM   11  H   UNL     1      -3.352   4.885 -30.065  1.00  0.00     0.163 HD
BRANCH   9  12
HETATM   12  C   UNL     1      -0.989   5.762 -30.458  1.00  0.00     0.032 A 
HETATM   13  C   UNL     1       0.092   5.162 -29.801  1.00  0.00     0.017 A 
HETATM   14  C   UNL     1       0.892   5.920 -28.942  1.00  0.00     0.001 A 
HETATM   15  C   UNL     1       0.618   7.273 -28.743  1.00  0.00     0.000 A 
HETATM   16  C   UNL     1      -0.451   7.876 -29.406  1.00  0.00     0.001 A 
HETATM   17  C   UNL     1      -1.250   7.124 -30.268  1.00  0.00     0.017 A 
ENDBRANCH   9  12
ENDBRANCH   6   8
ENDBRANCH   5   6
ENDBRANCH   1   5
BRANCH   2  18
HETATM   18  C   UNL     1      -6.211   0.808 -33.761  1.00  0.00     0.035 A 
HETATM   19  C   UNL     1      -5.601  -0.447 -33.680  1.00  0.00     0.042 A 
HETATM   20  C   UNL     1      -6.088  -1.535 -34.427  1.00  0.00    -0.021 A 
HETATM   21  C   UNL     1      -7.207  -1.345 -35.250  1.00  0.00     0.012 A 
HETATM   22  C   UNL     1      -7.821  -0.097 -35.336  1.00  0.00     0.003 A 
HETATM   23  C   UNL     1      -7.320   0.973 -34.599  1.00  0.00     0.029 A 
BRANCH  20  24
HETATM   24  C   UNL     1      -5.443  -2.839 -34.375  1.00  0.00     0.010 A 
HETATM   25  C   UNL     1      -5.904  -4.116 -34.781  1.00  0.00     0.152 A 
HETATM   26  N   UNL     1      -5.013  -5.087 -34.560  1.00  0.00    -0.187 NA
HETATM   27  N   UNL     1      -3.973  -4.435 -34.015  1.00  0.00    -0.289 N 
HETATM   28  H   UNL     1      -3.152  -4.971 -33.756  1.00  0.00     0.188 HD
HETATM   29  C   UNL     1      -4.182  -3.094 -33.880  1.00  0.00     0.123 A 
ENDBRANCH  20  24
ENDBRANCH   2  18
TORSDOF 6
ENDMDL
MODEL 9
REMARK VINA RESULT:      -8.1      2.398      8.208
REMARK  6 active torsions:
REMARK  status: ('A' for Active; 'I' for Inactive)
REMARK    1  A    between atoms: C_2  and  N_3 
REMARK    2  A    between atoms: C_2  and  C_12 
REMARK       I    between atoms: N_3  and  C_4 
REMARK    3  A    between atoms: C_4  and  C_5 
REMARK    4  A    between atoms: C_12  and  C_13 
REMARK       I    between atoms: C_13  and  N_14 
REMARK    5  A    between atoms: N_14  and  C_15 
REMARK    6  A    between atoms: C_17  and  C_18 
ROOT
HETATM    1  C   UNL     1      -7.171   2.267 -32.906  1.00  0.00     0.224 C 
HETATM    2  N   UNL     1      -6.481   1.302 -32.203  1.00  0.00    -0.327 N 
HETATM    3  O   UNL     1      -7.191   2.416 -34.124  1.00  0.00    -0.273 OA
HETATM    4  H   UNL     1      -6.647   1.291 -31.192  1.00  0.00     0.169 HD
ENDROOT
BRANCH   1   5
HETATM    5  C   UNL     1      -7.986   3.180 -32.002  1.00  0.00     0.128 C 
BRANCH   5   6
HETATM    6  C   UNL     1      -7.216   4.483 -31.729  1.00  0.00     0.089 C 
HETATM    7  C   UNL     1      -8.094   5.688 -32.085  1.00  0.00     0.032 C 
BRANCH   6   8
HETATM    8  N   UNL     1      -5.941   4.602 -32.451  1.00  0.00    -0.352 N 
HETATM    9  C   UNL     1      -4.716   4.303 -31.889  1.00  0.00     0.252 C 
HETATM   10  O   UNL     1      -4.574   3.604 -30.892  1.00  0.00    -0.268 OA
HETATM   11  H   UNL     1      -5.943   5.175 -33.285  1.00  0.00     0.163 HD
BRANCH   9  12
HETATM   12  C   UNL     1      -3.517   4.871 -32.559  1.00  0.00     0.032 A 
HETATM   13  C   UNL     1      -2.232   4.706 -32.027  1.00  0.00     0.017 A 
HETATM   14  C   UNL     1      -1.124   5.200 -32.720  1.00  0.00     0.001 A 
HETATM   15  C   UNL     1      -1.296   5.852 -33.941  1.00  0.00     0.000 A 
HETATM   16  C   UNL     1      -2.574   6.006 -34.479  1.00  0.00     0.001 A 
HETATM   17  C   UNL     1      -3.683   5.511 -33.792  1.00  0.00     0.017 A 
ENDBRANCH   9  12
ENDBRANCH   6   8
ENDBRANCH   5   6
ENDBRANCH   1   5
BRANCH   2  18
HETATM   18  C   UNL     1      -5.637   0.286 -32.686  1.00  0.00     0.035 A 
HETATM   19  C   UNL     1      -6.086  -0.901 -33.272  1.00  0.00     0.042 A 
HETATM   20  C   UNL     1      -5.174  -1.873 -33.722  1.00  0.00    -0.021 A 
HETATM   21  C   UNL     1      -3.800  -1.626 -33.587  1.00  0.00     0.012 A 
HETATM   22  C   UNL     1      -3.345  -0.445 -33.005  1.00  0.00     0.003 A 
HETATM   23  C   UNL     1      -4.261   0.501 -32.552  1.00  0.00     0.029 A 
BRANCH  20  24
HETATM   24  C   UNL     1      -5.628  -3.126 -34.307  1.00  0.00     0.010 A 
HETATM   25  C   UNL     1      -4.940  -4.344 -34.535  1.00  0.00     0.152 A 
HETATM   26  N   UNL     1      -5.707  -5.277 -35.108  1.00  0.00    -0.187 NA
HETATM   27  N   UNL     1      -6.893  -4.662 -35.245  1.00  0.00    -0.289 N 
HETATM   28  H   UNL     1      -7.657  -5.180 -35.664  1.00  0.00     0.188 HD
HETATM   29  C   UNL     1      -6.897  -3.377 -34.786  1.00  0.00     0.123 A 
ENDBRANCH  20  24
ENDBRANCH   2  18
TORSDOF 6
ENDMDL
MODEL 10
REMARK VINA RESULT:      -8.0     16.190     17.891
REMARK  6 active torsions:
REMARK  status: ('A' for Active; 'I' for Inactive)
REMARK    1  A    between atoms: C_2  and  N_3 
REMARK    2  A    between atoms: C_2  and  C_12 
REMARK       I    between atoms: N_3  and  C_4 
REMARK    3  A    between atoms: C_4  and  C_5 
REMARK    4  A    between atoms: C_12  and  C_13 
REMARK       I    between atoms: C_13  and  N_14 
REMARK    5  A    between atoms: N_14  and  C_15 
REMARK    6  A    between atoms: C_17  and  C_18 
ROOT
HETATM    1  C   UNL     1      -5.843 -13.920 -36.136  1.00  0.00     0.224 C 
HETATM    2  N   UNL     1      -5.476 -13.011 -37.105  1.00  0.00    -0.327 N 
HETATM    3  O   UNL     1      -6.798 -14.691 -36.175  1.00  0.00    -0.273 OA
HETATM    4  H   UNL     1      -4.603 -12.505 -36.926  1.00  0.00     0.169 HD
ENDROOT
BRANCH   1   5
HETATM    5  C   UNL     1      -4.896 -13.923 -34.946  1.00  0.00     0.128 C 
BRANCH   5   6
HETATM    6  C   UNL     1      -3.971 -15.151 -35.006  1.00  0.00     0.089 C 
HETATM    7  C   UNL     1      -3.857 -15.783 -33.615  1.00  0.00     0.032 C 
BRANCH   6   8
HETATM    8  N   UNL     1      -2.617 -14.872 -35.507  1.00  0.00    -0.352 N 
HETATM    9  C   UNL     1      -2.283 -14.879 -36.846  1.00  0.00     0.252 C 
HETATM   10  O   UNL     1      -3.100 -14.776 -37.755  1.00  0.00    -0.268 OA
HETATM   11  H   UNL     1      -1.862 -14.947 -34.838  1.00  0.00     0.163 HD
BRANCH   9  12
HETATM   12  C   UNL     1      -0.840 -15.015 -37.175  1.00  0.00     0.032 A 
HETATM   13  C   UNL     1      -0.001 -15.873 -36.454  1.00  0.00     0.017 A 
HETATM   14  C   UNL     1       1.336 -16.020 -36.834  1.00  0.00     0.001 A 
HETATM   15  C   UNL     1       1.831 -15.319 -37.933  1.00  0.00     0.000 A 
HETATM   16  C   UNL     1       0.994 -14.472 -38.660  1.00  0.00     0.001 A 
HETATM   17  C   UNL     1      -0.343 -14.325 -38.286  1.00  0.00     0.017 A 
ENDBRANCH   9  12
ENDBRANCH   6   8
ENDBRANCH   5   6
ENDBRANCH   1   5
BRANCH   2  18
HETATM   18  C   UNL     1      -6.094 -12.729 -38.337  1.00  0.00     0.035 A 
HETATM   19  C   UNL     1      -7.464 -12.857 -38.581  1.00  0.00     0.042 A 
HETATM   20  C   UNL     1      -8.002 -12.563 -39.847  1.00  0.00    -0.021 A 
HETATM   21  C   UNL     1      -7.141 -12.124 -40.863  1.00  0.00     0.012 A 
HETATM   22  C   UNL     1      -5.774 -11.993 -40.628  1.00  0.00     0.003 A 
HETATM   23  C   UNL     1      -5.255 -12.300 -39.372  1.00  0.00     0.029 A 
BRANCH  20  24
HETATM   24  C   UNL     1      -9.423 -12.721 -40.123  1.00  0.00     0.010 A 
HETATM   25  C   UNL     1     -10.222 -13.887 -40.223  1.00  0.00     0.152 A 
HETATM   26  N   UNL     1     -11.501 -13.619 -40.501  1.00  0.00    -0.187 NA
HETATM   27  N   UNL     1     -11.529 -12.279 -40.576  1.00  0.00    -0.289 N 
HETATM   28  H   UNL     1     -12.413 -11.827 -40.779  1.00  0.00     0.188 HD
HETATM   29  C   UNL     1     -10.314 -11.697 -40.361  1.00  0.00     0.123 A 
ENDBRANCH  20  24
ENDBRANCH   2  18
TORSDOF 6
ENDMDL
