MODEL 1
REMARK VINA RESULT:      -8.3      0.000      0.000
REMARK  5 active torsions:
REMARK  status: ('A' for Active; 'I' for Inactive)
REMARK    1  A    between atoms: O_2  and  C_3 
REMARK    2  A    between atoms: C_7  and  C_9 
REMARK    3  A    between atoms: C_9  and  N_11 
REMARK       I    between atoms: N_11  and  C_12 
REMARK       I    between atoms: C_12  and  N_14 
REMARK    4  A    between atoms: N_14  and  C_15 
REMARK    5  A    between atoms: C_18  and  C_21 
ROOT
HETATM    1  N   UNL     1      -4.875   3.931 -32.678  1.00  0.00    -0.335 N 
HETATM    2  C   UNL     1      -5.218   2.626 -32.725  1.00  0.00     0.322 C 
HETATM    3  O   UNL     1      -4.927   1.723 -31.964  1.00  0.00    -0.247 OA
HETATM    4  N   UNL     1      -6.012   2.369 -33.845  1.00  0.00    -0.289 N 
HETATM    5  H   UNL     1      -5.175   4.580 -33.391  1.00  0.00     0.165 HD
HETATM    6  H   UNL     1      -6.254   3.056 -34.538  1.00  0.00     0.172 HD
ENDROOT
BRANCH   1   7
HETATM    7  C   UNL     1      -3.964   4.469 -31.674  1.00  0.00     0.115 C 
HETATM    8  C   UNL     1      -4.698   5.238 -30.573  1.00  0.00     0.037 C 
BRANCH   7   9
HETATM    9  C   UNL     1      -2.932   5.326 -32.384  1.00  0.00    -0.033 A 
HETATM   10  C   UNL     1      -2.142   4.783 -33.405  1.00  0.00     0.009 A 
HETATM   11  C   UNL     1      -1.236   5.586 -34.099  1.00  0.00     0.003 A 
HETATM   12  C   UNL     1      -1.111   6.944 -33.791  1.00  0.00     0.037 A 
HETATM   13  C   UNL     1      -1.891   7.503 -32.783  1.00  0.00     0.068 A 
HETATM   14  C   UNL     1      -2.792   6.693 -32.086  1.00  0.00     0.046 A 
BRANCH  13  15
HETATM   15  O   UNL     1      -1.887   8.812 -32.388  1.00  0.00    -0.356 OA
HETATM   16  C   UNL     1      -2.354   9.090 -31.073  1.00  0.00     0.210 C 
ENDBRANCH  13  15
ENDBRANCH   7   9
ENDBRANCH   1   7
BRANCH   4  17
HETATM   17  C   UNL     1      -6.487   1.161 -34.095  1.00  0.00     0.153 A 
HETATM   18  N   UNL     1      -5.791   0.021 -34.118  1.00  0.00    -0.335 N 
HETATM   19  H   UNL     1      -4.787   0.057 -33.927  1.00  0.00     0.168 HD
HETATM   20  C   UNL     1      -6.548  -1.105 -34.394  1.00  0.00     0.051 A 
HETATM   21  C   UNL     1      -7.873  -0.784 -34.611  1.00  0.00     0.083 A 
HETATM   22  S   UNL     1      -8.161   0.904 -34.429  1.00  0.00    -0.063 SA
BRANCH  20  23
HETATM   23  C   UNL     1      -5.992  -2.454 -34.446  1.00  0.00    -0.006 A 
HETATM   24  C   UNL     1      -4.668  -2.715 -34.072  1.00  0.00     0.033 A 
HETATM   25  C   UNL     1      -4.194  -4.015 -34.155  1.00  0.00     0.117 A 
HETATM   26  N   UNL     1      -4.939  -5.051 -34.583  1.00  0.00    -0.273 NA
HETATM   27  C   UNL     1      -6.209  -4.790 -34.941  1.00  0.00     0.117 A 
HETATM   28  C   UNL     1      -6.776  -3.525 -34.889  1.00  0.00     0.033 A 
ENDBRANCH  20  23
ENDBRANCH   4  17
TORSDOF 5
ENDMDL
MODEL 2
REMARK VINA RESULT:      -8.3      2.429      9.197
REMARK  5 active torsions:
REMARK  status: ('A' for Active; 'I' for Inactive)
REMARK    1  A    between atoms: O_2  and  C_3 
REMARK    2  A    between atoms: C_7  and  C_9 
REMARK    3  A    between atoms: C_9  and  N_11 
REMARK       I    between atoms: N_11  and  C_12 
REMARK       I    between atoms: C_12  and  N_14 
REMARK    4  A    between atoms: N_14  and  C_15 
REMARK    5  A    between atoms: C_18  and  C_21 
ROOT
HETATM    1  N   UNL     1      -5.863  -0.049 -33.289  1.00  0.00    -0.335 N 
HETATM    2  C   UNL     1      -5.704   1.286 -33.165  1.00  0.00     0.322 C 
HETATM    3  O   UNL     1      -5.966   2.172 -33.956  1.00  0.00    -0.247 OA
HETATM    4  N   UNL     1      -5.146   1.599 -31.924  1.00  0.00    -0.289 N 
HETATM    5  H   UNL     1      -5.587  -0.683 -32.553  1.00  0.00     0.165 HD
HETATM    6  H   UNL     1      -4.864   0.917 -31.241  1.00  0.00     0.172 HD
ENDROOT
BRANCH   1   7
HETATM    7  C   UNL     1      -6.330  -0.674 -34.521  1.00  0.00     0.115 C 
HETATM    8  C   UNL     1      -7.829  -0.463 -34.751  1.00  0.00     0.037 C 
BRANCH   7   9
HETATM    9  C   UNL     1      -5.958  -2.145 -34.475  1.00  0.00    -0.033 A 
HETATM   10  C   UNL     1      -6.741  -3.095 -35.144  1.00  0.00     0.009 A 
HETATM   11  C   UNL     1      -6.365  -4.439 -35.153  1.00  0.00     0.003 A 
HETATM   12  C   UNL     1      -5.200  -4.854 -34.503  1.00  0.00     0.037 A 
HETATM   13  C   UNL     1      -4.406  -3.925 -33.836  1.00  0.00     0.068 A 
HETATM   14  C   UNL     1      -4.791  -2.580 -33.824  1.00  0.00     0.046 A 
BRANCH  13  15
HETATM   15  O   UNL     1      -3.238  -4.183 -33.175  1.00  0.00    -0.356 OA
HETATM   16  C   UNL     1      -2.991  -3.439 -31.987  1.00  0.00     0.210 C 
ENDBRANCH  13  15
ENDBRANCH   7   9
ENDBRANCH   1   7
BRANCH   4  17
HETATM   17  C   UNL     1      -4.912   2.849 -31.565  1.00  0.00     0.153 A 
HETATM   18  N   UNL     1      -4.082   3.707 -32.164  1.00  0.00    -0.335 N 
HETATM   19  H   UNL     1      -3.562   3.392 -32.985  1.00  0.00     0.168 HD
HETATM   20  C   UNL     1      -4.042   4.963 -31.583  1.00  0.00     0.051 A 
HETATM   21  C   UNL     1      -4.868   5.038 -30.479  1.00  0.00     0.083 A 
HETATM   22  S   UNL     1      -5.708   3.559 -30.208  1.00  0.00    -0.063 SA
BRANCH  20  23
HETATM   23  C   UNL     1      -3.220   6.058 -32.090  1.00  0.00    -0.006 A 
HETATM   24  C   UNL     1      -2.931   7.181 -31.304  1.00  0.00     0.033 A 
HETATM   25  C   UNL     1      -2.155   8.194 -31.846  1.00  0.00     0.117 A 
HETATM   26  N   UNL     1      -1.665   8.164 -33.099  1.00  0.00    -0.273 NA
HETATM   27  C   UNL     1      -1.950   7.083 -33.847  1.00  0.00     0.117 A 
HETATM   28  C   UNL     1      -2.712   6.017 -33.393  1.00  0.00     0.033 A 
ENDBRANCH  20  23
ENDBRANCH   4  17
TORSDOF 5
ENDMDL
MODEL 3
REMARK VINA RESULT:      -7.9      5.525      8.570
REMARK  5 active torsions:
REMARK  status: ('A' for Active; 'I' for Inactive)
REMARK    1  A    between atoms: O_2  and  C_3 
REMARK    2  A    between atoms: C_7  and  C_9 
REMARK    3  A    between atoms: C_9  and  N_11 
REMARK       I    between atoms: N_11  and  C_12 
REMARK       I    between atoms: C_12  and  N_14 
REMARK    4  A    between atoms: N_14  and  C_15 
REMARK    5  A    between atoms: C_18  and  C_21 
ROOT
HETATM    1  N   UNL     1     -11.142   2.927 -31.846  1.00  0.00    -0.335 N 
HETATM    2  C   UNL     1      -9.954   2.460 -32.285  1.00  0.00     0.322 C 
HETATM    3  O   UNL     1      -9.427   2.589 -33.373  1.00  0.00    -0.247 OA
HETATM    4  N   UNL     1      -9.316   1.729 -31.281  1.00  0.00    -0.289 N 
HETATM    5  H   UNL     1     -11.472   2.732 -30.911  1.00  0.00     0.165 HD
HETATM    6  H   UNL     1      -9.711   1.544 -30.375  1.00  0.00     0.172 HD
ENDROOT
BRANCH   1   7
HETATM    7  C   UNL     1     -12.076   3.639 -32.712  1.00  0.00     0.115 C 
HETATM    8  C   UNL     1     -12.721   4.838 -32.012  1.00  0.00     0.037 C 
BRANCH   7   9
HETATM    9  C   UNL     1     -13.106   2.645 -33.215  1.00  0.00    -0.033 A 
HETATM   10  C   UNL     1     -12.725   1.603 -34.070  1.00  0.00     0.009 A 
HETATM   11  C   UNL     1     -13.660   0.653 -34.484  1.00  0.00     0.003 A 
HETATM   12  C   UNL     1     -14.985   0.722 -34.045  1.00  0.00     0.037 A 
HETATM   13  C   UNL     1     -15.382   1.747 -33.190  1.00  0.00     0.068 A 
HETATM   14  C   UNL     1     -14.443   2.701 -32.784  1.00  0.00     0.046 A 
BRANCH  13  15
HETATM   15  O   UNL     1     -16.632   1.929 -32.670  1.00  0.00    -0.356 OA
HETATM   16  C   UNL     1     -16.903   3.190 -32.068  1.00  0.00     0.210 C 
ENDBRANCH  13  15
ENDBRANCH   7   9
ENDBRANCH   1   7
BRANCH   4  17
HETATM   17  C   UNL     1      -8.125   1.185 -31.470  1.00  0.00     0.153 A 
HETATM   18  N   UNL     1      -7.830   0.185 -32.304  1.00  0.00    -0.335 N 
HETATM   19  H   UNL     1      -8.582  -0.221 -32.865  1.00  0.00     0.168 HD
HETATM   20  C   UNL     1      -6.495  -0.177 -32.312  1.00  0.00     0.051 A 
HETATM   21  C   UNL     1      -5.759   0.577 -31.420  1.00  0.00     0.083 A 
HETATM   22  S   UNL     1      -6.734   1.749 -30.617  1.00  0.00    -0.063 SA
BRANCH  20  23
HETATM   23  C   UNL     1      -5.952  -1.230 -33.166  1.00  0.00    -0.006 A 
HETATM   24  C   UNL     1      -4.601  -1.595 -33.108  1.00  0.00     0.033 A 
HETATM   25  C   UNL     1      -4.142  -2.594 -33.953  1.00  0.00     0.117 A 
HETATM   26  N   UNL     1      -4.927  -3.235 -34.838  1.00  0.00    -0.273 NA
HETATM   27  C   UNL     1      -6.222  -2.877 -34.887  1.00  0.00     0.117 A 
HETATM   28  C   UNL     1      -6.776  -1.894 -34.081  1.00  0.00     0.033 A 
ENDBRANCH  20  23
ENDBRANCH   4  17
TORSDOF 5
ENDMDL
MODEL 4
REMARK VINA RESULT:      -7.9      3.078      4.131
REMARK  5 active torsions:
REMARK  status: ('A' for Active; 'I' for Inactive)
REMARK    1  A    between atoms: O_2  and  C_3 
REMARK    2  A    between atoms: C_7  and  C_9 
REMARK    3  A    between atoms: C_9  and  N_11 
REMARK       I    between atoms: N_11  and  C_12 
REMARK       I    between atoms: C_12  and  N_14 
REMARK    4  A    between atoms: N_14  and  C_15 
REMARK    5  A    between atoms: C_18  and  C_21 
ROOT
HETATM    1  N   UNL     1      -1.586   4.833 -30.754  1.00  0.00    -0.335 N 
HETATM    2  C   UNL     1      -2.368   4.251 -31.688  1.00  0.00     0.322 C 
HETATM    3  O   UNL     1      -2.282   4.287 -32.900  1.00  0.00    -0.247 OA
HETATM    4  N   UNL     1      -3.402   3.534 -31.081  1.00  0.00    -0.289 N 
HETATM    5  H   UNL     1      -1.780   4.733 -29.767  1.00  0.00     0.165 HD
HETATM    6  H   UNL     1      -3.560   3.497 -30.089  1.00  0.00     0.172 HD
ENDROOT
BRANCH   1   7
HETATM    7  C   UNL     1      -0.487   5.729 -31.096  1.00  0.00     0.115 C 
HETATM    8  C   UNL     1       0.866   5.014 -31.114  1.00  0.00     0.037 C 
BRANCH   7   9
HETATM    9  C   UNL     1      -0.508   6.894 -30.123  1.00  0.00    -0.033 A 
HETATM   10  C   UNL     1      -1.664   7.672 -29.975  1.00  0.00     0.009 A 
HETATM   11  C   UNL     1      -1.703   8.705 -29.037  1.00  0.00     0.003 A 
HETATM   12  C   UNL     1      -0.595   8.971 -28.228  1.00  0.00     0.037 A 
HETATM   13  C   UNL     1       0.561   8.206 -28.357  1.00  0.00     0.068 A 
HETATM   14  C   UNL     1       0.597   7.177 -29.303  1.00  0.00     0.046 A 
BRANCH  13  15
HETATM   15  O   UNL     1       1.707   8.342 -27.625  1.00  0.00    -0.356 OA
HETATM   16  C   UNL     1       1.682   7.847 -26.290  1.00  0.00     0.210 C 
ENDBRANCH  13  15
ENDBRANCH   7   9
ENDBRANCH   1   7
BRANCH   4  17
HETATM   17  C   UNL     1      -4.290   2.861 -31.794  1.00  0.00     0.153 A 
HETATM   18  N   UNL     1      -4.160   1.616 -32.256  1.00  0.00    -0.335 N 
HETATM   19  H   UNL     1      -3.296   1.107 -32.054  1.00  0.00     0.168 HD
HETATM   20  C   UNL     1      -5.256   1.151 -32.963  1.00  0.00     0.051 A 
HETATM   21  C   UNL     1      -6.245   2.110 -33.051  1.00  0.00     0.083 A 
HETATM   22  S   UNL     1      -5.812   3.555 -32.221  1.00  0.00    -0.063 SA
BRANCH  20  23
HETATM   23  C   UNL     1      -5.334  -0.190 -33.536  1.00  0.00    -0.006 A 
HETATM   24  C   UNL     1      -4.251  -1.076 -33.474  1.00  0.00     0.033 A 
HETATM   25  C   UNL     1      -4.381  -2.331 -34.048  1.00  0.00     0.117 A 
HETATM   26  N   UNL     1      -5.498  -2.750 -34.672  1.00  0.00    -0.273 NA
HETATM   27  C   UNL     1      -6.532  -1.891 -34.727  1.00  0.00     0.117 A 
HETATM   28  C   UNL     1      -6.500  -0.617 -34.180  1.00  0.00     0.033 A 
ENDBRANCH  20  23
ENDBRANCH   4  17
TORSDOF 5
ENDMDL
MODEL 5
REMARK VINA RESULT:      -7.9      3.122      9.603
REMARK  5 active torsions:
REMARK  status: ('A' for Active; 'I' for Inactive)
REMARK    1  A    between atoms: O_2  and  C_3 
REMARK    2  A    between atoms: C_7  and  C_9 
REMARK    3  A    between atoms: C_9  and  N_11 
REMARK       I    between atoms: N_11  and  C_12 
REMARK       I    between atoms: C_12  and  N_14 
REMARK    4  A    between atoms: N_14  and  C_15 
REMARK    5  A    between atoms: C_18  and  C_21 
ROOT
HETATM    1  N   UNL     1      -4.619   0.964 -32.345  1.00  0.00    -0.335 N 
HETATM    2  C   UNL     1      -4.405   2.281 -32.139  1.00  0.00     0.322 C 
HETATM    3  O   UNL     1      -5.175   3.137 -31.746  1.00  0.00    -0.247 OA
HETATM    4  N   UNL     1      -3.088   2.618 -32.459  1.00  0.00    -0.289 N 
HETATM    5  H   UNL     1      -3.888   0.360 -32.693  1.00  0.00     0.165 HD
HETATM    6  H   UNL     1      -2.412   1.974 -32.830  1.00  0.00     0.172 HD
ENDROOT
BRANCH   1   7
HETATM    7  C   UNL     1      -5.932   0.347 -32.194  1.00  0.00     0.115 C 
HETATM    8  C   UNL     1      -6.251   0.005 -30.736  1.00  0.00     0.037 C 
BRANCH   7   9
HETATM    9  C   UNL     1      -5.989  -0.872 -33.096  1.00  0.00    -0.033 A 
HETATM   10  C   UNL     1      -7.154  -1.168 -33.814  1.00  0.00     0.009 A 
HETATM   11  C   UNL     1      -7.187  -2.253 -34.690  1.00  0.00     0.003 A 
HETATM   12  C   UNL     1      -6.055  -3.054 -34.870  1.00  0.00     0.037 A 
HETATM   13  C   UNL     1      -4.886  -2.773 -34.169  1.00  0.00     0.068 A 
HETATM   14  C   UNL     1      -4.861  -1.689 -33.287  1.00  0.00     0.046 A 
BRANCH  13  15
HETATM   15  O   UNL     1      -3.705  -3.456 -34.258  1.00  0.00    -0.356 OA
HETATM   16  C   UNL     1      -3.533  -4.562 -33.379  1.00  0.00     0.210 C 
ENDBRANCH  13  15
ENDBRANCH   7   9
ENDBRANCH   1   7
BRANCH   4  17
HETATM   17  C   UNL     1      -2.636   3.853 -32.321  1.00  0.00     0.153 A 
HETATM   18  N   UNL     1      -2.251   4.436 -31.183  1.00  0.00    -0.335 N 
HETATM   19  H   UNL     1      -2.301   3.898 -30.316  1.00  0.00     0.168 HD
HETATM   20  C   UNL     1      -1.804   5.738 -31.332  1.00  0.00     0.051 A 
HETATM   21  C   UNL     1      -1.882   6.154 -32.646  1.00  0.00     0.083 A 
HETATM   22  S   UNL     1      -2.471   4.907 -33.678  1.00  0.00    -0.063 SA
BRANCH  20  23
HETATM   23  C   UNL     1      -1.316   6.553 -30.223  1.00  0.00    -0.006 A 
HETATM   24  C   UNL     1      -2.193   7.118 -29.289  1.00  0.00     0.033 A 
HETATM   25  C   UNL     1      -1.670   7.892 -28.265  1.00  0.00     0.117 A 
HETATM   26  N   UNL     1      -0.356   8.140 -28.118  1.00  0.00    -0.273 NA
HETATM   27  C   UNL     1       0.479   7.593 -29.020  1.00  0.00     0.117 A 
HETATM   28  C   UNL     1       0.054   6.801 -30.076  1.00  0.00     0.033 A 
ENDBRANCH  20  23
ENDBRANCH   4  17
TORSDOF 5
ENDMDL
MODEL 6
REMARK VINA RESULT:      -7.9      3.289      9.772
REMARK  5 active torsions:
REMARK  status: ('A' for Active; 'I' for Inactive)
REMARK    1  A    between atoms: O_2  and  C_3 
REMARK    2  A    between atoms: C_7  and  C_9 
REMARK    3  A    between atoms: C_9  and  N_11 
REMARK       I    between atoms: N_11  and  C_12 
REMARK       I    between atoms: C_12  and  N_14 
REMARK    4  A    between atoms: N_14  and  C_15 
REMARK    5  A    between atoms: C_18  and  C_21 
ROOT
HETATM    1  N   UNL     1      -3.750   1.823 -32.532  1.00  0.00    -0.335 N 
HETATM    2  C   UNL     1      -3.477   3.062 -32.071  1.00  0.00     0.322 C 
HETATM    3  O   UNL     1      -3.905   3.632 -31.086  1.00  0.00    -0.247 OA
HETATM    4  N   UNL     1      -2.571   3.708 -32.916  1.00  0.00    -0.289 N 
HETATM    5  H   UNL     1      -3.332   1.473 -33.383  1.00  0.00     0.165 HD
HETATM    6  H   UNL     1      -2.211   3.316 -33.769  1.00  0.00     0.172 HD
ENDROOT
BRANCH   1   7
HETATM    7  C   UNL     1      -4.743   0.954 -31.909  1.00  0.00     0.115 C 
HETATM    8  C   UNL     1      -4.119  -0.018 -30.905  1.00  0.00     0.037 C 
BRANCH   7   9
HETATM    9  C   UNL     1      -5.498   0.234 -33.011  1.00  0.00    -0.033 A 
HETATM   10  C   UNL     1      -6.357   0.943 -33.860  1.00  0.00     0.009 A 
HETATM   11  C   UNL     1      -7.005   0.293 -34.912  1.00  0.00     0.003 A 
HETATM   12  C   UNL     1      -6.799  -1.070 -35.137  1.00  0.00     0.037 A 
HETATM   13  C   UNL     1      -5.945  -1.792 -34.308  1.00  0.00     0.068 A 
HETATM   14  C   UNL     1      -5.304  -1.137 -33.252  1.00  0.00     0.046 A 
BRANCH  13  15
HETATM   15  O   UNL     1      -5.637  -3.119 -34.420  1.00  0.00    -0.356 OA
HETATM   16  C   UNL     1      -6.639  -3.969 -34.965  1.00  0.00     0.210 C 
ENDBRANCH  13  15
ENDBRANCH   7   9
ENDBRANCH   1   7
BRANCH   4  17
HETATM   17  C   UNL     1      -2.137   4.931 -32.661  1.00  0.00     0.153 A 
HETATM   18  N   UNL     1      -1.771   5.413 -31.471  1.00  0.00    -0.335 N 
HETATM   19  H   UNL     1      -1.822   4.797 -30.657  1.00  0.00     0.168 HD
HETATM   20  C   UNL     1      -1.341   6.729 -31.496  1.00  0.00     0.051 A 
HETATM   21  C   UNL     1      -1.412   7.262 -32.767  1.00  0.00     0.083 A 
HETATM   22  S   UNL     1      -1.974   6.107 -33.914  1.00  0.00    -0.063 SA
BRANCH  20  23
HETATM   23  C   UNL     1      -0.874   7.445 -30.311  1.00  0.00    -0.006 A 
HETATM   24  C   UNL     1       0.358   7.149 -29.716  1.00  0.00     0.033 A 
HETATM   25  C   UNL     1       0.741   7.854 -28.586  1.00  0.00     0.117 A 
HETATM   26  N   UNL     1      -0.014   8.813 -28.018  1.00  0.00    -0.273 NA
HETATM   27  C   UNL     1      -1.197   9.089 -28.597  1.00  0.00     0.117 A 
HETATM   28  C   UNL     1      -1.665   8.442 -29.730  1.00  0.00     0.033 A 
ENDBRANCH  20  23
ENDBRANCH   4  17
TORSDOF 5
ENDMDL
MODEL 7
REMARK VINA RESULT:      -7.9      1.578      1.853
REMARK  5 active torsions:
REMARK  status: ('A' for Active; 'I' for Inactive)
REMARK    1  A    between atoms: O_2  and  C_3 
REMARK    2  A    between atoms: C_7  and  C_9 
REMARK    3  A    between atoms: C_9  and  N_11 
REMARK       I    between atoms: N_11  and  C_12 
REMARK       I    between atoms: C_12  and  N_14 
REMARK    4  A    between atoms: N_14  and  C_15 
REMARK    5  A    between atoms: C_18  and  C_21 
ROOT
HETATM    1  N   UNL     1      -4.859   4.144 -32.375  1.00  0.00    -0.335 N 
HETATM    2  C   UNL     1      -5.392   2.904 -32.352  1.00  0.00     0.322 C 
HETATM    3  O   UNL     1      -5.576   2.159 -31.409  1.00  0.00    -0.247 OA
HETATM    4  N   UNL     1      -5.744   2.500 -33.642  1.00  0.00    -0.289 N 
HETATM    5  H   UNL     1      -4.748   4.654 -33.240  1.00  0.00     0.165 HD
HETATM    6  H   UNL     1      -5.580   3.044 -34.471  1.00  0.00     0.172 HD
ENDROOT
BRANCH   1   7
HETATM    7  C   UNL     1      -4.306   4.784 -31.187  1.00  0.00     0.115 C 
HETATM    8  C   UNL     1      -5.281   5.778 -30.552  1.00  0.00     0.037 C 
BRANCH   7   9
HETATM    9  C   UNL     1      -2.990   5.436 -31.570  1.00  0.00    -0.033 A 
HETATM   10  C   UNL     1      -2.976   6.685 -32.203  1.00  0.00     0.009 A 
HETATM   11  C   UNL     1      -1.765   7.312 -32.501  1.00  0.00     0.003 A 
HETATM   12  C   UNL     1      -0.551   6.707 -32.164  1.00  0.00     0.037 A 
HETATM   13  C   UNL     1      -0.544   5.467 -31.530  1.00  0.00     0.068 A 
HETATM   14  C   UNL     1      -1.759   4.840 -31.240  1.00  0.00     0.046 A 
BRANCH  13  15
HETATM   15  O   UNL     1       0.561   4.770 -31.129  1.00  0.00    -0.356 OA
HETATM   16  C   UNL     1       0.895   4.831 -29.747  1.00  0.00     0.210 C 
ENDBRANCH  13  15
ENDBRANCH   7   9
ENDBRANCH   1   7
BRANCH   4  17
HETATM   17  C   UNL     1      -6.303   1.324 -33.871  1.00  0.00     0.153 A 
HETATM   18  N   UNL     1      -5.674   0.152 -33.985  1.00  0.00    -0.335 N 
HETATM   19  H   UNL     1      -4.656   0.132 -33.890  1.00  0.00     0.168 HD
HETATM   20  C   UNL     1      -6.511  -0.926 -34.211  1.00  0.00     0.051 A 
HETATM   21  C   UNL     1      -7.832  -0.534 -34.293  1.00  0.00     0.083 A 
HETATM   22  S   UNL     1      -8.013   1.161 -34.048  1.00  0.00    -0.063 SA
BRANCH  20  23
HETATM   23  C   UNL     1      -6.035  -2.301 -34.344  1.00  0.00    -0.006 A 
HETATM   24  C   UNL     1      -4.703  -2.642 -34.079  1.00  0.00     0.033 A 
HETATM   25  C   UNL     1      -4.308  -3.961 -34.235  1.00  0.00     0.117 A 
HETATM   26  N   UNL     1      -5.137  -4.942 -34.637  1.00  0.00    -0.273 NA
HETATM   27  C   UNL     1      -6.414  -4.604 -34.890  1.00  0.00     0.117 A 
HETATM   28  C   UNL     1      -6.906  -3.314 -34.759  1.00  0.00     0.033 A 
ENDBRANCH  20  23
ENDBRANCH   4  17
TORSDOF 5
ENDMDL
MODEL 8
REMARK VINA RESULT:      -7.8      2.768      3.529
REMARK  5 active torsions:
REMARK  status: ('A' for Active; 'I' for Inactive)
REMARK    1  A    between atoms: O_2  and  C_3 
REMARK    2  A    between atoms: C_7  and  C_9 
REMARK    3  A    between atoms: C_9  and  N_11 
REMARK       I    between atoms: N_11  and  C_12 
REMARK       I    between atoms: C_12  and  N_14 
REMARK    4  A    between atoms: N_14  and  C_15 
REMARK    5  A    between atoms: C_18  and  C_21 
ROOT
HETATM    1  N   UNL     1      -2.226   4.258 -31.195  1.00  0.00    -0.335 N 
HETATM    2  C   UNL     1      -3.241   3.506 -31.671  1.00  0.00     0.322 C 
HETATM    3  O   UNL     1      -4.008   3.734 -32.587  1.00  0.00    -0.247 OA
HETATM    4  N   UNL     1      -3.356   2.321 -30.941  1.00  0.00    -0.289 N 
HETATM    5  H   UNL     1      -1.669   3.953 -30.409  1.00  0.00     0.165 HD
HETATM    6  H   UNL     1      -2.787   2.087 -30.146  1.00  0.00     0.172 HD
ENDROOT
BRANCH   1   7
HETATM    7  C   UNL     1      -1.935   5.596 -31.697  1.00  0.00     0.115 C 
HETATM    8  C   UNL     1      -1.116   5.569 -32.990  1.00  0.00     0.037 C 
BRANCH   7   9
HETATM    9  C   UNL     1      -1.242   6.374 -30.594  1.00  0.00    -0.033 A 
HETATM   10  C   UNL     1       0.132   6.634 -30.667  1.00  0.00     0.009 A 
HETATM   11  C   UNL     1       0.758   7.401 -29.684  1.00  0.00     0.003 A 
HETATM   12  C   UNL     1       0.022   7.929 -28.620  1.00  0.00     0.037 A 
HETATM   13  C   UNL     1      -1.347   7.687 -28.533  1.00  0.00     0.068 A 
HETATM   14  C   UNL     1      -1.967   6.912 -29.517  1.00  0.00     0.046 A 
BRANCH  13  15
HETATM   15  O   UNL     1      -2.191   8.152 -27.563  1.00  0.00    -0.356 OA
HETATM   16  C   UNL     1      -2.419   7.301 -26.446  1.00  0.00     0.210 C 
ENDBRANCH  13  15
ENDBRANCH   7   9
ENDBRANCH   1   7
BRANCH   4  17
HETATM   17  C   UNL     1      -4.271   1.413 -31.233  1.00  0.00     0.153 A 
HETATM   18  N   UNL     1      -4.214   0.516 -32.221  1.00  0.00    -0.335 N 
HETATM   19  H   UNL     1      -3.392   0.509 -32.828  1.00  0.00     0.168 HD
HETATM   20  C   UNL     1      -5.309  -0.328 -32.289  1.00  0.00     0.051 A 
HETATM   21  C   UNL     1      -6.241  -0.030 -31.316  1.00  0.00     0.083 A 
HETATM   22  S   UNL     1      -5.722   1.268 -30.309  1.00  0.00    -0.063 SA
BRANCH  20  23
HETATM   23  C   UNL     1      -5.442  -1.395 -33.278  1.00  0.00    -0.006 A 
HETATM   24  C   UNL     1      -6.680  -1.712 -33.850  1.00  0.00     0.033 A 
HETATM   25  C   UNL     1      -6.744  -2.744 -34.774  1.00  0.00     0.117 A 
HETATM   26  N   UNL     1      -5.676  -3.470 -35.151  1.00  0.00    -0.273 NA
HETATM   27  C   UNL     1      -4.491  -3.159 -34.594  1.00  0.00     0.117 A 
HETATM   28  C   UNL     1      -4.324  -2.143 -33.666  1.00  0.00     0.033 A 
ENDBRANCH  20  23
ENDBRANCH   4  17
TORSDOF 5
ENDMDL
MODEL 9
REMARK VINA RESULT:      -7.8      4.636      8.098
REMARK  5 active torsions:
REMARK  status: ('A' for Active; 'I' for Inactive)
REMARK    1  A    between atoms: O_2  and  C_3 
REMARK    2  A    between atoms: C_7  and  C_9 
REMARK    3  A    between atoms: C_9  and  N_11 
REMARK       I    between atoms: N_11  and  C_12 
REMARK       I    between atoms: C_12  and  N_14 
REMARK    4  A    between atoms: N_14  and  C_15 
REMARK    5  A    between atoms: C_18  and  C_21 
ROOT
HETATM    1  N   UNL     1      -5.268  -0.408 -31.219  1.00  0.00    -0.335 N 
HETATM    2  C   UNL     1      -6.116   0.461 -31.809  1.00  0.00     0.322 C 
HETATM    3  O   UNL     1      -5.966   1.122 -32.819  1.00  0.00    -0.247 OA
HETATM    4  N   UNL     1      -7.304   0.555 -31.081  1.00  0.00    -0.289 N 
HETATM    5  H   UNL     1      -5.515  -0.886 -30.364  1.00  0.00     0.165 HD
HETATM    6  H   UNL     1      -7.479   0.073 -30.217  1.00  0.00     0.172 HD
ENDROOT
BRANCH   1   7
HETATM    7  C   UNL     1      -3.910  -0.631 -31.701  1.00  0.00     0.115 C 
HETATM    8  C   UNL     1      -3.390   0.537 -32.542  1.00  0.00     0.037 C 
BRANCH   7   9
HETATM    9  C   UNL     1      -3.888  -1.943 -32.463  1.00  0.00    -0.033 A 
HETATM   10  C   UNL     1      -3.148  -3.030 -31.981  1.00  0.00     0.009 A 
HETATM   11  C   UNL     1      -3.176  -4.255 -32.649  1.00  0.00     0.003 A 
HETATM   12  C   UNL     1      -3.950  -4.417 -33.802  1.00  0.00     0.037 A 
HETATM   13  C   UNL     1      -4.697  -3.350 -34.294  1.00  0.00     0.068 A 
HETATM   14  C   UNL     1      -4.659  -2.123 -33.625  1.00  0.00     0.046 A 
BRANCH  13  15
HETATM   15  O   UNL     1      -5.507  -3.368 -35.395  1.00  0.00    -0.356 OA
HETATM   16  C   UNL     1      -6.474  -4.410 -35.465  1.00  0.00     0.210 C 
ENDBRANCH  13  15
ENDBRANCH   7   9
ENDBRANCH   1   7
BRANCH   4  17
HETATM   17  C   UNL     1      -8.298   1.333 -31.474  1.00  0.00     0.153 A 
HETATM   18  N   UNL     1      -9.199   1.057 -32.420  1.00  0.00    -0.335 N 
HETATM   19  H   UNL     1      -9.138   0.160 -32.907  1.00  0.00     0.168 HD
HETATM   20  C   UNL     1     -10.142   2.051 -32.618  1.00  0.00     0.051 A 
HETATM   21  C   UNL     1      -9.919   3.134 -31.792  1.00  0.00     0.083 A 
HETATM   22  S   UNL     1      -8.565   2.881 -30.757  1.00  0.00    -0.063 SA
BRANCH  20  23
HETATM   23  C   UNL     1     -11.230   1.945 -33.586  1.00  0.00    -0.006 A 
HETATM   24  C   UNL     1     -11.461   2.946 -34.539  1.00  0.00     0.033 A 
HETATM   25  C   UNL     1     -12.517   2.795 -35.424  1.00  0.00     0.117 A 
HETATM   26  N   UNL     1     -13.346   1.735 -35.416  1.00  0.00    -0.273 NA
HETATM   27  C   UNL     1     -13.118   0.780 -34.497  1.00  0.00     0.117 A 
HETATM   28  C   UNL     1     -12.085   0.837 -33.573  1.00  0.00     0.033 A 
ENDBRANCH  20  23
ENDBRANCH   4  17
TORSDOF 5
ENDMDL
MODEL 10
REMARK VINA RESULT:      -7.6      5.254      7.796
REMARK  5 active torsions:
REMARK  status: ('A' for Active; 'I' for Inactive)
REMARK    1  A    between atoms: O_2  and  C_3 
REMARK    2  A    between atoms: C_7  and  C_9 
REMARK    3  A    between atoms: C_9  and  N_11 
REMARK       I    between atoms: N_11  and  C_12 
REMARK       I    between atoms: C_12  and  N_14 
REMARK    4  A    between atoms: N_14  and  C_15 
REMARK    5  A    between atoms: C_18  and  C_21 
ROOT
HETATM    1  N   UNL     1     -10.210   2.317 -33.801  1.00  0.00    -0.335 N 
HETATM    2  C   UNL     1      -9.199   1.486 -34.134  1.00  0.00     0.322 C 
HETATM    3  O   UNL     1      -8.972   0.931 -35.191  1.00  0.00    -0.247 OA
HETATM    4  N   UNL     1      -8.349   1.289 -33.043  1.00  0.00    -0.289 N 
HETATM    5  H   UNL     1     -10.290   2.703 -32.871  1.00  0.00     0.165 HD
HETATM    6  H   UNL     1      -8.500   1.680 -32.129  1.00  0.00     0.172 HD
ENDROOT
BRANCH   1   7
HETATM    7  C   UNL     1     -11.307   2.624 -34.711  1.00  0.00     0.115 C 
HETATM    8  C   UNL     1     -11.203   4.034 -35.297  1.00  0.00     0.037 C 
BRANCH   7   9
HETATM    9  C   UNL     1     -12.612   2.405 -33.968  1.00  0.00    -0.033 A 
HETATM   10  C   UNL     1     -13.468   1.358 -34.332  1.00  0.00     0.009 A 
HETATM   11  C   UNL     1     -14.638   1.119 -33.610  1.00  0.00     0.003 A 
HETATM   12  C   UNL     1     -14.968   1.914 -32.510  1.00  0.00     0.037 A 
HETATM   13  C   UNL     1     -14.128   2.957 -32.128  1.00  0.00     0.068 A 
HETATM   14  C   UNL     1     -12.960   3.197 -32.859  1.00  0.00     0.046 A 
BRANCH  13  15
HETATM   15  O   UNL     1     -14.314   3.801 -31.069  1.00  0.00    -0.356 OA
HETATM   16  C   UNL     1     -13.149   4.215 -30.363  1.00  0.00     0.210 C 
ENDBRANCH  13  15
ENDBRANCH   7   9
ENDBRANCH   1   7
BRANCH   4  17
HETATM   17  C   UNL     1      -7.274   0.525 -33.131  1.00  0.00     0.153 A 
HETATM   18  N   UNL     1      -7.229  -0.739 -33.559  1.00  0.00    -0.335 N 
HETATM   19  H   UNL     1      -8.099  -1.187 -33.854  1.00  0.00     0.168 HD
HETATM   20  C   UNL     1      -5.962  -1.296 -33.562  1.00  0.00     0.051 A 
HETATM   21  C   UNL     1      -5.016  -0.409 -33.089  1.00  0.00     0.083 A 
HETATM   22  S   UNL     1      -5.713   1.115 -32.688  1.00  0.00    -0.063 SA
BRANCH  20  23
HETATM   23  C   UNL     1      -5.683  -2.657 -34.012  1.00  0.00    -0.006 A 
HETATM   24  C   UNL     1      -4.445  -3.267 -33.773  1.00  0.00     0.033 A 
HETATM   25  C   UNL     1      -4.235  -4.557 -34.236  1.00  0.00     0.117 A 
HETATM   26  N   UNL     1      -5.160  -5.261 -34.915  1.00  0.00    -0.273 NA
HETATM   27  C   UNL     1      -6.345  -4.666 -35.141  1.00  0.00     0.117 A 
HETATM   28  C   UNL     1      -6.652  -3.383 -34.714  1.00  0.00     0.033 A 
ENDBRANCH  20  23
ENDBRANCH   4  17
TORSDOF 5
ENDMDL
