MODEL 1
REMARK VINA RESULT:      -8.7      0.000      0.000
REMARK  4 active torsions:
REMARK  status: ('A' for Active; 'I' for Inactive)
REMARK       I    between atoms: C_2  and  N_3 
REMARK    1  A    between atoms: N_3  and  C_4 
REMARK    2  A    between atoms: C_7  and  C_8 
REMARK    3  A    between atoms: C_12  and  N_13 
REMARK    4  A    between atoms: C_20  and  C_21 
ROOT
HETATM    1  C   UNL     1      -4.677   2.050 -33.144  1.00  0.00     0.105 C 
HETATM    2  C   UNL     1      -3.898   3.312 -32.786  1.00  0.00     0.067 C 
HETATM    3  C   UNL     1      -4.027   4.469 -33.763  1.00  0.00     0.020 C 
HETATM    4  N   UNL     1      -4.134   5.429 -34.574  1.00  0.00    -0.096 N 
HETATM    5  C   UNL     1      -3.013   3.381 -31.755  1.00  0.00     0.139 C 
HETATM    6  O   UNL     1      -2.748   2.266 -30.938  1.00  0.00    -0.279 OA
HETATM    7  C   UNL     1      -3.276   1.112 -31.336  1.00  0.00     0.175 A 
HETATM    8  C   UNL     1      -4.164   0.893 -32.358  1.00  0.00     0.040 A 
HETATM    9  N   UNL     1      -3.003  -0.096 -30.788  1.00  0.00    -0.256 N 
HETATM   10  H   UNL     1      -2.385  -0.311 -30.013  1.00  0.00     0.191 HD
HETATM   11  N   UNL     1      -3.649  -1.104 -31.403  1.00  0.00    -0.172 NA
HETATM   12  C   UNL     1      -4.342  -0.516 -32.400  1.00  0.00     0.099 A 
ENDROOT
BRANCH   1  13
HETATM   13  C   UNL     1      -6.160   2.182 -32.823  1.00  0.00    -0.044 A 
HETATM   14  C   UNL     1      -7.091   2.269 -33.869  1.00  0.00     0.010 A 
HETATM   15  C   UNL     1      -8.461   2.436 -33.617  1.00  0.00     0.030 A 
HETATM   16  C   UNL     1      -8.942   2.518 -32.312  1.00  0.00     0.034 A 
HETATM   17  C   UNL     1      -8.015   2.444 -31.264  1.00  0.00     0.030 A 
HETATM   18  C   UNL     1      -6.648   2.288 -31.512  1.00  0.00     0.010 A 
BRANCH  16  19
HETATM   19  N   UNL     1     -10.285   2.685 -31.931  1.00  0.00    -0.328 N 
HETATM   20  C   UNL     1     -11.195   3.692 -32.037  1.00  0.00     0.218 C 
HETATM   21  C   UNL     1     -10.867   4.994 -32.701  1.00  0.00     0.117 C 
HETATM   22  O   UNL     1     -12.320   3.503 -31.564  1.00  0.00    -0.274 OA
HETATM   23  H   UNL     1     -10.713   1.891 -31.469  1.00  0.00     0.169 HD
ENDBRANCH  16  19
ENDBRANCH   1  13
BRANCH   5  24
HETATM   24  N   UNL     1      -2.272   4.488 -31.413  1.00  0.00    -0.282 NA
HETATM   25  H   UNL     1      -1.367   4.570 -31.869  1.00  0.00     0.126 HD
HETATM   26  H   UNL     1      -2.818   5.345 -31.456  1.00  0.00     0.126 HD
ENDBRANCH   5  24
BRANCH  12  27
HETATM   27  C   UNL     1      -5.142  -1.314 -33.327  1.00  0.00    -0.005 A 
HETATM   28  C   UNL     1      -6.537  -1.186 -33.339  1.00  0.00     0.014 A 
HETATM   29  C   UNL     1      -7.314  -1.947 -34.216  1.00  0.00     0.001 A 
HETATM   30  C   UNL     1      -6.704  -2.849 -35.085  1.00  0.00     0.000 A 
HETATM   31  C   UNL     1      -5.318  -2.996 -35.072  1.00  0.00     0.001 A 
HETATM   32  C   UNL     1      -4.540  -2.237 -34.194  1.00  0.00     0.014 A 
ENDBRANCH  12  27
TORSDOF 4
ENDMDL
MODEL 2
REMARK VINA RESULT:      -8.6      2.338      6.489
REMARK  4 active torsions:
REMARK  status: ('A' for Active; 'I' for Inactive)
REMARK       I    between atoms: C_2  and  N_3 
REMARK    1  A    between atoms: N_3  and  C_4 
REMARK    2  A    between atoms: C_7  and  C_8 
REMARK    3  A    between atoms: C_12  and  N_13 
REMARK    4  A    between atoms: C_20  and  C_21 
ROOT
HETATM    1  C   UNL     1      -7.252   2.978 -32.647  1.00  0.00     0.105 C 
HETATM    2  C   UNL     1      -8.639   2.715 -32.066  1.00  0.00     0.067 C 
HETATM    3  C   UNL     1      -9.718   2.351 -33.071  1.00  0.00     0.020 C 
HETATM    4  N   UNL     1     -10.614   2.046 -33.905  1.00  0.00    -0.096 N 
HETATM    5  C   UNL     1      -8.961   2.939 -30.764  1.00  0.00     0.139 C 
HETATM    6  O   UNL     1      -8.018   3.443 -29.848  1.00  0.00    -0.279 OA
HETATM    7  C   UNL     1      -6.861   3.846 -30.365  1.00  0.00     0.175 A 
HETATM    8  C   UNL     1      -6.410   3.700 -31.652  1.00  0.00     0.040 A 
HETATM    9  N   UNL     1      -5.896   4.510 -29.685  1.00  0.00    -0.256 N 
HETATM   10  H   UNL     1      -5.893   4.792 -28.711  1.00  0.00     0.191 HD
HETATM   11  N   UNL     1      -4.839   4.826 -30.456  1.00  0.00    -0.172 NA
HETATM   12  C   UNL     1      -5.156   4.366 -31.684  1.00  0.00     0.099 A 
ENDROOT
BRANCH   1  13
HETATM   13  C   UNL     1      -6.522   1.685 -32.991  1.00  0.00    -0.044 A 
HETATM   14  C   UNL     1      -6.699   1.105 -34.255  1.00  0.00     0.010 A 
HETATM   15  C   UNL     1      -6.081  -0.108 -34.596  1.00  0.00     0.030 A 
HETATM   16  C   UNL     1      -5.265  -0.774 -33.685  1.00  0.00     0.034 A 
HETATM   17  C   UNL     1      -5.094  -0.204 -32.416  1.00  0.00     0.030 A 
HETATM   18  C   UNL     1      -5.717   0.998 -32.069  1.00  0.00     0.010 A 
BRANCH  16  19
HETATM   19  N   UNL     1      -4.593  -1.989 -33.906  1.00  0.00    -0.328 N 
HETATM   20  C   UNL     1      -4.956  -3.215 -34.372  1.00  0.00     0.218 C 
HETATM   21  C   UNL     1      -6.354  -3.516 -34.817  1.00  0.00     0.117 C 
HETATM   22  O   UNL     1      -4.087  -4.092 -34.423  1.00  0.00    -0.274 OA
HETATM   23  H   UNL     1      -3.605  -1.994 -33.679  1.00  0.00     0.169 HD
ENDBRANCH  16  19
ENDBRANCH   1  13
BRANCH   5  24
HETATM   24  N   UNL     1     -10.202   2.742 -30.204  1.00  0.00    -0.282 NA
HETATM   25  H   UNL     1     -10.291   1.924 -29.607  1.00  0.00     0.126 HD
HETATM   26  H   UNL     1     -10.570   3.589 -29.776  1.00  0.00     0.126 HD
ENDBRANCH   5  24
BRANCH  12  27
HETATM   27  C   UNL     1      -4.252   4.572 -32.815  1.00  0.00    -0.005 A 
HETATM   28  C   UNL     1      -2.881   4.323 -32.670  1.00  0.00     0.014 A 
HETATM   29  C   UNL     1      -2.005   4.521 -33.740  1.00  0.00     0.001 A 
HETATM   30  C   UNL     1      -2.491   4.975 -34.964  1.00  0.00     0.000 A 
HETATM   31  C   UNL     1      -3.851   5.240 -35.117  1.00  0.00     0.001 A 
HETATM   32  C   UNL     1      -4.728   5.045 -34.046  1.00  0.00     0.014 A 
ENDBRANCH  12  27
TORSDOF 4
ENDMDL
MODEL 3
REMARK VINA RESULT:      -8.6      2.596      5.953
REMARK  4 active torsions:
REMARK  status: ('A' for Active; 'I' for Inactive)
REMARK       I    between atoms: C_2  and  N_3 
REMARK    1  A    between atoms: N_3  and  C_4 
REMARK    2  A    between atoms: C_7  and  C_8 
REMARK    3  A    between atoms: C_12  and  N_13 
REMARK    4  A    between atoms: C_20  and  C_21 
ROOT
HETATM    1  C   UNL     1      -7.489   2.265 -32.508  1.00  0.00     0.105 C 
HETATM    2  C   UNL     1      -8.890   2.871 -32.516  1.00  0.00     0.067 C 
HETATM    3  C   UNL     1      -9.294   3.620 -31.257  1.00  0.00     0.020 C 
HETATM    4  N   UNL     1      -9.629   4.243 -30.213  1.00  0.00    -0.096 N 
HETATM    5  C   UNL     1      -9.801   2.640 -33.499  1.00  0.00     0.139 C 
HETATM    6  O   UNL     1      -9.507   1.806 -34.594  1.00  0.00    -0.279 OA
HETATM    7  C   UNL     1      -8.365   1.129 -34.521  1.00  0.00     0.175 A 
HETATM    8  C   UNL     1      -7.367   1.246 -33.587  1.00  0.00     0.040 A 
HETATM    9  N   UNL     1      -7.983   0.156 -35.382  1.00  0.00    -0.256 N 
HETATM   10  H   UNL     1      -8.478  -0.197 -36.194  1.00  0.00     0.191 HD
HETATM   11  N   UNL     1      -6.795  -0.388 -35.060  1.00  0.00    -0.172 NA
HETATM   12  C   UNL     1      -6.417   0.248 -33.931  1.00  0.00     0.099 A 
ENDROOT
BRANCH   1  13
HETATM   13  C   UNL     1      -6.412   3.313 -32.762  1.00  0.00    -0.044 A 
HETATM   14  C   UNL     1      -5.627   3.773 -31.695  1.00  0.00     0.010 A 
HETATM   15  C   UNL     1      -4.655   4.769 -31.878  1.00  0.00     0.030 A 
HETATM   16  C   UNL     1      -4.438   5.331 -33.133  1.00  0.00     0.034 A 
HETATM   17  C   UNL     1      -5.227   4.883 -34.200  1.00  0.00     0.030 A 
HETATM   18  C   UNL     1      -6.204   3.899 -34.020  1.00  0.00     0.010 A 
BRANCH  16  19
HETATM   19  N   UNL     1      -3.499   6.331 -33.444  1.00  0.00    -0.328 N 
HETATM   20  C   UNL     1      -2.328   6.365 -34.135  1.00  0.00     0.218 C 
HETATM   21  C   UNL     1      -1.763   5.150 -34.805  1.00  0.00     0.117 C 
HETATM   22  O   UNL     1      -1.729   7.444 -34.201  1.00  0.00    -0.274 OA
HETATM   23  H   UNL     1      -3.708   7.257 -33.089  1.00  0.00     0.169 HD
ENDBRANCH  16  19
ENDBRANCH   1  13
BRANCH   5  24
HETATM   24  N   UNL     1     -11.081   3.142 -33.534  1.00  0.00    -0.282 NA
HETATM   25  H   UNL     1     -11.160   4.132 -33.752  1.00  0.00     0.126 HD
HETATM   26  H   UNL     1     -11.707   2.562 -34.089  1.00  0.00     0.126 HD
ENDBRANCH   5  24
BRANCH  12  27
HETATM   27  C   UNL     1      -5.176  -0.115 -33.249  1.00  0.00    -0.005 A 
HETATM   28  C   UNL     1      -4.848  -1.464 -33.061  1.00  0.00     0.014 A 
HETATM   29  C   UNL     1      -3.669  -1.825 -32.404  1.00  0.00     0.001 A 
HETATM   30  C   UNL     1      -2.808  -0.840 -31.925  1.00  0.00     0.000 A 
HETATM   31  C   UNL     1      -3.130   0.506 -32.093  1.00  0.00     0.001 A 
HETATM   32  C   UNL     1      -4.311   0.868 -32.747  1.00  0.00     0.014 A 
ENDBRANCH  12  27
TORSDOF 4
ENDMDL
MODEL 4
REMARK VINA RESULT:      -8.5      2.143      2.654
REMARK  4 active torsions:
REMARK  status: ('A' for Active; 'I' for Inactive)
REMARK       I    between atoms: C_2  and  N_3 
REMARK    1  A    between atoms: N_3  and  C_4 
REMARK    2  A    between atoms: C_7  and  C_8 
REMARK    3  A    between atoms: C_12  and  N_13 
REMARK    4  A    between atoms: C_20  and  C_21 
ROOT
HETATM    1  C   UNL     1      -5.715   2.599 -32.339  1.00  0.00     0.105 C 
HETATM    2  C   UNL     1      -5.382   3.937 -31.686  1.00  0.00     0.067 C 
HETATM    3  C   UNL     1      -4.880   5.024 -32.622  1.00  0.00     0.020 C 
HETATM    4  N   UNL     1      -4.464   5.926 -33.399  1.00  0.00    -0.096 N 
HETATM    5  C   UNL     1      -5.372   4.133 -30.340  1.00  0.00     0.139 C 
HETATM    6  O   UNL     1      -5.668   3.089 -29.443  1.00  0.00    -0.279 OA
HETATM    7  C   UNL     1      -5.785   1.877 -29.976  1.00  0.00     0.175 A 
HETATM    8  C   UNL     1      -5.800   1.532 -31.303  1.00  0.00     0.040 A 
HETATM    9  N   UNL     1      -5.899   0.727 -29.270  1.00  0.00    -0.256 N 
HETATM   10  H   UNL     1      -5.920   0.604 -28.264  1.00  0.00     0.191 HD
HETATM   11  N   UNL     1      -5.972  -0.362 -30.058  1.00  0.00    -0.172 NA
HETATM   12  C   UNL     1      -5.874   0.113 -31.318  1.00  0.00     0.099 A 
ENDROOT
BRANCH   1  13
HETATM   13  C   UNL     1      -7.059   2.630 -33.056  1.00  0.00    -0.044 A 
HETATM   14  C   UNL     1      -8.120   3.363 -32.505  1.00  0.00     0.010 A 
HETATM   15  C   UNL     1      -9.387   3.382 -33.110  1.00  0.00     0.030 A 
HETATM   16  C   UNL     1      -9.628   2.672 -34.283  1.00  0.00     0.034 A 
HETATM   17  C   UNL     1      -8.574   1.929 -34.831  1.00  0.00     0.030 A 
HETATM   18  C   UNL     1      -7.314   1.899 -34.226  1.00  0.00     0.010 A 
BRANCH  16  19
HETATM   19  N   UNL     1     -10.847   2.612 -34.982  1.00  0.00    -0.328 N 
HETATM   20  C   UNL     1     -11.988   1.880 -34.859  1.00  0.00     0.218 C 
HETATM   21  C   UNL     1     -12.171   0.866 -33.772  1.00  0.00     0.117 C 
HETATM   22  O   UNL     1     -12.889   2.076 -35.681  1.00  0.00    -0.274 OA
HETATM   23  H   UNL     1     -10.938   3.248 -35.765  1.00  0.00     0.169 HD
ENDBRANCH  16  19
ENDBRANCH   1  13
BRANCH   5  24
HETATM   24  N   UNL     1      -5.053   5.312 -29.708  1.00  0.00    -0.282 NA
HETATM   25  H   UNL     1      -4.707   5.222 -28.756  1.00  0.00     0.126 HD
HETATM   26  H   UNL     1      -4.472   5.914 -30.287  1.00  0.00     0.126 HD
ENDBRANCH   5  24
BRANCH  12  27
HETATM   27  C   UNL     1      -5.868  -0.797 -32.462  1.00  0.00    -0.005 A 
HETATM   28  C   UNL     1      -4.658  -1.329 -32.927  1.00  0.00     0.014 A 
HETATM   29  C   UNL     1      -4.636  -2.194 -34.024  1.00  0.00     0.001 A 
HETATM   30  C   UNL     1      -5.824  -2.532 -34.668  1.00  0.00     0.000 A 
HETATM   31  C   UNL     1      -7.033  -1.998 -34.224  1.00  0.00     0.001 A 
HETATM   32  C   UNL     1      -7.055  -1.130 -33.129  1.00  0.00     0.014 A 
ENDBRANCH  12  27
TORSDOF 4
ENDMDL
MODEL 5
REMARK VINA RESULT:      -8.3      2.542      5.943
REMARK  4 active torsions:
REMARK  status: ('A' for Active; 'I' for Inactive)
REMARK       I    between atoms: C_2  and  N_3 
REMARK    1  A    between atoms: N_3  and  C_4 
REMARK    2  A    between atoms: C_7  and  C_8 
REMARK    3  A    between atoms: C_12  and  N_13 
REMARK    4  A    between atoms: C_20  and  C_21 
ROOT
HETATM    1  C   UNL     1      -7.411   2.773 -32.317  1.00  0.00     0.105 C 
HETATM    2  C   UNL     1      -8.496   3.818 -32.070  1.00  0.00     0.067 C 
HETATM    3  C   UNL     1      -8.368   4.610 -30.779  1.00  0.00     0.020 C 
HETATM    4  N   UNL     1      -8.261   5.268 -29.709  1.00  0.00    -0.096 N 
HETATM    5  C   UNL     1      -9.603   3.949 -32.848  1.00  0.00     0.139 C 
HETATM    6  O   UNL     1      -9.829   3.108 -33.954  1.00  0.00    -0.279 OA
HETATM    7  C   UNL     1      -8.995   2.081 -34.086  1.00  0.00     0.175 A 
HETATM    8  C   UNL     1      -7.856   1.816 -33.369  1.00  0.00     0.040 A 
HETATM    9  N   UNL     1      -9.142   1.071 -34.976  1.00  0.00    -0.256 N 
HETATM   10  H   UNL     1      -9.875   0.939 -35.664  1.00  0.00     0.191 HD
HETATM   11  N   UNL     1      -8.171   0.143 -34.875  1.00  0.00    -0.172 NA
HETATM   12  C   UNL     1      -7.388   0.568 -33.862  1.00  0.00     0.099 A 
ENDROOT
BRANCH   1  13
HETATM   13  C   UNL     1      -6.113   3.401 -32.808  1.00  0.00    -0.044 A 
HETATM   14  C   UNL     1      -4.928   3.196 -32.087  1.00  0.00     0.010 A 
HETATM   15  C   UNL     1      -3.720   3.793 -32.480  1.00  0.00     0.030 A 
HETATM   16  C   UNL     1      -3.661   4.609 -33.607  1.00  0.00     0.034 A 
HETATM   17  C   UNL     1      -4.845   4.826 -34.325  1.00  0.00     0.030 A 
HETATM   18  C   UNL     1      -6.052   4.242 -33.930  1.00  0.00     0.010 A 
BRANCH  16  19
HETATM   19  N   UNL     1      -2.518   5.261 -34.101  1.00  0.00    -0.328 N 
HETATM   20  C   UNL     1      -1.900   6.445 -33.840  1.00  0.00     0.218 C 
HETATM   21  C   UNL     1      -2.409   7.396 -32.802  1.00  0.00     0.117 C 
HETATM   22  O   UNL     1      -0.888   6.722 -34.492  1.00  0.00    -0.274 OA
HETATM   23  H   UNL     1      -2.003   4.764 -34.820  1.00  0.00     0.169 HD
ENDBRANCH  16  19
ENDBRANCH   1  13
BRANCH   5  24
HETATM   24  N   UNL     1     -10.616   4.857 -32.647  1.00  0.00    -0.282 NA
HETATM   25  H   UNL     1     -10.423   5.807 -32.955  1.00  0.00     0.126 HD
HETATM   26  H   UNL     1     -11.515   4.509 -32.973  1.00  0.00     0.126 HD
ENDBRANCH   5  24
BRANCH  12  27
HETATM   27  C   UNL     1      -6.238  -0.221 -33.424  1.00  0.00    -0.005 A 
HETATM   28  C   UNL     1      -5.613  -1.102 -34.317  1.00  0.00     0.014 A 
HETATM   29  C   UNL     1      -4.516  -1.867 -33.911  1.00  0.00     0.001 A 
HETATM   30  C   UNL     1      -4.039  -1.763 -32.607  1.00  0.00     0.000 A 
HETATM   31  C   UNL     1      -4.661  -0.901 -31.705  1.00  0.00     0.001 A 
HETATM   32  C   UNL     1      -5.760  -0.137 -32.109  1.00  0.00     0.014 A 
ENDBRANCH  12  27
TORSDOF 4
ENDMDL
MODEL 6
REMARK VINA RESULT:      -8.2      3.352      6.964
REMARK  4 active torsions:
REMARK  status: ('A' for Active; 'I' for Inactive)
REMARK       I    between atoms: C_2  and  N_3 
REMARK    1  A    between atoms: N_3  and  C_4 
REMARK    2  A    between atoms: C_7  and  C_8 
REMARK    3  A    between atoms: C_12  and  N_13 
REMARK    4  A    between atoms: C_20  and  C_21 
ROOT
HETATM    1  C   UNL     1      -9.188   3.025 -32.928  1.00  0.00     0.105 C 
HETATM    2  C   UNL     1      -8.112   4.046 -32.566  1.00  0.00     0.067 C 
HETATM    3  C   UNL     1      -7.434   3.843 -31.222  1.00  0.00     0.020 C 
HETATM    4  N   UNL     1      -6.870   3.675 -30.106  1.00  0.00    -0.096 N 
HETATM    5  C   UNL     1      -7.862   5.164 -33.299  1.00  0.00     0.139 C 
HETATM    6  O   UNL     1      -8.599   5.461 -34.461  1.00  0.00    -0.279 OA
HETATM    7  C   UNL     1      -9.654   4.687 -34.698  1.00  0.00     0.175 A 
HETATM    8  C   UNL     1     -10.033   3.546 -34.038  1.00  0.00     0.040 A 
HETATM    9  N   UNL     1     -10.580   4.910 -35.660  1.00  0.00    -0.256 N 
HETATM   10  H   UNL     1     -10.619   5.666 -36.334  1.00  0.00     0.191 HD
HETATM   11  N   UNL     1     -11.561   3.988 -35.662  1.00  0.00    -0.172 NA
HETATM   12  C   UNL     1     -11.260   3.158 -34.642  1.00  0.00     0.099 A 
ENDROOT
BRANCH   1  13
HETATM   13  C   UNL     1      -8.589   1.708 -33.406  1.00  0.00    -0.044 A 
HETATM   14  C   UNL     1      -8.528   0.616 -32.528  1.00  0.00     0.010 A 
HETATM   15  C   UNL     1      -7.944  -0.601 -32.914  1.00  0.00     0.030 A 
HETATM   16  C   UNL     1      -7.408  -0.762 -34.189  1.00  0.00     0.034 A 
HETATM   17  C   UNL     1      -7.456   0.330 -35.066  1.00  0.00     0.030 A 
HETATM   18  C   UNL     1      -8.027   1.547 -34.681  1.00  0.00     0.010 A 
BRANCH  16  19
HETATM   19  N   UNL     1      -6.799  -1.925 -34.693  1.00  0.00    -0.328 N 
HETATM   20  C   UNL     1      -5.566  -2.489 -34.579  1.00  0.00     0.218 C 
HETATM   21  C   UNL     1      -4.483  -1.873 -33.749  1.00  0.00     0.117 C 
HETATM   22  O   UNL     1      -5.357  -3.543 -35.188  1.00  0.00    -0.274 OA
HETATM   23  H   UNL     1      -7.384  -2.508 -35.281  1.00  0.00     0.169 HD
ENDBRANCH  16  19
ENDBRANCH   1  13
BRANCH   5  24
HETATM   24  N   UNL     1      -6.923   6.122 -32.998  1.00  0.00    -0.282 NA
HETATM   25  H   UNL     1      -7.139   6.715 -32.200  1.00  0.00     0.126 HD
HETATM   26  H   UNL     1      -5.981   5.739 -32.965  1.00  0.00     0.126 HD
ENDBRANCH   5  24
BRANCH  12  27
HETATM   27  C   UNL     1     -12.139   2.041 -34.302  1.00  0.00    -0.005 A 
HETATM   28  C   UNL     1     -11.596   0.848 -33.806  1.00  0.00     0.014 A 
HETATM   29  C   UNL     1     -12.425  -0.230 -33.483  1.00  0.00     0.001 A 
HETATM   30  C   UNL     1     -13.803  -0.128 -33.659  1.00  0.00     0.000 A 
HETATM   31  C   UNL     1     -14.354   1.049 -34.165  1.00  0.00     0.001 A 
HETATM   32  C   UNL     1     -13.526   2.127 -34.491  1.00  0.00     0.014 A 
ENDBRANCH  12  27
TORSDOF 4
ENDMDL
MODEL 7
REMARK VINA RESULT:      -7.8      3.455      4.952
REMARK  4 active torsions:
REMARK  status: ('A' for Active; 'I' for Inactive)
REMARK       I    between atoms: C_2  and  N_3 
REMARK    1  A    between atoms: N_3  and  C_4 
REMARK    2  A    between atoms: C_7  and  C_8 
REMARK    3  A    between atoms: C_12  and  N_13 
REMARK    4  A    between atoms: C_20  and  C_21 
ROOT
HETATM    1  C   UNL     1      -8.953   4.337 -32.522  1.00  0.00     0.105 C 
HETATM    2  C   UNL     1      -9.206   5.680 -31.842  1.00  0.00     0.067 C 
HETATM    3  C   UNL     1      -9.494   6.848 -32.771  1.00  0.00     0.020 C 
HETATM    4  N   UNL     1      -9.733   7.817 -33.541  1.00  0.00    -0.096 N 
HETATM    5  C   UNL     1      -9.037   5.889 -30.509  1.00  0.00     0.139 C 
HETATM    6  O   UNL     1      -8.603   4.860 -29.652  1.00  0.00    -0.279 OA
HETATM    7  C   UNL     1      -8.207   3.737 -30.242  1.00  0.00     0.175 A 
HETATM    8  C   UNL     1      -8.302   3.397 -31.568  1.00  0.00     0.040 A 
HETATM    9  N   UNL     1      -7.602   2.701 -29.614  1.00  0.00    -0.256 N 
HETATM   10  H   UNL     1      -7.368   2.611 -28.632  1.00  0.00     0.191 HD
HETATM   11  N   UNL     1      -7.277   1.701 -30.454  1.00  0.00    -0.172 NA
HETATM   12  C   UNL     1      -7.668   2.130 -31.672  1.00  0.00     0.099 A 
ENDROOT
BRANCH   1  13
HETATM   13  C   UNL     1     -10.245   3.677 -32.984  1.00  0.00    -0.044 A 
HETATM   14  C   UNL     1     -10.314   3.109 -34.264  1.00  0.00     0.010 A 
HETATM   15  C   UNL     1     -11.500   2.530 -34.745  1.00  0.00     0.030 A 
HETATM   16  C   UNL     1     -12.649   2.501 -33.960  1.00  0.00     0.034 A 
HETATM   17  C   UNL     1     -12.589   3.078 -32.684  1.00  0.00     0.030 A 
HETATM   18  C   UNL     1     -11.413   3.664 -32.206  1.00  0.00     0.010 A 
BRANCH  16  19
HETATM   19  N   UNL     1     -13.891   1.954 -34.326  1.00  0.00    -0.328 N 
HETATM   20  C   UNL     1     -14.453   0.716 -34.254  1.00  0.00     0.218 C 
HETATM   21  C   UNL     1     -13.729  -0.453 -33.660  1.00  0.00     0.117 C 
HETATM   22  O   UNL     1     -15.597   0.577 -34.699  1.00  0.00    -0.274 OA
HETATM   23  H   UNL     1     -14.552   2.600 -34.742  1.00  0.00     0.169 HD
ENDBRANCH  16  19
ENDBRANCH   1  13
BRANCH   5  24
HETATM   24  N   UNL     1      -9.228   7.086 -29.859  1.00  0.00    -0.282 NA
HETATM   25  H   UNL     1      -9.789   7.773 -30.356  1.00  0.00     0.126 HD
HETATM   26  H   UNL     1      -9.523   6.957 -28.893  1.00  0.00     0.126 HD
ENDBRANCH   5  24
BRANCH  12  27
HETATM   27  C   UNL     1      -7.432   1.315 -32.863  1.00  0.00    -0.005 A 
HETATM   28  C   UNL     1      -7.684  -0.063 -32.830  1.00  0.00     0.014 A 
HETATM   29  C   UNL     1      -7.457  -0.855 -33.959  1.00  0.00     0.001 A 
HETATM   30  C   UNL     1      -6.970  -0.278 -35.129  1.00  0.00     0.000 A 
HETATM   31  C   UNL     1      -6.701   1.090 -35.170  1.00  0.00     0.001 A 
HETATM   32  C   UNL     1      -6.925   1.882 -34.041  1.00  0.00     0.014 A 
ENDBRANCH  12  27
TORSDOF 4
ENDMDL
MODEL 8
REMARK VINA RESULT:      -7.7      2.675      6.012
REMARK  4 active torsions:
REMARK  status: ('A' for Active; 'I' for Inactive)
REMARK       I    between atoms: C_2  and  N_3 
REMARK    1  A    between atoms: N_3  and  C_4 
REMARK    2  A    between atoms: C_7  and  C_8 
REMARK    3  A    between atoms: C_12  and  N_13 
REMARK    4  A    between atoms: C_20  and  C_21 
ROOT
HETATM    1  C   UNL     1      -7.148   3.383 -30.845  1.00  0.00     0.105 C 
HETATM    2  C   UNL     1      -8.007   4.437 -30.150  1.00  0.00     0.067 C 
HETATM    3  C   UNL     1      -7.436   5.013 -28.865  1.00  0.00     0.020 C 
HETATM    4  N   UNL     1      -6.962   5.492 -27.800  1.00  0.00    -0.096 N 
HETATM    5  C   UNL     1      -9.273   4.747 -30.538  1.00  0.00     0.139 C 
HETATM    6  O   UNL     1      -9.889   4.099 -31.625  1.00  0.00    -0.279 OA
HETATM    7  C   UNL     1      -9.234   3.060 -32.133  1.00  0.00     0.175 A 
HETATM    8  C   UNL     1      -7.968   2.625 -31.831  1.00  0.00     0.040 A 
HETATM    9  N   UNL     1      -9.730   2.208 -33.062  1.00  0.00    -0.256 N 
HETATM   10  H   UNL     1     -10.639   2.225 -33.510  1.00  0.00     0.191 HD
HETATM   11  N   UNL     1      -8.867   1.224 -33.378  1.00  0.00    -0.172 NA
HETATM   12  C   UNL     1      -7.788   1.444 -32.599  1.00  0.00     0.099 A 
ENDROOT
BRANCH   1  13
HETATM   13  C   UNL     1      -5.992   4.006 -31.616  1.00  0.00    -0.044 A 
HETATM   14  C   UNL     1      -6.247   5.023 -32.547  1.00  0.00     0.010 A 
HETATM   15  C   UNL     1      -5.215   5.593 -33.310  1.00  0.00     0.030 A 
HETATM   16  C   UNL     1      -3.899   5.165 -33.162  1.00  0.00     0.034 A 
HETATM   17  C   UNL     1      -3.640   4.141 -32.240  1.00  0.00     0.030 A 
HETATM   18  C   UNL     1      -4.666   3.564 -31.486  1.00  0.00     0.010 A 
BRANCH  16  19
HETATM   19  N   UNL     1      -2.783   5.654 -33.863  1.00  0.00    -0.328 N 
HETATM   20  C   UNL     1      -1.940   6.711 -33.708  1.00  0.00     0.218 C 
HETATM   21  C   UNL     1      -2.072   7.674 -32.569  1.00  0.00     0.117 C 
HETATM   22  O   UNL     1      -1.044   6.860 -34.545  1.00  0.00    -0.274 OA
HETATM   23  H   UNL     1      -2.509   5.121 -34.681  1.00  0.00     0.169 HD
ENDBRANCH  16  19
ENDBRANCH   1  13
BRANCH   5  24
HETATM   24  N   UNL     1     -10.091   5.668 -29.927  1.00  0.00    -0.282 NA
HETATM   25  H   UNL     1     -10.136   5.613 -28.912  1.00  0.00     0.126 HD
HETATM   26  H   UNL     1      -9.927   6.613 -30.266  1.00  0.00     0.126 HD
ENDBRANCH   5  24
BRANCH  12  27
HETATM   27  C   UNL     1      -6.644   0.535 -32.633  1.00  0.00    -0.005 A 
HETATM   28  C   UNL     1      -6.157   0.066 -33.860  1.00  0.00     0.014 A 
HETATM   29  C   UNL     1      -5.069  -0.809 -33.907  1.00  0.00     0.001 A 
HETATM   30  C   UNL     1      -4.460  -1.227 -32.726  1.00  0.00     0.000 A 
HETATM   31  C   UNL     1      -4.943  -0.779 -31.498  1.00  0.00     0.001 A 
HETATM   32  C   UNL     1      -6.034   0.093 -31.450  1.00  0.00     0.014 A 
ENDBRANCH  12  27
TORSDOF 4
ENDMDL
MODEL 9
REMARK VINA RESULT:      -7.7      3.472      7.262
REMARK  4 active torsions:
REMARK  status: ('A' for Active; 'I' for Inactive)
REMARK       I    between atoms: C_2  and  N_3 
REMARK    1  A    between atoms: N_3  and  C_4 
REMARK    2  A    between atoms: C_7  and  C_8 
REMARK    3  A    between atoms: C_12  and  N_13 
REMARK    4  A    between atoms: C_20  and  C_21 
ROOT
HETATM    1  C   UNL     1      -9.883   3.693 -32.633  1.00  0.00     0.105 C 
HETATM    2  C   UNL     1      -8.822   4.713 -32.225  1.00  0.00     0.067 C 
HETATM    3  C   UNL     1      -8.163   4.477 -30.876  1.00  0.00     0.020 C 
HETATM    4  N   UNL     1      -7.615   4.281 -29.758  1.00  0.00    -0.096 N 
HETATM    5  C   UNL     1      -8.572   5.854 -32.921  1.00  0.00     0.139 C 
HETATM    6  O   UNL     1      -9.293   6.179 -34.086  1.00  0.00    -0.279 OA
HETATM    7  C   UNL     1     -10.336   5.402 -34.361  1.00  0.00     0.175 A 
HETATM    8  C   UNL     1     -10.716   4.239 -33.741  1.00  0.00     0.040 A 
HETATM    9  N   UNL     1     -11.250   5.645 -35.331  1.00  0.00    -0.256 N 
HETATM   10  H   UNL     1     -11.285   6.420 -35.984  1.00  0.00     0.191 HD
HETATM   11  N   UNL     1     -12.222   4.715 -35.375  1.00  0.00    -0.172 NA
HETATM   12  C   UNL     1     -11.929   3.858 -34.375  1.00  0.00     0.099 A 
ENDROOT
BRANCH   1  13
HETATM   13  C   UNL     1      -9.265   2.396 -33.139  1.00  0.00    -0.044 A 
HETATM   14  C   UNL     1      -9.637   1.177 -32.555  1.00  0.00     0.010 A 
HETATM   15  C   UNL     1      -9.059  -0.036 -32.962  1.00  0.00     0.030 A 
HETATM   16  C   UNL     1      -8.094  -0.065 -33.966  1.00  0.00     0.034 A 
HETATM   17  C   UNL     1      -7.711   1.152 -34.545  1.00  0.00     0.030 A 
HETATM   18  C   UNL     1      -8.277   2.363 -34.135  1.00  0.00     0.010 A 
BRANCH  16  19
HETATM   19  N   UNL     1      -7.444  -1.209 -34.459  1.00  0.00    -0.328 N 
HETATM   20  C   UNL     1      -6.250  -1.815 -34.215  1.00  0.00     0.218 C 
HETATM   21  C   UNL     1      -5.282  -1.286 -33.202  1.00  0.00     0.117 C 
HETATM   22  O   UNL     1      -5.977  -2.832 -34.860  1.00  0.00    -0.274 OA
HETATM   23  H   UNL     1      -7.951  -1.736 -35.161  1.00  0.00     0.169 HD
ENDBRANCH  16  19
ENDBRANCH   1  13
BRANCH   5  24
HETATM   24  N   UNL     1      -7.646   6.811 -32.577  1.00  0.00    -0.282 NA
HETATM   25  H   UNL     1      -7.167   7.259 -33.354  1.00  0.00     0.126 HD
HETATM   26  H   UNL     1      -8.013   7.475 -31.900  1.00  0.00     0.126 HD
ENDBRANCH   5  24
BRANCH  12  27
HETATM   27  C   UNL     1     -12.803   2.724 -34.082  1.00  0.00    -0.005 A 
HETATM   28  C   UNL     1     -13.793   2.838 -33.097  1.00  0.00     0.014 A 
HETATM   29  C   UNL     1     -14.632   1.760 -32.802  1.00  0.00     0.001 A 
HETATM   30  C   UNL     1     -14.484   0.556 -33.486  1.00  0.00     0.000 A 
HETATM   31  C   UNL     1     -13.494   0.424 -34.458  1.00  0.00     0.001 A 
HETATM   32  C   UNL     1     -12.653   1.501 -34.751  1.00  0.00     0.014 A 
ENDBRANCH  12  27
TORSDOF 4
ENDMDL
MODEL 10
REMARK VINA RESULT:      -7.5      2.139      2.868
REMARK  4 active torsions:
REMARK  status: ('A' for Active; 'I' for Inactive)
REMARK       I    between atoms: C_2  and  N_3 
REMARK    1  A    between atoms: N_3  and  C_4 
REMARK    2  A    between atoms: C_7  and  C_8 
REMARK    3  A    between atoms: C_12  and  N_13 
REMARK    4  A    between atoms: C_20  and  C_21 
ROOT
HETATM    1  C   UNL     1      -4.489   3.684 -32.983  1.00  0.00     0.105 C 
HETATM    2  C   UNL     1      -3.182   4.416 -32.694  1.00  0.00     0.067 C 
HETATM    3  C   UNL     1      -2.863   5.587 -33.609  1.00  0.00     0.020 C 
HETATM    4  N   UNL     1      -2.599   6.559 -34.368  1.00  0.00    -0.096 N 
HETATM    5  C   UNL     1      -2.262   3.981 -31.791  1.00  0.00     0.139 C 
HETATM    6  O   UNL     1      -2.459   2.799 -31.052  1.00  0.00    -0.279 OA
HETATM    7  C   UNL     1      -3.499   2.053 -31.411  1.00  0.00     0.175 A 
HETATM    8  C   UNL     1      -4.490   2.356 -32.310  1.00  0.00     0.040 A 
HETATM    9  N   UNL     1      -3.760   0.809 -30.943  1.00  0.00    -0.256 N 
HETATM   10  H   UNL     1      -3.234   0.268 -30.266  1.00  0.00     0.191 HD
HETATM   11  N   UNL     1      -4.861   0.266 -31.495  1.00  0.00    -0.172 NA
HETATM   12  C   UNL     1      -5.304   1.193 -32.371  1.00  0.00     0.099 A 
ENDROOT
BRANCH   1  13
HETATM   13  C   UNL     1      -5.700   4.448 -32.460  1.00  0.00    -0.044 A 
HETATM   14  C   UNL     1      -5.824   4.691 -31.084  1.00  0.00     0.010 A 
HETATM   15  C   UNL     1      -6.945   5.352 -30.557  1.00  0.00     0.030 A 
HETATM   16  C   UNL     1      -7.971   5.790 -31.389  1.00  0.00     0.034 A 
HETATM   17  C   UNL     1      -7.857   5.539 -32.763  1.00  0.00     0.030 A 
HETATM   18  C   UNL     1      -6.748   4.872 -33.291  1.00  0.00     0.010 A 
BRANCH  16  19
HETATM   19  N   UNL     1      -9.139   6.460 -30.984  1.00  0.00    -0.328 N 
HETATM   20  C   UNL     1     -10.409   6.077 -30.680  1.00  0.00     0.218 C 
HETATM   21  C   UNL     1     -10.837   4.642 -30.714  1.00  0.00     0.117 C 
HETATM   22  O   UNL     1     -11.217   6.957 -30.367  1.00  0.00    -0.274 OA
HETATM   23  H   UNL     1      -9.057   7.465 -30.880  1.00  0.00     0.169 HD
ENDBRANCH  16  19
ENDBRANCH   1  13
BRANCH   5  24
HETATM   24  N   UNL     1      -1.061   4.593 -31.518  1.00  0.00    -0.282 NA
HETATM   25  H   UNL     1      -0.275   4.297 -32.091  1.00  0.00     0.126 HD
HETATM   26  H   UNL     1      -1.150   5.605 -31.458  1.00  0.00     0.126 HD
ENDBRANCH   5  24
BRANCH  12  27
HETATM   27  C   UNL     1      -6.475   0.933 -33.205  1.00  0.00    -0.005 A 
HETATM   28  C   UNL     1      -6.320   0.345 -34.468  1.00  0.00     0.014 A 
HETATM   29  C   UNL     1      -7.430   0.097 -35.279  1.00  0.00     0.001 A 
HETATM   30  C   UNL     1      -8.706   0.438 -34.837  1.00  0.00     0.000 A 
HETATM   31  C   UNL     1      -8.873   1.036 -33.589  1.00  0.00     0.001 A 
HETATM   32  C   UNL     1      -7.763   1.287 -32.778  1.00  0.00     0.014 A 
ENDBRANCH  12  27
TORSDOF 4
ENDMDL
