MODEL 1
REMARK VINA RESULT:     -10.8      0.000      0.000
REMARK  7 active torsions:
REMARK  status: ('A' for Active; 'I' for Inactive)
REMARK    1  A    between atoms: C_9  and  O_10 
REMARK    2  A    between atoms: O_10  and  C_11 
REMARK    3  A    between atoms: C_11  and  C_12 
REMARK    4  A    between atoms: C_15  and  C_16 
REMARK       I    between atoms: C_16  and  N_17 
REMARK    5  A    between atoms: N_17  and  N_18 
REMARK    6  A    between atoms: C_19  and  N_20 
REMARK    7  A    between atoms: C_21  and  C_22 
ROOT
HETATM    1  C   UNL     1      -2.684   4.152 -31.949  1.00  0.00     0.270 C 
HETATM    2  N   UNL     1      -3.646   3.554 -31.153  1.00  0.00    -0.262 N 
HETATM    3  O   UNL     1      -2.524   3.933 -33.147  1.00  0.00    -0.266 OA
HETATM    4  H   UNL     1      -3.714   3.687 -30.148  1.00  0.00     0.190 HD
ENDROOT
BRANCH   2   5
HETATM    5  N   UNL     1      -4.615   2.703 -31.704  1.00  0.00    -0.270 N 
HETATM    6  C   UNL     1      -4.327   1.355 -31.918  1.00  0.00     0.113 C 
HETATM    7  C   UNL     1      -5.056   0.823 -32.920  1.00  0.00     0.097 C 
HETATM    8  C   UNL     1      -5.845   1.949 -33.478  1.00  0.00     0.186 C 
HETATM    9  O   UNL     1      -6.622   1.828 -34.418  1.00  0.00    -0.290 OA
HETATM   10  C   UNL     1      -5.515   3.229 -32.740  1.00  0.00     0.234 C 
BRANCH   6  11
HETATM   11  N   UNL     1      -3.391   0.693 -31.153  1.00  0.00    -0.286 NA
HETATM   12  H   UNL     1      -2.592   0.443 -31.730  1.00  0.00     0.125 HD
HETATM   13  H   UNL     1      -3.095   1.279 -30.362  1.00  0.00     0.125 HD
ENDBRANCH   6  11
BRANCH   7  14
HETATM   14  C   UNL     1      -5.057  -0.512 -33.358  1.00  0.00     0.146 A 
HETATM   15  N   UNL     1      -4.107  -1.431 -33.331  1.00  0.00    -0.228 NA
HETATM   16  C   UNL     1      -4.670  -2.566 -33.866  1.00  0.00     0.086 A 
HETATM   17  C   UNL     1      -5.994  -2.343 -34.223  1.00  0.00     0.062 A 
HETATM   18  C   UNL     1      -4.110  -3.835 -34.075  1.00  0.00     0.034 A 
HETATM   19  N   UNL     1      -6.214  -1.031 -33.894  1.00  0.00    -0.338 N 
HETATM   20  C   UNL     1      -6.817  -3.323 -34.781  1.00  0.00     0.032 A 
HETATM   21  H   UNL     1      -7.082  -0.520 -34.010  1.00  0.00     0.167 HD
HETATM   22  C   UNL     1      -6.242  -4.584 -34.981  1.00  0.00     0.002 A 
HETATM   23  C   UNL     1      -4.913  -4.838 -34.636  1.00  0.00     0.002 A 
ENDBRANCH   7  14
ENDBRANCH   2   5
BRANCH   1  24
HETATM   24  C   UNL     1      -1.757   5.075 -31.245  1.00  0.00     0.033 A 
HETATM   25  C   UNL     1      -2.293   5.958 -30.300  1.00  0.00     0.017 A 
HETATM   26  C   UNL     1      -1.458   6.845 -29.617  1.00  0.00     0.010 A 
HETATM   27  C   UNL     1      -0.077   6.854 -29.862  1.00  0.00    -0.034 A 
HETATM   28  C   UNL     1       0.458   5.944 -30.786  1.00  0.00     0.010 A 
HETATM   29  C   UNL     1      -0.376   5.060 -31.478  1.00  0.00     0.017 A 
BRANCH  27  30
HETATM   30  C   UNL     1       0.815   7.814 -29.110  1.00  0.00     0.214 C 
BRANCH  30  31
HETATM   31  O   UNL     1       1.117   7.243 -27.839  1.00  0.00    -0.347 OA
BRANCH  31  32
HETATM   32  C   UNL     1       0.977   8.050 -26.744  1.00  0.00     0.070 A 
HETATM   33  C   UNL     1      -0.211   8.613 -26.284  1.00  0.00     0.037 A 
HETATM   34  C   UNL     1      -0.212   9.417 -25.139  1.00  0.00     0.015 A 
HETATM   35  C   UNL     1       0.976   9.674 -24.437  1.00  0.00    -0.026 A 
HETATM   36  C   UNL     1       0.990  10.478 -23.286  1.00  0.00     0.012 A 
HETATM   37  C   UNL     1       2.184   9.111 -24.903  1.00  0.00    -0.023 A 
HETATM   38  C   UNL     1       2.181  10.724 -22.603  1.00  0.00     0.001 A 
HETATM   39  C   UNL     1       3.373  10.172 -23.062  1.00  0.00     0.001 A 
HETATM   40  C   UNL     1       3.375   9.370 -24.205  1.00  0.00     0.012 A 
HETATM   41  C   UNL     1       2.166   8.305 -26.054  1.00  0.00     0.049 A 
ENDBRANCH  31  32
ENDBRANCH  30  31
ENDBRANCH  27  30
ENDBRANCH   1  24
TORSDOF 7
ENDMDL
MODEL 2
REMARK VINA RESULT:     -10.8      2.855     13.240
REMARK  7 active torsions:
REMARK  status: ('A' for Active; 'I' for Inactive)
REMARK    1  A    between atoms: C_9  and  O_10 
REMARK    2  A    between atoms: O_10  and  C_11 
REMARK    3  A    between atoms: C_11  and  C_12 
REMARK    4  A    between atoms: C_15  and  C_16 
REMARK       I    between atoms: C_16  and  N_17 
REMARK    5  A    between atoms: N_17  and  N_18 
REMARK    6  A    between atoms: C_19  and  N_20 
REMARK    7  A    between atoms: C_21  and  C_22 
ROOT
HETATM    1  C   UNL     1      -2.415   5.861 -30.984  1.00  0.00     0.270 C 
HETATM    2  N   UNL     1      -2.474   6.369 -29.697  1.00  0.00    -0.262 N 
HETATM    3  O   UNL     1      -1.722   6.317 -31.890  1.00  0.00    -0.266 OA
HETATM    4  H   UNL     1      -3.111   6.030 -28.982  1.00  0.00     0.190 HD
ENDROOT
BRANCH   2   5
HETATM    5  N   UNL     1      -1.632   7.414 -29.292  1.00  0.00    -0.270 N 
HETATM    6  C   UNL     1      -0.809   7.262 -28.177  1.00  0.00     0.113 C 
HETATM    7  C   UNL     1      -0.523   8.438 -27.581  1.00  0.00     0.097 C 
HETATM    8  C   UNL     1      -1.298   9.460 -28.326  1.00  0.00     0.186 C 
HETATM    9  O   UNL     1      -1.282  10.654 -28.050  1.00  0.00    -0.290 OA
HETATM   10  C   UNL     1      -2.106   8.799 -29.423  1.00  0.00     0.234 C 
BRANCH   6  11
HETATM   11  N   UNL     1      -0.366   6.020 -27.778  1.00  0.00    -0.286 NA
HETATM   12  H   UNL     1      -0.213   5.432 -28.593  1.00  0.00     0.125 HD
HETATM   13  H   UNL     1       0.499   6.108 -27.229  1.00  0.00     0.125 HD
ENDBRANCH   6  11
BRANCH   7  14
HETATM   14  C   UNL     1       0.317   8.651 -26.475  1.00  0.00     0.146 A 
HETATM   15  N   UNL     1       1.510   8.160 -26.188  1.00  0.00    -0.228 NA
HETATM   16  C   UNL     1       1.873   8.733 -24.992  1.00  0.00     0.086 A 
HETATM   17  C   UNL     1       0.887   9.599 -24.537  1.00  0.00     0.062 A 
HETATM   18  C   UNL     1       3.039   8.565 -24.230  1.00  0.00     0.034 A 
HETATM   19  N   UNL     1      -0.091   9.526 -25.493  1.00  0.00    -0.338 N 
HETATM   20  C   UNL     1       0.989  10.329 -23.351  1.00  0.00     0.032 A 
HETATM   21  H   UNL     1      -0.968  10.035 -25.496  1.00  0.00     0.167 HD
HETATM   22  C   UNL     1       2.161  10.151 -22.606  1.00  0.00     0.002 A 
HETATM   23  C   UNL     1       3.170   9.285 -23.035  1.00  0.00     0.002 A 
ENDBRANCH   7  14
ENDBRANCH   2   5
BRANCH   1  24
HETATM   24  C   UNL     1      -3.322   4.718 -31.261  1.00  0.00     0.033 A 
HETATM   25  C   UNL     1      -2.794   3.596 -31.909  1.00  0.00     0.017 A 
HETATM   26  C   UNL     1      -3.613   2.500 -32.192  1.00  0.00     0.010 A 
HETATM   27  C   UNL     1      -4.965   2.507 -31.821  1.00  0.00    -0.034 A 
HETATM   28  C   UNL     1      -5.480   3.622 -31.142  1.00  0.00     0.010 A 
HETATM   29  C   UNL     1      -4.665   4.725 -30.865  1.00  0.00     0.017 A 
BRANCH  27  30
HETATM   30  C   UNL     1      -5.836   1.311 -32.127  1.00  0.00     0.214 C 
BRANCH  30  31
HETATM   31  O   UNL     1      -5.718   1.016 -33.517  1.00  0.00    -0.347 OA
BRANCH  31  32
HETATM   32  C   UNL     1      -5.845  -0.294 -33.889  1.00  0.00     0.070 A 
HETATM   33  C   UNL     1      -6.905  -0.845 -34.605  1.00  0.00     0.037 A 
HETATM   34  C   UNL     1      -6.902  -2.207 -34.928  1.00  0.00     0.015 A 
HETATM   35  C   UNL     1      -5.843  -3.040 -34.535  1.00  0.00    -0.026 A 
HETATM   36  C   UNL     1      -5.827  -4.407 -34.852  1.00  0.00     0.012 A 
HETATM   37  C   UNL     1      -4.770  -2.486 -33.802  1.00  0.00    -0.023 A 
HETATM   38  C   UNL     1      -4.765  -5.220 -34.452  1.00  0.00     0.001 A 
HETATM   39  C   UNL     1      -3.709  -4.676 -33.728  1.00  0.00     0.001 A 
HETATM   40  C   UNL     1      -3.710  -3.318 -33.406  1.00  0.00     0.012 A 
HETATM   41  C   UNL     1      -4.788  -1.117 -33.489  1.00  0.00     0.049 A 
ENDBRANCH  31  32
ENDBRANCH  30  31
ENDBRANCH  27  30
ENDBRANCH   1  24
TORSDOF 7
ENDMDL
MODEL 3
REMARK VINA RESULT:     -10.3      4.895      7.244
REMARK  7 active torsions:
REMARK  status: ('A' for Active; 'I' for Inactive)
REMARK    1  A    between atoms: C_9  and  O_10 
REMARK    2  A    between atoms: O_10  and  C_11 
REMARK    3  A    between atoms: C_11  and  C_12 
REMARK    4  A    between atoms: C_15  and  C_16 
REMARK       I    between atoms: C_16  and  N_17 
REMARK    5  A    between atoms: N_17  and  N_18 
REMARK    6  A    between atoms: C_19  and  N_20 
REMARK    7  A    between atoms: C_21  and  C_22 
ROOT
HETATM    1  C   UNL     1      -6.270   3.026 -33.268  1.00  0.00     0.270 C 
HETATM    2  N   UNL     1      -6.996   2.649 -34.385  1.00  0.00    -0.262 N 
HETATM    3  O   UNL     1      -6.642   2.888 -32.106  1.00  0.00    -0.266 OA
HETATM    4  H   UNL     1      -6.709   2.842 -35.340  1.00  0.00     0.190 HD
ENDROOT
BRANCH   2   5
HETATM    5  N   UNL     1      -8.210   1.957 -34.260  1.00  0.00    -0.270 N 
HETATM    6  C   UNL     1      -9.396   2.652 -34.032  1.00  0.00     0.113 C 
HETATM    7  C   UNL     1     -10.315   1.908 -33.383  1.00  0.00     0.097 C 
HETATM    8  C   UNL     1      -9.643   0.621 -33.081  1.00  0.00     0.186 C 
HETATM    9  O   UNL     1     -10.187  -0.302 -32.486  1.00  0.00    -0.290 OA
HETATM   10  C   UNL     1      -8.215   0.652 -33.584  1.00  0.00     0.234 C 
BRANCH   6  11
HETATM   11  N   UNL     1      -9.554   3.956 -34.450  1.00  0.00    -0.286 NA
HETATM   12  H   UNL     1      -8.695   4.283 -34.885  1.00  0.00     0.125 HD
HETATM   13  H   UNL     1     -10.341   4.028 -35.107  1.00  0.00     0.125 HD
ENDBRANCH   6  11
BRANCH   7  14
HETATM   14  C   UNL     1     -11.628   2.278 -33.047  1.00  0.00     0.146 A 
HETATM   15  N   UNL     1     -12.106   3.399 -32.534  1.00  0.00    -0.228 NA
HETATM   16  C   UNL     1     -13.466   3.218 -32.441  1.00  0.00     0.086 A 
HETATM   17  C   UNL     1     -13.834   1.963 -32.912  1.00  0.00     0.062 A 
HETATM   18  C   UNL     1     -14.460   4.087 -31.966  1.00  0.00     0.034 A 
HETATM   19  N   UNL     1     -12.649   1.386 -33.287  1.00  0.00    -0.338 N 
HETATM   20  C   UNL     1     -15.153   1.509 -32.948  1.00  0.00     0.032 A 
HETATM   21  H   UNL     1     -12.531   0.461 -33.686  1.00  0.00     0.167 HD
HETATM   22  C   UNL     1     -16.132   2.391 -32.472  1.00  0.00     0.002 A 
HETATM   23  C   UNL     1     -15.794   3.658 -31.988  1.00  0.00     0.002 A 
ENDBRANCH   7  14
ENDBRANCH   2   5
BRANCH   1  24
HETATM   24  C   UNL     1      -4.976   3.701 -33.547  1.00  0.00     0.033 A 
HETATM   25  C   UNL     1      -4.929   4.639 -34.584  1.00  0.00     0.017 A 
HETATM   26  C   UNL     1      -3.732   5.295 -34.882  1.00  0.00     0.010 A 
HETATM   27  C   UNL     1      -2.571   5.029 -34.141  1.00  0.00    -0.034 A 
HETATM   28  C   UNL     1      -2.634   4.112 -33.082  1.00  0.00     0.010 A 
HETATM   29  C   UNL     1      -3.828   3.447 -32.786  1.00  0.00     0.017 A 
BRANCH  27  30
HETATM   30  C   UNL     1      -1.286   5.752 -34.471  1.00  0.00     0.214 C 
BRANCH  30  31
HETATM   31  O   UNL     1      -1.388   7.089 -33.988  1.00  0.00    -0.347 OA
BRANCH  31  32
HETATM   32  C   UNL     1      -1.127   7.294 -32.661  1.00  0.00     0.070 A 
HETATM   33  C   UNL     1      -0.151   6.648 -31.906  1.00  0.00     0.037 A 
HETATM   34  C   UNL     1       0.015   6.962 -30.553  1.00  0.00     0.015 A 
HETATM   35  C   UNL     1      -0.797   7.924 -29.931  1.00  0.00    -0.026 A 
HETATM   36  C   UNL     1      -0.641   8.250 -28.575  1.00  0.00     0.012 A 
HETATM   37  C   UNL     1      -1.792   8.576 -30.690  1.00  0.00    -0.023 A 
HETATM   38  C   UNL     1      -1.458   9.208 -27.973  1.00  0.00     0.001 A 
HETATM   39  C   UNL     1      -2.442   9.850 -28.719  1.00  0.00     0.001 A 
HETATM   40  C   UNL     1      -2.608   9.538 -30.070  1.00  0.00     0.012 A 
HETATM   41  C   UNL     1      -1.944   8.250 -32.048  1.00  0.00     0.049 A 
ENDBRANCH  31  32
ENDBRANCH  30  31
ENDBRANCH  27  30
ENDBRANCH   1  24
TORSDOF 7
ENDMDL
MODEL 4
REMARK VINA RESULT:     -10.2      2.736     12.681
REMARK  7 active torsions:
REMARK  status: ('A' for Active; 'I' for Inactive)
REMARK    1  A    between atoms: C_9  and  O_10 
REMARK    2  A    between atoms: O_10  and  C_11 
REMARK    3  A    between atoms: C_11  and  C_12 
REMARK    4  A    between atoms: C_15  and  C_16 
REMARK       I    between atoms: C_16  and  N_17 
REMARK    5  A    between atoms: N_17  and  N_18 
REMARK    6  A    between atoms: C_19  and  N_20 
REMARK    7  A    between atoms: C_21  and  C_22 
ROOT
HETATM    1  C   UNL     1      -4.535   5.614 -31.374  1.00  0.00     0.270 C 
HETATM    2  N   UNL     1      -3.363   5.913 -32.047  1.00  0.00    -0.262 N 
HETATM    3  O   UNL     1      -4.899   6.139 -30.324  1.00  0.00    -0.266 OA
HETATM    4  H   UNL     1      -3.038   5.414 -32.870  1.00  0.00     0.190 HD
ENDROOT
BRANCH   2   5
HETATM    5  N   UNL     1      -2.528   6.956 -31.619  1.00  0.00    -0.270 N 
HETATM    6  C   UNL     1      -1.707   6.787 -30.506  1.00  0.00     0.113 C 
HETATM    7  C   UNL     1      -1.430   7.953 -29.887  1.00  0.00     0.097 C 
HETATM    8  C   UNL     1      -2.209   8.984 -30.614  1.00  0.00     0.186 C 
HETATM    9  O   UNL     1      -2.202  10.173 -30.314  1.00  0.00    -0.290 OA
HETATM   10  C   UNL     1      -3.012   8.340 -31.725  1.00  0.00     0.234 C 
BRANCH   6  11
HETATM   11  N   UNL     1      -1.256   5.541 -30.130  1.00  0.00    -0.286 NA
HETATM   12  H   UNL     1      -0.241   5.516 -30.170  1.00  0.00     0.125 HD
HETATM   13  H   UNL     1      -1.585   5.312 -29.183  1.00  0.00     0.125 HD
ENDBRANCH   6  11
BRANCH   7  14
HETATM   14  C   UNL     1      -0.593   8.150 -28.775  1.00  0.00     0.146 A 
HETATM   15  N   UNL     1       0.355   7.386 -28.261  1.00  0.00    -0.228 NA
HETATM   16  C   UNL     1       0.864   8.089 -27.193  1.00  0.00     0.086 A 
HETATM   17  C   UNL     1       0.220   9.312 -27.052  1.00  0.00     0.062 A 
HETATM   18  C   UNL     1       1.886   7.747 -26.295  1.00  0.00     0.034 A 
HETATM   19  N   UNL     1      -0.703   9.325 -28.065  1.00  0.00    -0.338 N 
HETATM   20  C   UNL     1       0.537  10.240 -26.058  1.00  0.00     0.032 A 
HETATM   21  H   UNL     1      -1.354  10.073 -28.275  1.00  0.00     0.167 HD
HETATM   22  C   UNL     1       1.561   9.883 -25.172  1.00  0.00     0.002 A 
HETATM   23  C   UNL     1       2.225   8.659 -25.286  1.00  0.00     0.002 A 
ENDBRANCH   7  14
ENDBRANCH   2   5
BRANCH   1  24
HETATM   24  C   UNL     1      -5.352   4.524 -31.968  1.00  0.00     0.033 A 
HETATM   25  C   UNL     1      -5.933   3.587 -31.107  1.00  0.00     0.017 A 
HETATM   26  C   UNL     1      -6.705   2.545 -31.624  1.00  0.00     0.010 A 
HETATM   27  C   UNL     1      -6.916   2.433 -33.006  1.00  0.00    -0.034 A 
HETATM   28  C   UNL     1      -6.358   3.395 -33.861  1.00  0.00     0.010 A 
HETATM   29  C   UNL     1      -5.577   4.435 -33.347  1.00  0.00     0.017 A 
BRANCH  27  30
HETATM   30  C   UNL     1      -7.760   1.304 -33.550  1.00  0.00     0.214 C 
BRANCH  30  31
HETATM   31  O   UNL     1      -7.061   0.707 -34.639  1.00  0.00    -0.347 OA
BRANCH  31  32
HETATM   32  C   UNL     1      -6.201  -0.314 -34.343  1.00  0.00     0.070 A 
HETATM   33  C   UNL     1      -5.004  -0.203 -33.640  1.00  0.00     0.037 A 
HETATM   34  C   UNL     1      -4.221  -1.337 -33.399  1.00  0.00     0.015 A 
HETATM   35  C   UNL     1      -4.621  -2.601 -33.861  1.00  0.00    -0.026 A 
HETATM   36  C   UNL     1      -3.846  -3.748 -33.626  1.00  0.00     0.012 A 
HETATM   37  C   UNL     1      -5.830  -2.718 -34.580  1.00  0.00    -0.023 A 
HETATM   38  C   UNL     1      -4.259  -4.996 -34.094  1.00  0.00     0.001 A 
HETATM   39  C   UNL     1      -5.450  -5.112 -34.805  1.00  0.00     0.001 A 
HETATM   40  C   UNL     1      -6.232  -3.981 -35.046  1.00  0.00     0.012 A 
HETATM   41  C   UNL     1      -6.604  -1.568 -34.812  1.00  0.00     0.049 A 
ENDBRANCH  31  32
ENDBRANCH  30  31
ENDBRANCH  27  30
ENDBRANCH   1  24
TORSDOF 7
ENDMDL
MODEL 5
REMARK VINA RESULT:     -10.1      3.261     12.664
REMARK  7 active torsions:
REMARK  status: ('A' for Active; 'I' for Inactive)
REMARK    1  A    between atoms: C_9  and  O_10 
REMARK    2  A    between atoms: O_10  and  C_11 
REMARK    3  A    between atoms: C_11  and  C_12 
REMARK    4  A    between atoms: C_15  and  C_16 
REMARK       I    between atoms: C_16  and  N_17 
REMARK    5  A    between atoms: N_17  and  N_18 
REMARK    6  A    between atoms: C_19  and  N_20 
REMARK    7  A    between atoms: C_21  and  C_22 
ROOT
HETATM    1  C   UNL     1      -7.098   5.250 -30.908  1.00  0.00     0.270 C 
HETATM    2  N   UNL     1      -6.169   5.014 -29.909  1.00  0.00    -0.262 N 
HETATM    3  O   UNL     1      -7.590   6.345 -31.168  1.00  0.00    -0.266 OA
HETATM    4  H   UNL     1      -5.833   4.090 -29.654  1.00  0.00     0.190 HD
ENDROOT
BRANCH   2   5
HETATM    5  N   UNL     1      -5.619   6.069 -29.167  1.00  0.00    -0.270 N 
HETATM    6  C   UNL     1      -4.255   6.347 -29.243  1.00  0.00     0.113 C 
HETATM    7  C   UNL     1      -3.785   6.938 -28.126  1.00  0.00     0.097 C 
HETATM    8  C   UNL     1      -4.932   6.982 -27.187  1.00  0.00     0.186 C 
HETATM    9  O   UNL     1      -4.862   7.453 -26.058  1.00  0.00    -0.290 OA
HETATM   10  C   UNL     1      -6.148   6.341 -27.823  1.00  0.00     0.234 C 
BRANCH   6  11
HETATM   11  N   UNL     1      -3.522   6.031 -30.366  1.00  0.00    -0.286 NA
HETATM   12  H   UNL     1      -2.973   5.194 -30.193  1.00  0.00     0.125 HD
HETATM   13  H   UNL     1      -4.145   5.894 -31.173  1.00  0.00     0.125 HD
ENDBRANCH   6  11
BRANCH   7  14
HETATM   14  C   UNL     1      -2.478   7.399 -27.891  1.00  0.00     0.146 A 
HETATM   15  N   UNL     1      -1.336   7.100 -28.486  1.00  0.00    -0.228 NA
HETATM   16  C   UNL     1      -0.379   7.869 -27.867  1.00  0.00     0.086 A 
HETATM   17  C   UNL     1      -0.944   8.662 -26.876  1.00  0.00     0.062 A 
HETATM   18  C   UNL     1       1.002   7.949 -28.101  1.00  0.00     0.034 A 
HETATM   19  N   UNL     1      -2.276   8.342 -26.909  1.00  0.00    -0.338 N 
HETATM   20  C   UNL     1      -0.211   9.552 -26.089  1.00  0.00     0.032 A 
HETATM   21  H   UNL     1      -3.003   8.735 -26.322  1.00  0.00     0.167 HD
HETATM   22  C   UNL     1       1.165   9.620 -26.339  1.00  0.00     0.002 A 
HETATM   23  C   UNL     1       1.764   8.833 -27.326  1.00  0.00     0.002 A 
ENDBRANCH   7  14
ENDBRANCH   2   5
BRANCH   1  24
HETATM   24  C   UNL     1      -7.554   4.048 -31.652  1.00  0.00     0.033 A 
HETATM   25  C   UNL     1      -7.390   4.028 -33.042  1.00  0.00     0.017 A 
HETATM   26  C   UNL     1      -7.807   2.920 -33.781  1.00  0.00     0.010 A 
HETATM   27  C   UNL     1      -8.384   1.813 -33.141  1.00  0.00    -0.034 A 
HETATM   28  C   UNL     1      -8.516   1.826 -31.744  1.00  0.00     0.010 A 
HETATM   29  C   UNL     1      -8.107   2.938 -31.002  1.00  0.00     0.017 A 
BRANCH  27  30
HETATM   30  C   UNL     1      -8.824   0.618 -33.954  1.00  0.00     0.214 C 
BRANCH  30  31
HETATM   31  O   UNL     1      -7.820   0.346 -34.929  1.00  0.00    -0.347 OA
BRANCH  31  32
HETATM   32  C   UNL     1      -6.790  -0.471 -34.552  1.00  0.00     0.070 A 
HETATM   33  C   UNL     1      -5.642  -0.082 -33.866  1.00  0.00     0.037 A 
HETATM   34  C   UNL     1      -4.666  -1.028 -33.534  1.00  0.00     0.015 A 
HETATM   35  C   UNL     1      -4.821  -2.377 -33.887  1.00  0.00    -0.026 A 
HETATM   36  C   UNL     1      -3.850  -3.338 -33.560  1.00  0.00     0.012 A 
HETATM   37  C   UNL     1      -5.979  -2.775 -34.590  1.00  0.00    -0.023 A 
HETATM   38  C   UNL     1      -4.019  -4.675 -33.922  1.00  0.00     0.001 A 
HETATM   39  C   UNL     1      -5.159  -5.068 -34.616  1.00  0.00     0.001 A 
HETATM   40  C   UNL     1      -6.134  -4.125 -34.948  1.00  0.00     0.012 A 
HETATM   41  C   UNL     1      -6.949  -1.812 -34.914  1.00  0.00     0.049 A 
ENDBRANCH  31  32
ENDBRANCH  30  31
ENDBRANCH  27  30
ENDBRANCH   1  24
TORSDOF 7
ENDMDL
MODEL 6
REMARK VINA RESULT:      -9.8      2.640     12.341
REMARK  7 active torsions:
REMARK  status: ('A' for Active; 'I' for Inactive)
REMARK    1  A    between atoms: C_9  and  O_10 
REMARK    2  A    between atoms: O_10  and  C_11 
REMARK    3  A    between atoms: C_11  and  C_12 
REMARK    4  A    between atoms: C_15  and  C_16 
REMARK       I    between atoms: C_16  and  N_17 
REMARK    5  A    between atoms: N_17  and  N_18 
REMARK    6  A    between atoms: C_19  and  N_20 
REMARK    7  A    between atoms: C_21  and  C_22 
ROOT
HETATM    1  C   UNL     1      -4.553   4.946 -32.152  1.00  0.00     0.270 C 
HETATM    2  N   UNL     1      -3.274   4.997 -32.677  1.00  0.00    -0.262 N 
HETATM    3  O   UNL     1      -5.013   5.743 -31.337  1.00  0.00    -0.266 OA
HETATM    4  H   UNL     1      -2.883   4.286 -33.289  1.00  0.00     0.190 HD
ENDROOT
BRANCH   2   5
HETATM    5  N   UNL     1      -2.414   6.067 -32.388  1.00  0.00    -0.270 N 
HETATM    6  C   UNL     1      -1.817   6.169 -31.132  1.00  0.00     0.113 C 
HETATM    7  C   UNL     1      -1.522   7.444 -30.803  1.00  0.00     0.097 C 
HETATM    8  C   UNL     1      -2.049   8.273 -31.914  1.00  0.00     0.186 C 
HETATM    9  O   UNL     1      -1.961   9.495 -31.944  1.00  0.00    -0.290 OA
HETATM   10  C   UNL     1      -2.717   7.391 -32.948  1.00  0.00     0.234 C 
BRANCH   6  11
HETATM   11  N   UNL     1      -1.577   5.054 -30.360  1.00  0.00    -0.286 NA
HETATM   12  H   UNL     1      -1.917   5.212 -29.415  1.00  0.00     0.125 HD
HETATM   13  H   UNL     1      -2.031   4.228 -30.773  1.00  0.00     0.125 HD
ENDBRANCH   6  11
BRANCH   7  14
HETATM   14  C   UNL     1      -0.871   7.895 -29.642  1.00  0.00     0.146 A 
HETATM   15  N   UNL     1      -1.072   8.970 -28.900  1.00  0.00    -0.228 NA
HETATM   16  C   UNL     1      -0.162   8.890 -27.872  1.00  0.00     0.086 A 
HETATM   17  C   UNL     1       0.610   7.740 -27.980  1.00  0.00     0.062 A 
HETATM   18  C   UNL     1       0.062   9.765 -26.799  1.00  0.00     0.034 A 
HETATM   19  N   UNL     1       0.144   7.128 -29.114  1.00  0.00    -0.338 N 
HETATM   20  C   UNL     1       1.609   7.394 -27.068  1.00  0.00     0.032 A 
HETATM   21  H   UNL     1       0.473   6.252 -29.502  1.00  0.00     0.167 HD
HETATM   22  C   UNL     1       1.817   8.278 -26.002  1.00  0.00     0.002 A 
HETATM   23  C   UNL     1       1.059   9.444 -25.867  1.00  0.00     0.002 A 
ENDBRANCH   7  14
ENDBRANCH   2   5
BRANCH   1  24
HETATM   24  C   UNL     1      -5.376   3.788 -32.587  1.00  0.00     0.033 A 
HETATM   25  C   UNL     1      -5.724   3.693 -33.939  1.00  0.00     0.017 A 
HETATM   26  C   UNL     1      -6.499   2.623 -34.389  1.00  0.00     0.010 A 
HETATM   27  C   UNL     1      -6.927   1.628 -33.498  1.00  0.00    -0.034 A 
HETATM   28  C   UNL     1      -6.546   1.712 -32.150  1.00  0.00     0.010 A 
HETATM   29  C   UNL     1      -5.778   2.787 -31.693  1.00  0.00     0.017 A 
BRANCH  27  30
HETATM   30  C   UNL     1      -7.759   0.472 -34.002  1.00  0.00     0.214 C 
BRANCH  30  31
HETATM   31  O   UNL     1      -7.070  -0.132 -35.094  1.00  0.00    -0.347 OA
BRANCH  31  32
HETATM   32  C   UNL     1      -6.410  -1.304 -34.844  1.00  0.00     0.070 A 
HETATM   33  C   UNL     1      -6.626  -2.520 -35.487  1.00  0.00     0.037 A 
HETATM   34  C   UNL     1      -5.870  -3.645 -35.136  1.00  0.00     0.015 A 
HETATM   35  C   UNL     1      -4.890  -3.571 -34.134  1.00  0.00    -0.026 A 
HETATM   36  C   UNL     1      -4.124  -4.691 -33.772  1.00  0.00     0.012 A 
HETATM   37  C   UNL     1      -4.674  -2.342 -33.474  1.00  0.00    -0.023 A 
HETATM   38  C   UNL     1      -3.155  -4.600 -32.772  1.00  0.00     0.001 A 
HETATM   39  C   UNL     1      -2.942  -3.389 -32.119  1.00  0.00     0.001 A 
HETATM   40  C   UNL     1      -3.696  -2.266 -32.469  1.00  0.00     0.012 A 
HETATM   41  C   UNL     1      -5.440  -1.223 -33.840  1.00  0.00     0.049 A 
ENDBRANCH  31  32
ENDBRANCH  30  31
ENDBRANCH  27  30
ENDBRANCH   1  24
TORSDOF 7
ENDMDL
MODEL 7
REMARK VINA RESULT:      -9.5      2.829      4.509
REMARK  7 active torsions:
REMARK  status: ('A' for Active; 'I' for Inactive)
REMARK    1  A    between atoms: C_9  and  O_10 
REMARK    2  A    between atoms: O_10  and  C_11 
REMARK    3  A    between atoms: C_11  and  C_12 
REMARK    4  A    between atoms: C_15  and  C_16 
REMARK       I    between atoms: C_16  and  N_17 
REMARK    5  A    between atoms: N_17  and  N_18 
REMARK    6  A    between atoms: C_19  and  N_20 
REMARK    7  A    between atoms: C_21  and  C_22 
ROOT
HETATM    1  C   UNL     1      -6.635   5.129 -29.225  1.00  0.00     0.270 C 
HETATM    2  N   UNL     1      -6.049   4.557 -30.340  1.00  0.00    -0.262 N 
HETATM    3  O   UNL     1      -7.777   4.900 -28.833  1.00  0.00    -0.266 OA
HETATM    4  H   UNL     1      -5.133   4.817 -30.696  1.00  0.00     0.190 HD
ENDROOT
BRANCH   2   5
HETATM    5  N   UNL     1      -6.704   3.554 -31.069  1.00  0.00    -0.270 N 
HETATM    6  C   UNL     1      -6.067   2.340 -31.324  1.00  0.00     0.113 C 
HETATM    7  C   UNL     1      -6.520   1.744 -32.446  1.00  0.00     0.097 C 
HETATM    8  C   UNL     1      -7.493   2.695 -33.036  1.00  0.00     0.186 C 
HETATM    9  O   UNL     1      -8.101   2.480 -34.078  1.00  0.00    -0.290 OA
HETATM   10  C   UNL     1      -7.580   3.944 -32.183  1.00  0.00     0.234 C 
BRANCH   6  11
HETATM   11  N   UNL     1      -5.092   1.852 -30.481  1.00  0.00    -0.286 NA
HETATM   12  H   UNL     1      -4.210   1.782 -30.982  1.00  0.00     0.125 HD
HETATM   13  H   UNL     1      -4.992   2.461 -29.659  1.00  0.00     0.125 HD
ENDBRANCH   6  11
BRANCH   7  14
HETATM   14  C   UNL     1      -6.137   0.494 -32.961  1.00  0.00     0.146 A 
HETATM   15  N   UNL     1      -4.963  -0.112 -32.975  1.00  0.00    -0.228 NA
HETATM   16  C   UNL     1      -5.176  -1.328 -33.582  1.00  0.00     0.086 A 
HETATM   17  C   UNL     1      -6.510  -1.475 -33.943  1.00  0.00     0.062 A 
HETATM   18  C   UNL     1      -4.275  -2.367 -33.858  1.00  0.00     0.034 A 
HETATM   19  N   UNL     1      -7.097  -0.304 -33.542  1.00  0.00    -0.338 N 
HETATM   20  C   UNL     1      -7.018  -2.614 -34.569  1.00  0.00     0.032 A 
HETATM   21  H   UNL     1      -8.076  -0.058 -33.640  1.00  0.00     0.167 HD
HETATM   22  C   UNL     1      -6.105  -3.643 -34.834  1.00  0.00     0.002 A 
HETATM   23  C   UNL     1      -4.757  -3.524 -34.486  1.00  0.00     0.002 A 
ENDBRANCH   7  14
ENDBRANCH   2   5
BRANCH   1  24
HETATM   24  C   UNL     1      -5.806   6.138 -28.515  1.00  0.00     0.033 A 
HETATM   25  C   UNL     1      -5.638   7.393 -29.109  1.00  0.00     0.017 A 
HETATM   26  C   UNL     1      -4.864   8.369 -28.478  1.00  0.00     0.010 A 
HETATM   27  C   UNL     1      -4.258   8.107 -27.241  1.00  0.00    -0.034 A 
HETATM   28  C   UNL     1      -4.458   6.857 -26.635  1.00  0.00     0.010 A 
HETATM   29  C   UNL     1      -5.225   5.875 -27.268  1.00  0.00     0.017 A 
BRANCH  27  30
HETATM   30  C   UNL     1      -3.430   9.176 -26.566  1.00  0.00     0.214 C 
BRANCH  30  31
HETATM   31  O   UNL     1      -2.281   9.427 -27.373  1.00  0.00    -0.347 OA
BRANCH  31  32
HETATM   32  C   UNL     1      -1.485   8.356 -27.673  1.00  0.00     0.070 A 
HETATM   33  C   UNL     1      -0.889   7.493 -26.757  1.00  0.00     0.037 A 
HETATM   34  C   UNL     1      -0.101   6.427 -27.205  1.00  0.00     0.015 A 
HETATM   35  C   UNL     1       0.107   6.209 -28.576  1.00  0.00    -0.026 A 
HETATM   36  C   UNL     1       0.895   5.143 -29.039  1.00  0.00     0.012 A 
HETATM   37  C   UNL     1      -0.489   7.086 -29.508  1.00  0.00    -0.023 A 
HETATM   38  C   UNL     1       1.092   4.944 -30.406  1.00  0.00     0.001 A 
HETATM   39  C   UNL     1       0.506   5.808 -31.326  1.00  0.00     0.001 A 
HETATM   40  C   UNL     1      -0.281   6.872 -30.881  1.00  0.00     0.012 A 
HETATM   41  C   UNL     1      -1.279   8.150 -29.041  1.00  0.00     0.049 A 
ENDBRANCH  31  32
ENDBRANCH  30  31
ENDBRANCH  27  30
ENDBRANCH   1  24
TORSDOF 7
ENDMDL
MODEL 8
REMARK VINA RESULT:      -9.5      1.878      2.902
REMARK  7 active torsions:
REMARK  status: ('A' for Active; 'I' for Inactive)
REMARK    1  A    between atoms: C_9  and  O_10 
REMARK    2  A    between atoms: O_10  and  C_11 
REMARK    3  A    between atoms: C_11  and  C_12 
REMARK    4  A    between atoms: C_15  and  C_16 
REMARK       I    between atoms: C_16  and  N_17 
REMARK    5  A    between atoms: N_17  and  N_18 
REMARK    6  A    between atoms: C_19  and  N_20 
REMARK    7  A    between atoms: C_21  and  C_22 
ROOT
HETATM    1  C   UNL     1      -5.364   4.249 -31.938  1.00  0.00     0.270 C 
HETATM    2  N   UNL     1      -6.501   3.636 -31.440  1.00  0.00    -0.262 N 
HETATM    3  O   UNL     1      -4.694   3.834 -32.880  1.00  0.00    -0.266 OA
HETATM    4  H   UNL     1      -6.998   3.949 -30.611  1.00  0.00     0.190 HD
ENDROOT
BRANCH   2   5
HETATM    5  N   UNL     1      -7.052   2.511 -32.071  1.00  0.00    -0.270 N 
HETATM    6  C   UNL     1      -6.324   1.326 -32.156  1.00  0.00     0.113 C 
HETATM    7  C   UNL     1      -6.681   0.574 -33.218  1.00  0.00     0.097 C 
HETATM    8  C   UNL     1      -7.687   1.378 -33.953  1.00  0.00     0.186 C 
HETATM    9  O   UNL     1      -8.229   1.002 -34.986  1.00  0.00    -0.290 OA
HETATM   10  C   UNL     1      -7.899   2.707 -33.256  1.00  0.00     0.234 C 
BRANCH   6  11
HETATM   11  N   UNL     1      -5.359   1.009 -31.225  1.00  0.00    -0.286 NA
HETATM   12  H   UNL     1      -4.909   0.134 -31.481  1.00  0.00     0.125 HD
HETATM   13  H   UNL     1      -4.665   1.765 -31.157  1.00  0.00     0.125 HD
ENDBRANCH   6  11
BRANCH   7  14
HETATM   14  C   UNL     1      -6.191  -0.695 -33.567  1.00  0.00     0.146 A 
HETATM   15  N   UNL     1      -5.002  -1.244 -33.384  1.00  0.00    -0.228 NA
HETATM   16  C   UNL     1      -5.093  -2.516 -33.900  1.00  0.00     0.086 A 
HETATM   17  C   UNL     1      -6.365  -2.757 -34.404  1.00  0.00     0.062 A 
HETATM   18  C   UNL     1      -4.127  -3.530 -33.969  1.00  0.00     0.034 A 
HETATM   19  N   UNL     1      -7.041  -1.586 -34.184  1.00  0.00    -0.338 N 
HETATM   20  C   UNL     1      -6.749  -3.970 -34.980  1.00  0.00     0.032 A 
HETATM   21  H   UNL     1      -8.009  -1.397 -34.421  1.00  0.00     0.167 HD
HETATM   22  C   UNL     1      -5.772  -4.971 -35.038  1.00  0.00     0.002 A 
HETATM   23  C   UNL     1      -4.483  -4.758 -34.544  1.00  0.00     0.002 A 
ENDBRANCH   7  14
ENDBRANCH   2   5
BRANCH   1  24
HETATM   24  C   UNL     1      -4.923   5.465 -31.206  1.00  0.00     0.033 A 
HETATM   25  C   UNL     1      -4.364   6.515 -31.942  1.00  0.00     0.017 A 
HETATM   26  C   UNL     1      -3.933   7.674 -31.294  1.00  0.00     0.010 A 
HETATM   27  C   UNL     1      -4.064   7.803 -29.903  1.00  0.00    -0.034 A 
HETATM   28  C   UNL     1      -4.655   6.759 -29.175  1.00  0.00     0.010 A 
HETATM   29  C   UNL     1      -5.080   5.593 -29.820  1.00  0.00     0.017 A 
BRANCH  27  30
HETATM   30  C   UNL     1      -3.600   9.066 -29.216  1.00  0.00     0.214 C 
BRANCH  30  31
HETATM   31  O   UNL     1      -2.294   9.380 -29.694  1.00  0.00    -0.347 OA
BRANCH  31  32
HETATM   32  C   UNL     1      -1.235   8.936 -28.952  1.00  0.00     0.070 A 
HETATM   33  C   UNL     1      -0.411   7.856 -29.260  1.00  0.00     0.037 A 
HETATM   34  C   UNL     1       0.648   7.515 -28.411  1.00  0.00     0.015 A 
HETATM   35  C   UNL     1       0.897   8.245 -27.239  1.00  0.00    -0.026 A 
HETATM   36  C   UNL     1       1.956   7.914 -26.379  1.00  0.00     0.012 A 
HETATM   37  C   UNL     1       0.060   9.336 -26.918  1.00  0.00    -0.023 A 
HETATM   38  C   UNL     1       2.188   8.650 -25.216  1.00  0.00     0.001 A 
HETATM   39  C   UNL     1       1.362   9.725 -24.898  1.00  0.00     0.001 A 
HETATM   40  C   UNL     1       0.306  10.067 -25.744  1.00  0.00     0.012 A 
HETATM   41  C   UNL     1      -0.997   9.665 -27.783  1.00  0.00     0.049 A 
ENDBRANCH  31  32
ENDBRANCH  30  31
ENDBRANCH  27  30
ENDBRANCH   1  24
TORSDOF 7
ENDMDL
MODEL 9
REMARK VINA RESULT:      -9.2      3.804     11.802
REMARK  7 active torsions:
REMARK  status: ('A' for Active; 'I' for Inactive)
REMARK    1  A    between atoms: C_9  and  O_10 
REMARK    2  A    between atoms: O_10  and  C_11 
REMARK    3  A    between atoms: C_11  and  C_12 
REMARK    4  A    between atoms: C_15  and  C_16 
REMARK       I    between atoms: C_16  and  N_17 
REMARK    5  A    between atoms: N_17  and  N_18 
REMARK    6  A    between atoms: C_19  and  N_20 
REMARK    7  A    between atoms: C_21  and  C_22 
ROOT
HETATM    1  C   UNL     1      -7.642   5.847 -31.124  1.00  0.00     0.270 C 
HETATM    2  N   UNL     1      -6.790   5.591 -30.063  1.00  0.00    -0.262 N 
HETATM    3  O   UNL     1      -7.993   6.965 -31.492  1.00  0.00    -0.266 OA
HETATM    4  H   UNL     1      -6.573   4.659 -29.722  1.00  0.00     0.190 HD
ENDROOT
BRANCH   2   5
HETATM    5  N   UNL     1      -6.157   6.636 -29.375  1.00  0.00    -0.270 N 
HETATM    6  C   UNL     1      -4.767   6.747 -29.390  1.00  0.00     0.113 C 
HETATM    7  C   UNL     1      -4.287   7.374 -28.296  1.00  0.00     0.097 C 
HETATM    8  C   UNL     1      -5.467   7.630 -27.435  1.00  0.00     0.186 C 
HETATM    9  O   UNL     1      -5.400   8.185 -26.344  1.00  0.00    -0.290 OA
HETATM   10  C   UNL     1      -6.717   7.081 -28.091  1.00  0.00     0.234 C 
BRANCH   6  11
HETATM   11  N   UNL     1      -4.021   6.255 -30.437  1.00  0.00    -0.286 NA
HETATM   12  H   UNL     1      -3.787   7.009 -31.077  1.00  0.00     0.125 HD
HETATM   13  H   UNL     1      -3.166   5.803 -30.087  1.00  0.00     0.125 HD
ENDBRANCH   6  11
BRANCH   7  14
HETATM   14  C   UNL     1      -2.949   7.699 -28.019  1.00  0.00     0.146 A 
HETATM   15  N   UNL     1      -2.362   8.871 -27.847  1.00  0.00    -0.228 NA
HETATM   16  C   UNL     1      -1.042   8.592 -27.574  1.00  0.00     0.086 A 
HETATM   17  C   UNL     1      -0.815   7.222 -27.572  1.00  0.00     0.062 A 
HETATM   18  C   UNL     1       0.026   9.462 -27.311  1.00  0.00     0.034 A 
HETATM   19  N   UNL     1      -2.039   6.678 -27.860  1.00  0.00    -0.338 N 
HETATM   20  C   UNL     1       0.431   6.648 -27.314  1.00  0.00     0.032 A 
HETATM   21  H   UNL     1      -2.255   5.690 -27.936  1.00  0.00     0.167 HD
HETATM   22  C   UNL     1       1.485   7.532 -27.051  1.00  0.00     0.002 A 
HETATM   23  C   UNL     1       1.289   8.915 -27.050  1.00  0.00     0.002 A 
ENDBRANCH   7  14
ENDBRANCH   2   5
BRANCH   1  24
HETATM   24  C   UNL     1      -8.198   4.647 -31.799  1.00  0.00     0.033 A 
HETATM   25  C   UNL     1      -9.030   3.797 -31.061  1.00  0.00     0.017 A 
HETATM   26  C   UNL     1      -9.572   2.656 -31.656  1.00  0.00     0.010 A 
HETATM   27  C   UNL     1      -9.298   2.354 -32.998  1.00  0.00    -0.034 A 
HETATM   28  C   UNL     1      -8.490   3.227 -33.741  1.00  0.00     0.010 A 
HETATM   29  C   UNL     1      -7.939   4.367 -33.147  1.00  0.00     0.017 A 
BRANCH  27  30
HETATM   30  C   UNL     1      -9.897   1.119 -33.629  1.00  0.00     0.214 C 
BRANCH  30  31
HETATM   31  O   UNL     1      -9.351  -0.026 -32.979  1.00  0.00    -0.347 OA
BRANCH  31  32
HETATM   32  C   UNL     1      -8.025  -0.288 -33.188  1.00  0.00     0.070 A 
HETATM   33  C   UNL     1      -7.461  -0.782 -34.362  1.00  0.00     0.037 A 
HETATM   34  C   UNL     1      -6.081  -0.997 -34.443  1.00  0.00     0.015 A 
HETATM   35  C   UNL     1      -5.243  -0.725 -33.350  1.00  0.00    -0.026 A 
HETATM   36  C   UNL     1      -3.857  -0.935 -33.418  1.00  0.00     0.012 A 
HETATM   37  C   UNL     1      -5.811  -0.231 -32.156  1.00  0.00    -0.023 A 
HETATM   38  C   UNL     1      -3.039  -0.661 -32.320  1.00  0.00     0.001 A 
HETATM   39  C   UNL     1      -3.599  -0.175 -31.142  1.00  0.00     0.001 A 
HETATM   40  C   UNL     1      -4.976   0.040 -31.060  1.00  0.00     0.012 A 
HETATM   41  C   UNL     1      -7.199  -0.019 -32.093  1.00  0.00     0.049 A 
ENDBRANCH  31  32
ENDBRANCH  30  31
ENDBRANCH  27  30
ENDBRANCH   1  24
TORSDOF 7
ENDMDL
MODEL 10
REMARK VINA RESULT:      -9.2      3.292      4.553
REMARK  7 active torsions:
REMARK  status: ('A' for Active; 'I' for Inactive)
REMARK    1  A    between atoms: C_9  and  O_10 
REMARK    2  A    between atoms: O_10  and  C_11 
REMARK    3  A    between atoms: C_11  and  C_12 
REMARK    4  A    between atoms: C_15  and  C_16 
REMARK       I    between atoms: C_16  and  N_17 
REMARK    5  A    between atoms: N_17  and  N_18 
REMARK    6  A    between atoms: C_19  and  N_20 
REMARK    7  A    between atoms: C_21  and  C_22 
ROOT
HETATM    1  C   UNL     1      -4.700   3.691 -31.653  1.00  0.00     0.270 C 
HETATM    2  N   UNL     1      -4.605   3.187 -32.939  1.00  0.00    -0.262 N 
HETATM    3  O   UNL     1      -5.626   3.470 -30.876  1.00  0.00    -0.266 OA
HETATM    4  H   UNL     1      -3.874   3.443 -33.596  1.00  0.00     0.190 HD
ENDROOT
BRANCH   2   5
HETATM    5  N   UNL     1      -5.542   2.264 -33.426  1.00  0.00    -0.270 N 
HETATM    6  C   UNL     1      -6.859   2.657 -33.661  1.00  0.00     0.113 C 
HETATM    7  C   UNL     1      -7.730   1.632 -33.558  1.00  0.00     0.097 C 
HETATM    8  C   UNL     1      -6.921   0.464 -33.134  1.00  0.00     0.186 C 
HETATM    9  O   UNL     1      -7.394  -0.649 -32.935  1.00  0.00    -0.290 OA
HETATM   10  C   UNL     1      -5.472   0.871 -32.963  1.00  0.00     0.234 C 
BRANCH   6  11
HETATM   11  N   UNL     1      -7.174   3.963 -33.965  1.00  0.00    -0.286 NA
HETATM   12  H   UNL     1      -8.115   4.010 -34.346  1.00  0.00     0.125 HD
HETATM   13  H   UNL     1      -7.095   4.554 -33.127  1.00  0.00     0.125 HD
ENDBRANCH   6  11
BRANCH   7  14
HETATM   14  C   UNL     1      -9.116   1.665 -33.786  1.00  0.00     0.146 A 
HETATM   15  N   UNL     1      -9.870   2.562 -34.399  1.00  0.00    -0.228 NA
HETATM   16  C   UNL     1     -11.153   2.067 -34.351  1.00  0.00     0.086 A 
HETATM   17  C   UNL     1     -11.188   0.839 -33.702  1.00  0.00     0.062 A 
HETATM   18  C   UNL     1     -12.346   2.611 -34.848  1.00  0.00     0.034 A 
HETATM   19  N   UNL     1      -9.884   0.609 -33.350  1.00  0.00    -0.338 N 
HETATM   20  C   UNL     1     -12.356   0.099 -33.515  1.00  0.00     0.032 A 
HETATM   21  H   UNL     1      -9.528  -0.205 -32.860  1.00  0.00     0.167 HD
HETATM   22  C   UNL     1     -13.538   0.657 -34.020  1.00  0.00     0.002 A 
HETATM   23  C   UNL     1     -13.536   1.891 -34.674  1.00  0.00     0.002 A 
ENDBRANCH   7  14
ENDBRANCH   2   5
BRANCH   1  24
HETATM   24  C   UNL     1      -3.610   4.615 -31.248  1.00  0.00     0.033 A 
HETATM   25  C   UNL     1      -2.298   4.293 -31.615  1.00  0.00     0.017 A 
HETATM   26  C   UNL     1      -1.243   5.132 -31.252  1.00  0.00     0.010 A 
HETATM   27  C   UNL     1      -1.485   6.307 -30.527  1.00  0.00    -0.034 A 
HETATM   28  C   UNL     1      -2.805   6.641 -30.190  1.00  0.00     0.010 A 
HETATM   29  C   UNL     1      -3.864   5.799 -30.545  1.00  0.00     0.017 A 
BRANCH  27  30
HETATM   30  C   UNL     1      -0.333   7.209 -30.147  1.00  0.00     0.214 C 
BRANCH  30  31
HETATM   31  O   UNL     1      -0.823   8.211 -29.260  1.00  0.00    -0.347 OA
BRANCH  31  32
HETATM   32  C   UNL     1      -0.078   8.474 -28.144  1.00  0.00     0.070 A 
HETATM   33  C   UNL     1       1.293   8.274 -28.006  1.00  0.00     0.037 A 
HETATM   34  C   UNL     1       1.934   8.597 -26.804  1.00  0.00     0.015 A 
HETATM   35  C   UNL     1       1.213   9.120 -25.720  1.00  0.00    -0.026 A 
HETATM   36  C   UNL     1       1.842   9.449 -24.509  1.00  0.00     0.012 A 
HETATM   37  C   UNL     1      -0.179   9.318 -25.853  1.00  0.00    -0.023 A 
HETATM   38  C   UNL     1       1.108   9.967 -23.441  1.00  0.00     0.001 A 
HETATM   39  C   UNL     1      -0.263  10.160 -23.570  1.00  0.00     0.001 A 
HETATM   40  C   UNL     1      -0.904   9.839 -24.768  1.00  0.00     0.012 A 
HETATM   41  C   UNL     1      -0.805   8.990 -27.067  1.00  0.00     0.049 A 
ENDBRANCH  31  32
ENDBRANCH  30  31
ENDBRANCH  27  30
ENDBRANCH   1  24
TORSDOF 7
ENDMDL
