MODEL 1
REMARK VINA RESULT:      -8.5      0.000      0.000
REMARK  5 active torsions:
REMARK  status: ('A' for Active; 'I' for Inactive)
REMARK    1  A    between atoms: C_2  and  C_3 
REMARK    2  A    between atoms: C_6  and  C_7 
REMARK    3  A    between atoms: C_7  and  C_8 
REMARK       I    between atoms: C_8  and  N_9 
REMARK    4  A    between atoms: N_9  and  C_10 
REMARK    5  A    between atoms: C_12  and  C_13 
ROOT
HETATM    1  C   UNL     1      -9.830   0.963 -34.080  1.00  0.00     0.226 C 
HETATM    2  N   UNL     1      -8.678   0.817 -34.835  1.00  0.00    -0.327 N 
HETATM    3  O   UNL     1     -10.003   0.526 -32.944  1.00  0.00    -0.273 OA
HETATM    4  H   UNL     1      -8.729   1.116 -35.802  1.00  0.00     0.169 HD
ENDROOT
BRANCH   2   5
HETATM    5  C   UNL     1      -7.468   0.205 -34.441  1.00  0.00     0.035 A 
HETATM    6  C   UNL     1      -7.155  -1.136 -34.691  1.00  0.00     0.042 A 
HETATM    7  C   UNL     1      -5.942  -1.701 -34.257  1.00  0.00    -0.021 A 
HETATM    8  C   UNL     1      -5.037  -0.885 -33.566  1.00  0.00     0.012 A 
HETATM    9  C   UNL     1      -5.341   0.452 -33.304  1.00  0.00     0.003 A 
HETATM   10  C   UNL     1      -6.553   0.991 -33.735  1.00  0.00     0.029 A 
BRANCH   7  11
HETATM   11  C   UNL     1      -5.626  -3.106 -34.500  1.00  0.00     0.010 A 
HETATM   12  C   UNL     1      -6.395  -4.144 -35.085  1.00  0.00     0.152 A 
HETATM   13  N   UNL     1      -5.748  -5.311 -35.137  1.00  0.00    -0.187 NA
HETATM   14  N   UNL     1      -4.557  -5.030 -34.587  1.00  0.00    -0.289 N 
HETATM   15  H   UNL     1      -3.871  -5.774 -34.516  1.00  0.00     0.188 HD
HETATM   16  C   UNL     1      -4.436  -3.731 -34.189  1.00  0.00     0.123 A 
ENDBRANCH   7  11
ENDBRANCH   2   5
BRANCH   1  17
HETATM   17  C   UNL     1     -10.909   1.819 -34.727  1.00  0.00     0.141 C 
BRANCH  17  18
HETATM   18  C   UNL     1     -12.242   1.884 -34.019  1.00  0.00    -0.049 A 
HETATM   19  C   UNL     1     -12.527   2.906 -33.105  1.00  0.00     0.008 A 
HETATM   20  C   UNL     1     -13.784   2.988 -32.497  1.00  0.00     0.007 A 
HETATM   21  C   UNL     1     -14.786   2.055 -32.789  1.00  0.00    -0.059 A 
HETATM   22  C   UNL     1     -14.500   1.043 -33.717  1.00  0.00     0.007 A 
HETATM   23  C   UNL     1     -13.243   0.956 -34.324  1.00  0.00     0.008 A 
BRANCH  21  24
HETATM   24  C   UNL     1     -16.185   2.135 -32.221  1.00  0.00     0.034 C 
HETATM   25  C   UNL     1     -16.758   3.535 -32.033  1.00  0.00     0.010 C 
ENDBRANCH  21  24
ENDBRANCH  17  18
ENDBRANCH   1  17
TORSDOF 5
ENDMDL
MODEL 2
REMARK VINA RESULT:      -8.4      2.548      9.028
REMARK  5 active torsions:
REMARK  status: ('A' for Active; 'I' for Inactive)
REMARK    1  A    between atoms: C_2  and  C_3 
REMARK    2  A    between atoms: C_6  and  C_7 
REMARK    3  A    between atoms: C_7  and  C_8 
REMARK       I    between atoms: C_8  and  N_9 
REMARK    4  A    between atoms: N_9  and  C_10 
REMARK    5  A    between atoms: C_12  and  C_13 
ROOT
HETATM    1  C   UNL     1      -8.421   0.362 -34.195  1.00  0.00     0.226 C 
HETATM    2  N   UNL     1      -9.065   1.535 -34.550  1.00  0.00    -0.327 N 
HETATM    3  O   UNL     1      -8.637  -0.297 -33.180  1.00  0.00    -0.273 OA
HETATM    4  H   UNL     1      -8.689   2.036 -35.347  1.00  0.00     0.169 HD
ENDROOT
BRANCH   2   5
HETATM    5  C   UNL     1     -10.125   2.169 -33.866  1.00  0.00     0.035 A 
HETATM    6  C   UNL     1     -11.464   1.771 -33.963  1.00  0.00     0.042 A 
HETATM    7  C   UNL     1     -12.485   2.453 -33.275  1.00  0.00    -0.021 A 
HETATM    8  C   UNL     1     -12.133   3.548 -32.476  1.00  0.00     0.012 A 
HETATM    9  C   UNL     1     -10.803   3.959 -32.378  1.00  0.00     0.003 A 
HETATM   10  C   UNL     1      -9.806   3.276 -33.074  1.00  0.00     0.029 A 
BRANCH   7  11
HETATM   11  C   UNL     1     -13.883   2.049 -33.393  1.00  0.00     0.010 A 
HETATM   12  C   UNL     1     -15.008   2.343 -32.581  1.00  0.00     0.152 A 
HETATM   13  N   UNL     1     -16.136   1.785 -33.027  1.00  0.00    -0.187 NA
HETATM   14  N   UNL     1     -15.745   1.131 -34.130  1.00  0.00    -0.289 N 
HETATM   15  H   UNL     1     -16.442   0.619 -34.661  1.00  0.00     0.188 HD
HETATM   16  C   UNL     1     -14.411   1.254 -34.391  1.00  0.00     0.123 A 
ENDBRANCH   7  11
ENDBRANCH   2   5
BRANCH   1  17
HETATM   17  C   UNL     1      -7.430  -0.156 -35.228  1.00  0.00     0.141 C 
BRANCH  17  18
HETATM   18  C   UNL     1      -6.364  -1.105 -34.734  1.00  0.00    -0.049 A 
HETATM   19  C   UNL     1      -5.318  -0.658 -33.918  1.00  0.00     0.008 A 
HETATM   20  C   UNL     1      -4.368  -1.557 -33.420  1.00  0.00     0.007 A 
HETATM   21  C   UNL     1      -4.442  -2.921 -33.723  1.00  0.00    -0.059 A 
HETATM   22  C   UNL     1      -5.501  -3.365 -34.529  1.00  0.00     0.007 A 
HETATM   23  C   UNL     1      -6.449  -2.470 -35.030  1.00  0.00     0.008 A 
BRANCH  21  24
HETATM   24  C   UNL     1      -3.489  -3.949 -33.156  1.00  0.00     0.034 C 
HETATM   25  C   UNL     1      -2.950  -3.671 -31.758  1.00  0.00     0.010 C 
ENDBRANCH  21  24
ENDBRANCH  17  18
ENDBRANCH   1  17
TORSDOF 5
ENDMDL
MODEL 3
REMARK VINA RESULT:      -8.3      6.149      9.781
REMARK  5 active torsions:
REMARK  status: ('A' for Active; 'I' for Inactive)
REMARK    1  A    between atoms: C_2  and  C_3 
REMARK    2  A    between atoms: C_6  and  C_7 
REMARK    3  A    between atoms: C_7  and  C_8 
REMARK       I    between atoms: C_8  and  N_9 
REMARK    4  A    between atoms: N_9  and  C_10 
REMARK    5  A    between atoms: C_12  and  C_13 
ROOT
HETATM    1  C   UNL     1      -3.822   2.014 -31.927  1.00  0.00     0.226 C 
HETATM    2  N   UNL     1      -3.766   3.196 -32.647  1.00  0.00    -0.327 N 
HETATM    3  O   UNL     1      -2.929   1.568 -31.209  1.00  0.00    -0.273 OA
HETATM    4  H   UNL     1      -4.525   3.367 -33.297  1.00  0.00     0.169 HD
ENDROOT
BRANCH   2   5
HETATM    5  C   UNL     1      -2.720   4.144 -32.656  1.00  0.00     0.035 A 
HETATM    6  C   UNL     1      -2.077   4.606 -31.501  1.00  0.00     0.042 A 
HETATM    7  C   UNL     1      -1.053   5.569 -31.566  1.00  0.00    -0.021 A 
HETATM    8  C   UNL     1      -0.678   6.059 -32.823  1.00  0.00     0.012 A 
HETATM    9  C   UNL     1      -1.316   5.611 -33.981  1.00  0.00     0.003 A 
HETATM   10  C   UNL     1      -2.335   4.662 -33.896  1.00  0.00     0.029 A 
BRANCH   7  11
HETATM   11  C   UNL     1      -0.399   6.067 -30.359  1.00  0.00     0.010 A 
HETATM   12  C   UNL     1      -0.376   7.360 -29.779  1.00  0.00     0.152 A 
HETATM   13  N   UNL     1       0.340   7.418 -28.654  1.00  0.00    -0.187 NA
HETATM   14  N   UNL     1       0.780   6.161 -28.501  1.00  0.00    -0.289 N 
HETATM   15  H   UNL     1       1.358   5.946 -27.695  1.00  0.00     0.188 HD
HETATM   16  C   UNL     1       0.371   5.318 -29.492  1.00  0.00     0.123 A 
ENDBRANCH   7  11
ENDBRANCH   2   5
BRANCH   1  17
HETATM   17  C   UNL     1      -5.158   1.289 -31.999  1.00  0.00     0.141 C 
BRANCH  17  18
HETATM   18  C   UNL     1      -5.224   0.069 -32.887  1.00  0.00    -0.049 A 
HETATM   19  C   UNL     1      -4.175  -0.859 -32.921  1.00  0.00     0.008 A 
HETATM   20  C   UNL     1      -4.271  -2.014 -33.705  1.00  0.00     0.007 A 
HETATM   21  C   UNL     1      -5.415  -2.270 -34.471  1.00  0.00    -0.059 A 
HETATM   22  C   UNL     1      -6.467  -1.345 -34.420  1.00  0.00     0.007 A 
HETATM   23  C   UNL     1      -6.374  -0.189 -33.641  1.00  0.00     0.008 A 
BRANCH  21  24
HETATM   24  C   UNL     1      -5.605  -3.535 -35.278  1.00  0.00     0.034 C 
HETATM   25  C   UNL     1      -6.783  -4.417 -34.882  1.00  0.00     0.010 C 
ENDBRANCH  21  24
ENDBRANCH  17  18
ENDBRANCH   1  17
TORSDOF 5
ENDMDL
MODEL 4
REMARK VINA RESULT:      -8.1      2.868      8.219
REMARK  5 active torsions:
REMARK  status: ('A' for Active; 'I' for Inactive)
REMARK    1  A    between atoms: C_2  and  C_3 
REMARK    2  A    between atoms: C_6  and  C_7 
REMARK    3  A    between atoms: C_7  and  C_8 
REMARK       I    between atoms: C_8  and  N_9 
REMARK    4  A    between atoms: N_9  and  C_10 
REMARK    5  A    between atoms: C_12  and  C_13 
ROOT
HETATM    1  C   UNL     1      -7.300   1.859 -32.725  1.00  0.00     0.226 C 
HETATM    2  N   UNL     1      -7.944   2.378 -33.835  1.00  0.00    -0.327 N 
HETATM    3  O   UNL     1      -7.802   1.697 -31.614  1.00  0.00    -0.273 OA
HETATM    4  H   UNL     1      -7.366   2.575 -34.644  1.00  0.00     0.169 HD
ENDROOT
BRANCH   2   5
HETATM    5  C   UNL     1      -9.299   2.760 -33.937  1.00  0.00     0.035 A 
HETATM    6  C   UNL     1     -10.370   1.859 -33.890  1.00  0.00     0.042 A 
HETATM    7  C   UNL     1     -11.702   2.293 -34.018  1.00  0.00    -0.021 A 
HETATM    8  C   UNL     1     -11.943   3.663 -34.189  1.00  0.00     0.012 A 
HETATM    9  C   UNL     1     -10.884   4.570 -34.243  1.00  0.00     0.003 A 
HETATM   10  C   UNL     1      -9.569   4.120 -34.124  1.00  0.00     0.029 A 
BRANCH   7  11
HETATM   11  C   UNL     1     -12.816   1.349 -33.991  1.00  0.00     0.010 A 
HETATM   12  C   UNL     1     -14.196   1.532 -34.257  1.00  0.00     0.152 A 
HETATM   13  N   UNL     1     -14.908   0.410 -34.130  1.00  0.00    -0.187 NA
HETATM   14  N   UNL     1     -13.989  -0.503 -33.784  1.00  0.00    -0.289 N 
HETATM   15  H   UNL     1     -14.292  -1.459 -33.631  1.00  0.00     0.188 HD
HETATM   16  C   UNL     1     -12.728   0.006 -33.685  1.00  0.00     0.123 A 
ENDBRANCH   7  11
ENDBRANCH   2   5
BRANCH   1  17
HETATM   17  C   UNL     1      -5.876   1.386 -32.980  1.00  0.00     0.141 C 
BRANCH  17  18
HETATM   18  C   UNL     1      -5.709  -0.021 -33.503  1.00  0.00    -0.049 A 
HETATM   19  C   UNL     1      -4.493  -0.702 -33.375  1.00  0.00     0.008 A 
HETATM   20  C   UNL     1      -4.366  -2.025 -33.812  1.00  0.00     0.007 A 
HETATM   21  C   UNL     1      -5.451  -2.698 -34.387  1.00  0.00    -0.059 A 
HETATM   22  C   UNL     1      -6.671  -2.016 -34.499  1.00  0.00     0.007 A 
HETATM   23  C   UNL     1      -6.800  -0.693 -34.065  1.00  0.00     0.008 A 
BRANCH  21  24
HETATM   24  C   UNL     1      -5.396  -4.149 -34.811  1.00  0.00     0.034 C 
HETATM   25  C   UNL     1      -6.645  -4.703 -35.486  1.00  0.00     0.010 C 
ENDBRANCH  21  24
ENDBRANCH  17  18
ENDBRANCH   1  17
TORSDOF 5
ENDMDL
MODEL 5
REMARK VINA RESULT:      -8.1      4.672      7.533
REMARK  5 active torsions:
REMARK  status: ('A' for Active; 'I' for Inactive)
REMARK    1  A    between atoms: C_2  and  C_3 
REMARK    2  A    between atoms: C_6  and  C_7 
REMARK    3  A    between atoms: C_7  and  C_8 
REMARK       I    between atoms: C_8  and  N_9 
REMARK    4  A    between atoms: N_9  and  C_10 
REMARK    5  A    between atoms: C_12  and  C_13 
ROOT
HETATM    1  C   UNL     1      -6.213   2.058 -31.372  1.00  0.00     0.226 C 
HETATM    2  N   UNL     1      -5.608   1.597 -32.529  1.00  0.00    -0.327 N 
HETATM    3  O   UNL     1      -7.311   1.705 -30.946  1.00  0.00    -0.273 OA
HETATM    4  H   UNL     1      -4.764   2.075 -32.822  1.00  0.00     0.169 HD
ENDROOT
BRANCH   2   5
HETATM    5  C   UNL     1      -6.089   0.600 -33.406  1.00  0.00     0.035 A 
HETATM    6  C   UNL     1      -5.591  -0.707 -33.449  1.00  0.00     0.042 A 
HETATM    7  C   UNL     1      -6.093  -1.656 -34.359  1.00  0.00    -0.021 A 
HETATM    8  C   UNL     1      -7.118  -1.265 -35.230  1.00  0.00     0.012 A 
HETATM    9  C   UNL     1      -7.618   0.037 -35.202  1.00  0.00     0.003 A 
HETATM   10  C   UNL     1      -7.102   0.966 -34.298  1.00  0.00     0.029 A 
BRANCH   7  11
HETATM   11  C   UNL     1      -5.557  -3.013 -34.417  1.00  0.00     0.010 A 
HETATM   12  C   UNL     1      -6.145  -4.227 -34.853  1.00  0.00     0.152 A 
HETATM   13  N   UNL     1      -5.322  -5.273 -34.755  1.00  0.00    -0.187 NA
HETATM   14  N   UNL     1      -4.197  -4.738 -34.257  1.00  0.00    -0.289 N 
HETATM   15  H   UNL     1      -3.404  -5.349 -34.093  1.00  0.00     0.188 HD
HETATM   16  C   UNL     1      -4.287  -3.395 -34.035  1.00  0.00     0.123 A 
ENDBRANCH   7  11
ENDBRANCH   2   5
BRANCH   1  17
HETATM   17  C   UNL     1      -5.363   3.019 -30.552  1.00  0.00     0.141 C 
BRANCH  17  18
HETATM   18  C   UNL     1      -4.378   3.876 -31.312  1.00  0.00    -0.049 A 
HETATM   19  C   UNL     1      -3.015   3.556 -31.342  1.00  0.00     0.008 A 
HETATM   20  C   UNL     1      -2.120   4.325 -32.095  1.00  0.00     0.007 A 
HETATM   21  C   UNL     1      -2.565   5.427 -32.835  1.00  0.00    -0.059 A 
HETATM   22  C   UNL     1      -3.933   5.732 -32.812  1.00  0.00     0.007 A 
HETATM   23  C   UNL     1      -4.829   4.968 -32.058  1.00  0.00     0.008 A 
BRANCH  21  24
HETATM   24  C   UNL     1      -1.659   6.249 -33.724  1.00  0.00     0.034 C 
HETATM   25  C   UNL     1      -1.081   5.538 -34.941  1.00  0.00     0.010 C 
ENDBRANCH  21  24
ENDBRANCH  17  18
ENDBRANCH   1  17
TORSDOF 5
ENDMDL
MODEL 6
REMARK VINA RESULT:      -7.9      5.781      9.637
REMARK  5 active torsions:
REMARK  status: ('A' for Active; 'I' for Inactive)
REMARK    1  A    between atoms: C_2  and  C_3 
REMARK    2  A    between atoms: C_6  and  C_7 
REMARK    3  A    between atoms: C_7  and  C_8 
REMARK       I    between atoms: C_8  and  N_9 
REMARK    4  A    between atoms: N_9  and  C_10 
REMARK    5  A    between atoms: C_12  and  C_13 
ROOT
HETATM    1  C   UNL     1      -3.143   3.356 -32.018  1.00  0.00     0.226 C 
HETATM    2  N   UNL     1      -4.382   3.125 -32.590  1.00  0.00    -0.327 N 
HETATM    3  O   UNL     1      -2.583   2.627 -31.201  1.00  0.00    -0.273 OA
HETATM    4  H   UNL     1      -4.773   3.879 -33.145  1.00  0.00     0.169 HD
ENDROOT
BRANCH   2   5
HETATM    5  C   UNL     1      -5.213   1.999 -32.407  1.00  0.00     0.035 A 
HETATM    6  C   UNL     1      -5.077   0.805 -33.125  1.00  0.00     0.042 A 
HETATM    7  C   UNL     1      -5.947  -0.282 -32.917  1.00  0.00    -0.021 A 
HETATM    8  C   UNL     1      -6.962  -0.147 -31.961  1.00  0.00     0.012 A 
HETATM    9  C   UNL     1      -7.112   1.040 -31.243  1.00  0.00     0.003 A 
HETATM   10  C   UNL     1      -6.245   2.109 -31.470  1.00  0.00     0.029 A 
BRANCH   7  11
HETATM   11  C   UNL     1      -5.817  -1.519 -33.682  1.00  0.00     0.010 A 
HETATM   12  C   UNL     1      -4.678  -2.303 -33.994  1.00  0.00     0.152 A 
HETATM   13  N   UNL     1      -4.969  -3.384 -34.722  1.00  0.00    -0.187 NA
HETATM   14  N   UNL     1      -6.298  -3.302 -34.882  1.00  0.00    -0.289 N 
HETATM   15  H   UNL     1      -6.767  -4.029 -35.411  1.00  0.00     0.188 HD
HETATM   16  C   UNL     1      -6.850  -2.207 -34.283  1.00  0.00     0.123 A 
ENDBRANCH   7  11
ENDBRANCH   2   5
BRANCH   1  17
HETATM   17  C   UNL     1      -2.419   4.587 -32.545  1.00  0.00     0.141 C 
BRANCH  17  18
HETATM   18  C   UNL     1      -1.584   5.363 -31.553  1.00  0.00    -0.049 A 
HETATM   19  C   UNL     1      -0.185   5.340 -31.611  1.00  0.00     0.008 A 
HETATM   20  C   UNL     1       0.578   6.107 -30.723  1.00  0.00     0.007 A 
HETATM   21  C   UNL     1      -0.038   6.913 -29.759  1.00  0.00    -0.059 A 
HETATM   22  C   UNL     1      -1.440   6.943 -29.716  1.00  0.00     0.007 A 
HETATM   23  C   UNL     1      -2.204   6.176 -30.600  1.00  0.00     0.008 A 
BRANCH  21  24
HETATM   24  C   UNL     1       0.730   7.818 -28.821  1.00  0.00     0.034 C 
HETATM   25  C   UNL     1       1.057   7.245 -27.447  1.00  0.00     0.010 C 
ENDBRANCH  21  24
ENDBRANCH  17  18
ENDBRANCH   1  17
TORSDOF 5
ENDMDL
MODEL 7
REMARK VINA RESULT:      -7.9      2.779      9.372
REMARK  5 active torsions:
REMARK  status: ('A' for Active; 'I' for Inactive)
REMARK    1  A    between atoms: C_2  and  C_3 
REMARK    2  A    between atoms: C_6  and  C_7 
REMARK    3  A    between atoms: C_7  and  C_8 
REMARK       I    between atoms: C_8  and  N_9 
REMARK    4  A    between atoms: N_9  and  C_10 
REMARK    5  A    between atoms: C_12  and  C_13 
ROOT
HETATM    1  C   UNL     1      -8.708   0.660 -34.313  1.00  0.00     0.226 C 
HETATM    2  N   UNL     1      -9.503   1.690 -34.784  1.00  0.00    -0.327 N 
HETATM    3  O   UNL     1      -8.989  -0.098 -33.387  1.00  0.00    -0.273 OA
HETATM    4  H   UNL     1      -9.083   2.313 -35.465  1.00  0.00     0.169 HD
ENDROOT
BRANCH   2   5
HETATM    5  C   UNL     1     -10.802   2.036 -34.351  1.00  0.00     0.035 A 
HETATM    6  C   UNL     1     -11.063   2.882 -33.267  1.00  0.00     0.042 A 
HETATM    7  C   UNL     1     -12.378   3.176 -32.864  1.00  0.00    -0.021 A 
HETATM    8  C   UNL     1     -13.438   2.605 -33.581  1.00  0.00     0.012 A 
HETATM    9  C   UNL     1     -13.190   1.755 -34.660  1.00  0.00     0.003 A 
HETATM   10  C   UNL     1     -11.879   1.467 -35.038  1.00  0.00     0.029 A 
BRANCH   7  11
HETATM   11  C   UNL     1     -12.648   4.042 -31.719  1.00  0.00     0.010 A 
HETATM   12  C   UNL     1     -13.749   4.087 -30.827  1.00  0.00     0.152 A 
HETATM   13  N   UNL     1     -13.626   5.031 -29.890  1.00  0.00    -0.187 NA
HETATM   14  N   UNL     1     -12.444   5.597 -30.173  1.00  0.00    -0.289 N 
HETATM   15  H   UNL     1     -12.120   6.357 -29.584  1.00  0.00     0.188 HD
HETATM   16  C   UNL     1     -11.823   5.046 -31.256  1.00  0.00     0.123 A 
ENDBRANCH   7  11
ENDBRANCH   2   5
BRANCH   1  17
HETATM   17  C   UNL     1      -7.424   0.438 -35.100  1.00  0.00     0.141 C 
BRANCH  17  18
HETATM   18  C   UNL     1      -6.505  -0.656 -34.609  1.00  0.00    -0.049 A 
HETATM   19  C   UNL     1      -6.612  -1.965 -35.095  1.00  0.00     0.008 A 
HETATM   20  C   UNL     1      -5.719  -2.957 -34.675  1.00  0.00     0.007 A 
HETATM   21  C   UNL     1      -4.699  -2.665 -33.762  1.00  0.00    -0.059 A 
HETATM   22  C   UNL     1      -4.587  -1.349 -33.290  1.00  0.00     0.007 A 
HETATM   23  C   UNL     1      -5.479  -0.357 -33.706  1.00  0.00     0.008 A 
BRANCH  21  24
HETATM   24  C   UNL     1      -3.662  -3.676 -33.328  1.00  0.00     0.034 C 
HETATM   25  C   UNL     1      -2.995  -3.423 -31.981  1.00  0.00     0.010 C 
ENDBRANCH  21  24
ENDBRANCH  17  18
ENDBRANCH   1  17
TORSDOF 5
ENDMDL
MODEL 8
REMARK VINA RESULT:      -7.6      6.567     10.422
REMARK  5 active torsions:
REMARK  status: ('A' for Active; 'I' for Inactive)
REMARK    1  A    between atoms: C_2  and  C_3 
REMARK    2  A    between atoms: C_6  and  C_7 
REMARK    3  A    between atoms: C_7  and  C_8 
REMARK       I    between atoms: C_8  and  N_9 
REMARK    4  A    between atoms: N_9  and  C_10 
REMARK    5  A    between atoms: C_12  and  C_13 
ROOT
HETATM    1  C   UNL     1      -2.052   5.017 -33.410  1.00  0.00     0.226 C 
HETATM    2  N   UNL     1      -2.905   4.551 -32.423  1.00  0.00    -0.327 N 
HETATM    3  O   UNL     1      -1.919   4.531 -34.531  1.00  0.00    -0.273 OA
HETATM    4  H   UNL     1      -2.810   4.972 -31.506  1.00  0.00     0.169 HD
ENDROOT
BRANCH   2   5
HETATM    5  C   UNL     1      -3.824   3.484 -32.521  1.00  0.00     0.035 A 
HETATM    6  C   UNL     1      -3.462   2.134 -32.452  1.00  0.00     0.042 A 
HETATM    7  C   UNL     1      -4.418   1.108 -32.576  1.00  0.00    -0.021 A 
HETATM    8  C   UNL     1      -5.758   1.468 -32.768  1.00  0.00     0.012 A 
HETATM    9  C   UNL     1      -6.131   2.810 -32.846  1.00  0.00     0.003 A 
HETATM   10  C   UNL     1      -5.167   3.812 -32.729  1.00  0.00     0.029 A 
BRANCH   7  11
HETATM   11  C   UNL     1      -4.035  -0.300 -32.525  1.00  0.00     0.010 A 
HETATM   12  C   UNL     1      -3.179  -0.999 -31.636  1.00  0.00     0.152 A 
HETATM   13  N   UNL     1      -3.084  -2.301 -31.916  1.00  0.00    -0.187 NA
HETATM   14  N   UNL     1      -3.880  -2.448 -32.985  1.00  0.00    -0.289 N 
HETATM   15  H   UNL     1      -3.978  -3.373 -33.390  1.00  0.00     0.188 HD
HETATM   16  C   UNL     1      -4.468  -1.285 -33.389  1.00  0.00     0.123 A 
ENDBRANCH   7  11
ENDBRANCH   2   5
BRANCH   1  17
HETATM   17  C   UNL     1      -1.303   6.293 -33.051  1.00  0.00     0.141 C 
BRANCH  17  18
HETATM   18  C   UNL     1      -0.761   6.391 -31.644  1.00  0.00    -0.049 A 
HETATM   19  C   UNL     1       0.121   5.427 -31.139  1.00  0.00     0.008 A 
HETATM   20  C   UNL     1       0.660   5.558 -29.855  1.00  0.00     0.007 A 
HETATM   21  C   UNL     1       0.334   6.654 -29.047  1.00  0.00    -0.059 A 
HETATM   22  C   UNL     1      -0.537   7.623 -29.564  1.00  0.00     0.007 A 
HETATM   23  C   UNL     1      -1.080   7.494 -30.846  1.00  0.00     0.008 A 
BRANCH  21  24
HETATM   24  C   UNL     1       0.942   6.887 -27.682  1.00  0.00     0.034 C 
HETATM   25  C   UNL     1       1.486   8.285 -27.415  1.00  0.00     0.010 C 
ENDBRANCH  21  24
ENDBRANCH  17  18
ENDBRANCH   1  17
TORSDOF 5
ENDMDL
MODEL 9
REMARK VINA RESULT:      -7.5     13.866     16.255
REMARK  5 active torsions:
REMARK  status: ('A' for Active; 'I' for Inactive)
REMARK    1  A    between atoms: C_2  and  C_3 
REMARK    2  A    between atoms: C_6  and  C_7 
REMARK    3  A    between atoms: C_7  and  C_8 
REMARK       I    between atoms: C_8  and  N_9 
REMARK    4  A    between atoms: N_9  and  C_10 
REMARK    5  A    between atoms: C_12  and  C_13 
ROOT
HETATM    1  C   UNL     1      -3.487 -13.241 -38.651  1.00  0.00     0.226 C 
HETATM    2  N   UNL     1      -2.437 -13.010 -37.779  1.00  0.00    -0.327 N 
HETATM    3  O   UNL     1      -3.799 -14.331 -39.126  1.00  0.00    -0.273 OA
HETATM    4  H   UNL     1      -2.221 -12.041 -37.576  1.00  0.00     0.169 HD
ENDROOT
BRANCH   2   5
HETATM    5  C   UNL     1      -1.564 -13.967 -37.219  1.00  0.00     0.035 A 
HETATM    6  C   UNL     1      -0.519 -14.578 -37.923  1.00  0.00     0.042 A 
HETATM    7  C   UNL     1       0.309 -15.542 -37.321  1.00  0.00    -0.021 A 
HETATM    8  C   UNL     1       0.071 -15.882 -35.983  1.00  0.00     0.012 A 
HETATM    9  C   UNL     1      -0.972 -15.286 -35.272  1.00  0.00     0.003 A 
HETATM   10  C   UNL     1      -1.788 -14.338 -35.889  1.00  0.00     0.029 A 
BRANCH   7  11
HETATM   11  C   UNL     1       1.384 -16.194 -38.064  1.00  0.00     0.010 A 
HETATM   12  C   UNL     1       2.168 -15.740 -39.155  1.00  0.00     0.152 A 
HETATM   13  N   UNL     1       3.069 -16.637 -39.562  1.00  0.00    -0.187 NA
HETATM   14  N   UNL     1       2.872 -17.673 -38.733  1.00  0.00    -0.289 N 
HETATM   15  H   UNL     1       3.455 -18.496 -38.843  1.00  0.00     0.188 HD
HETATM   16  C   UNL     1       1.878 -17.460 -37.824  1.00  0.00     0.123 A 
ENDBRANCH   7  11
ENDBRANCH   2   5
BRANCH   1  17
HETATM   17  C   UNL     1      -4.350 -12.021 -38.944  1.00  0.00     0.141 C 
BRANCH  17  18
HETATM   18  C   UNL     1      -5.821 -12.268 -39.180  1.00  0.00    -0.049 A 
HETATM   19  C   UNL     1      -6.687 -12.550 -38.116  1.00  0.00     0.008 A 
HETATM   20  C   UNL     1      -8.058 -12.721 -38.339  1.00  0.00     0.007 A 
HETATM   21  C   UNL     1      -8.595 -12.615 -39.628  1.00  0.00    -0.059 A 
HETATM   22  C   UNL     1      -7.725 -12.317 -40.686  1.00  0.00     0.007 A 
HETATM   23  C   UNL     1      -6.354 -12.148 -40.467  1.00  0.00     0.008 A 
BRANCH  21  24
HETATM   24  C   UNL     1     -10.075 -12.718 -39.920  1.00  0.00     0.034 C 
HETATM   25  C   UNL     1     -10.739 -11.469 -40.489  1.00  0.00     0.010 C 
ENDBRANCH  21  24
ENDBRANCH  17  18
ENDBRANCH   1  17
TORSDOF 5
ENDMDL
MODEL 10
REMARK VINA RESULT:      -7.5      3.251      9.061
REMARK  5 active torsions:
REMARK  status: ('A' for Active; 'I' for Inactive)
REMARK    1  A    between atoms: C_2  and  C_3 
REMARK    2  A    between atoms: C_6  and  C_7 
REMARK    3  A    between atoms: C_7  and  C_8 
REMARK       I    between atoms: C_8  and  N_9 
REMARK    4  A    between atoms: N_9  and  C_10 
REMARK    5  A    between atoms: C_12  and  C_13 
ROOT
HETATM    1  C   UNL     1      -8.539   1.840 -32.388  1.00  0.00     0.226 C 
HETATM    2  N   UNL     1      -8.806   2.116 -33.719  1.00  0.00    -0.327 N 
HETATM    3  O   UNL     1      -9.342   1.929 -31.462  1.00  0.00    -0.273 OA
HETATM    4  H   UNL     1      -8.011   2.125 -34.348  1.00  0.00     0.169 HD
ENDROOT
BRANCH   2   5
HETATM    5  C   UNL     1     -10.045   2.487 -34.284  1.00  0.00     0.035 A 
HETATM    6  C   UNL     1     -10.388   3.802 -34.616  1.00  0.00     0.042 A 
HETATM    7  C   UNL     1     -11.647   4.119 -35.158  1.00  0.00    -0.021 A 
HETATM    8  C   UNL     1     -12.562   3.080 -35.368  1.00  0.00     0.012 A 
HETATM    9  C   UNL     1     -12.235   1.765 -35.034  1.00  0.00     0.003 A 
HETATM   10  C   UNL     1     -10.985   1.471 -34.490  1.00  0.00     0.029 A 
BRANCH   7  11
HETATM   11  C   UNL     1     -12.011   5.495 -35.484  1.00  0.00     0.010 A 
HETATM   12  C   UNL     1     -11.240   6.685 -35.490  1.00  0.00     0.152 A 
HETATM   13  N   UNL     1     -11.939   7.762 -35.856  1.00  0.00    -0.187 NA
HETATM   14  N   UNL     1     -13.165   7.271 -36.091  1.00  0.00    -0.289 N 
HETATM   15  H   UNL     1     -13.891   7.911 -36.394  1.00  0.00     0.188 HD
HETATM   16  C   UNL     1     -13.261   5.927 -35.881  1.00  0.00     0.123 A 
ENDBRANCH   7  11
ENDBRANCH   2   5
BRANCH   1  17
HETATM   17  C   UNL     1      -7.140   1.302 -32.119  1.00  0.00     0.141 C 
BRANCH  17  18
HETATM   18  C   UNL     1      -6.687   0.132 -32.960  1.00  0.00    -0.049 A 
HETATM   19  C   UNL     1      -5.330  -0.190 -33.081  1.00  0.00     0.008 A 
HETATM   20  C   UNL     1      -4.926  -1.309 -33.817  1.00  0.00     0.007 A 
HETATM   21  C   UNL     1      -5.867  -2.133 -34.446  1.00  0.00    -0.059 A 
HETATM   22  C   UNL     1      -7.225  -1.815 -34.308  1.00  0.00     0.007 A 
HETATM   23  C   UNL     1      -7.632  -0.695 -33.576  1.00  0.00     0.008 A 
BRANCH  21  24
HETATM   24  C   UNL     1      -5.495  -3.395 -35.192  1.00  0.00     0.034 C 
HETATM   25  C   UNL     1      -6.535  -4.510 -35.192  1.00  0.00     0.010 C 
ENDBRANCH  21  24
ENDBRANCH  17  18
ENDBRANCH   1  17
TORSDOF 5
ENDMDL
