MODEL 1
REMARK VINA RESULT:      -8.6      0.000      0.000
REMARK  3 active torsions:
REMARK  status: ('A' for Active; 'I' for Inactive)
REMARK    1  A    between atoms: C_6  and  C_7 
REMARK       I    between atoms: C_7  and  N_8 
REMARK    2  A    between atoms: N_8  and  C_9 
REMARK    3  A    between atoms: N_12  and  C_13 
ROOT
HETATM    1  C   UNL     1      -5.483   3.059 -32.734  1.00  0.00     0.177 C 
HETATM    2  C   UNL     1      -4.010   3.422 -32.427  1.00  0.00     0.248 C 
HETATM    3  O   UNL     1      -3.122   2.743 -32.957  1.00  0.00    -0.271 OA
HETATM    4  N   UNL     1      -3.814   4.544 -31.604  1.00  0.00    -0.299 N 
HETATM    5  C   UNL     1      -4.811   4.894 -30.589  1.00  0.00     0.134 C 
HETATM    6  C   UNL     1      -6.249   4.633 -31.000  1.00  0.00     0.023 C 
HETATM    7  C   UNL     1      -6.377   3.214 -31.511  1.00  0.00     0.036 C 
ENDROOT
BRANCH   1   8
HETATM    8  N   UNL     1      -5.500   1.696 -33.262  1.00  0.00    -0.344 N 
HETATM    9  C   UNL     1      -5.659   0.582 -32.473  1.00  0.00     0.253 C 
HETATM   10  O   UNL     1      -5.695   0.611 -31.250  1.00  0.00    -0.268 OA
HETATM   11  H   UNL     1      -5.713   1.622 -34.255  1.00  0.00     0.163 HD
BRANCH   9  12
HETATM   12  C   UNL     1      -5.828  -0.701 -33.214  1.00  0.00     0.043 A 
HETATM   13  C   UNL     1      -7.102  -1.110 -33.671  1.00  0.00    -0.045 A 
HETATM   14  C   UNL     1      -7.220  -2.337 -34.347  1.00  0.00     0.014 A 
HETATM   15  C   UNL     1      -8.348  -0.291 -33.462  1.00  0.00     0.049 C 
HETATM   16  C   UNL     1      -6.102  -3.136 -34.601  1.00  0.00    -0.061 A 
HETATM   17  C   UNL     1      -6.233  -4.418 -35.370  1.00  0.00     0.048 C 
HETATM   18  C   UNL     1      -4.841  -2.697 -34.181  1.00  0.00     0.014 A 
HETATM   19  C   UNL     1      -4.688  -1.492 -33.476  1.00  0.00    -0.045 A 
HETATM   20  C   UNL     1      -3.306  -1.074 -33.049  1.00  0.00     0.049 C 
ENDBRANCH   9  12
ENDBRANCH   1   8
BRANCH   4  21
HETATM   21  C   UNL     1      -2.531   5.119 -31.534  1.00  0.00     0.154 A 
HETATM   22  N   UNL     1      -1.464   4.513 -31.005  1.00  0.00    -0.155 NA
HETATM   23  N   UNL     1      -0.462   5.393 -31.121  1.00  0.00    -0.283 N 
HETATM   24  C   UNL     1       0.841   5.061 -30.597  1.00  0.00     0.179 C 
HETATM   25  C   UNL     1      -0.814   6.533 -31.769  1.00  0.00     0.115 A 
HETATM   26  C   UNL     1      -2.150   6.388 -32.060  1.00  0.00     0.071 A 
ENDBRANCH   4  21
TORSDOF 3
ENDMDL
MODEL 2
REMARK VINA RESULT:      -8.6      0.066      1.745
REMARK  3 active torsions:
REMARK  status: ('A' for Active; 'I' for Inactive)
REMARK    1  A    between atoms: C_6  and  C_7 
REMARK       I    between atoms: C_7  and  N_8 
REMARK    2  A    between atoms: N_8  and  C_9 
REMARK    3  A    between atoms: N_12  and  C_13 
ROOT
HETATM    1  C   UNL     1      -5.453   3.066 -32.740  1.00  0.00     0.177 C 
HETATM    2  C   UNL     1      -3.987   3.431 -32.398  1.00  0.00     0.248 C 
HETATM    3  O   UNL     1      -3.086   2.748 -32.900  1.00  0.00    -0.271 OA
HETATM    4  N   UNL     1      -3.812   4.558 -31.577  1.00  0.00    -0.299 N 
HETATM    5  C   UNL     1      -4.835   4.915 -30.590  1.00  0.00     0.134 C 
HETATM    6  C   UNL     1      -6.262   4.651 -31.036  1.00  0.00     0.023 C 
HETATM    7  C   UNL     1      -6.377   3.229 -31.542  1.00  0.00     0.036 C 
ENDROOT
BRANCH   1   8
HETATM    8  N   UNL     1      -5.456   1.699 -33.260  1.00  0.00    -0.344 N 
HETATM    9  C   UNL     1      -5.657   0.592 -32.472  1.00  0.00     0.253 C 
HETATM   10  O   UNL     1      -5.746   0.629 -31.252  1.00  0.00    -0.268 OA
HETATM   11  H   UNL     1      -5.626   1.621 -34.261  1.00  0.00     0.163 HD
BRANCH   9  12
HETATM   12  C   UNL     1      -5.803  -0.695 -33.211  1.00  0.00     0.043 A 
HETATM   13  C   UNL     1      -4.685  -1.529 -33.438  1.00  0.00    -0.045 A 
HETATM   14  C   UNL     1      -4.863  -2.724 -34.156  1.00  0.00     0.014 A 
HETATM   15  C   UNL     1      -3.301  -1.193 -32.949  1.00  0.00     0.049 C 
HETATM   16  C   UNL     1      -6.124  -3.113 -34.617  1.00  0.00    -0.061 A 
HETATM   17  C   UNL     1      -6.309  -4.417 -35.336  1.00  0.00     0.048 C 
HETATM   18  C   UNL     1      -7.229  -2.299 -34.346  1.00  0.00     0.014 A 
HETATM   19  C   UNL     1      -7.085  -1.083 -33.659  1.00  0.00    -0.045 A 
HETATM   20  C   UNL     1      -8.311  -0.249 -33.398  1.00  0.00     0.049 C 
ENDBRANCH   9  12
ENDBRANCH   1   8
BRANCH   4  21
HETATM   21  C   UNL     1      -2.532   5.133 -31.478  1.00  0.00     0.154 A 
HETATM   22  N   UNL     1      -1.463   4.506 -30.977  1.00  0.00    -0.155 NA
HETATM   23  N   UNL     1      -0.464   5.394 -31.050  1.00  0.00    -0.283 N 
HETATM   24  C   UNL     1       0.839   5.042 -30.540  1.00  0.00     0.179 C 
HETATM   25  C   UNL     1      -0.819   6.563 -31.642  1.00  0.00     0.115 A 
HETATM   26  C   UNL     1      -2.154   6.428 -31.941  1.00  0.00     0.071 A 
ENDBRANCH   4  21
TORSDOF 3
ENDMDL
MODEL 3
REMARK VINA RESULT:      -8.6      2.905      5.125
REMARK  3 active torsions:
REMARK  status: ('A' for Active; 'I' for Inactive)
REMARK    1  A    between atoms: C_6  and  C_7 
REMARK       I    between atoms: C_7  and  N_8 
REMARK    2  A    between atoms: N_8  and  C_9 
REMARK    3  A    between atoms: N_12  and  C_13 
ROOT
HETATM    1  C   UNL     1      -5.716   2.966 -32.686  1.00  0.00     0.177 C 
HETATM    2  C   UNL     1      -6.986   3.619 -33.285  1.00  0.00     0.248 C 
HETATM    3  O   UNL     1      -7.846   2.876 -33.773  1.00  0.00    -0.271 OA
HETATM    4  N   UNL     1      -7.070   5.017 -33.166  1.00  0.00    -0.299 N 
HETATM    5  C   UNL     1      -5.851   5.828 -33.148  1.00  0.00     0.134 C 
HETATM    6  C   UNL     1      -4.675   5.186 -32.434  1.00  0.00     0.023 C 
HETATM    7  C   UNL     1      -4.464   3.785 -32.969  1.00  0.00     0.036 C 
ENDROOT
BRANCH   1   8
HETATM    8  N   UNL     1      -5.623   1.610 -33.223  1.00  0.00    -0.344 N 
HETATM    9  C   UNL     1      -5.841   0.482 -32.471  1.00  0.00     0.253 C 
HETATM   10  O   UNL     1      -6.028   0.493 -31.261  1.00  0.00    -0.268 OA
HETATM   11  H   UNL     1      -5.710   1.542 -34.236  1.00  0.00     0.163 HD
BRANCH   9  12
HETATM   12  C   UNL     1      -5.875  -0.797 -33.238  1.00  0.00     0.043 A 
HETATM   13  C   UNL     1      -4.703  -1.565 -33.414  1.00  0.00    -0.045 A 
HETATM   14  C   UNL     1      -4.776  -2.755 -34.161  1.00  0.00     0.014 A 
HETATM   15  C   UNL     1      -3.369  -1.166 -32.842  1.00  0.00     0.049 C 
HETATM   16  C   UNL     1      -5.986  -3.201 -34.698  1.00  0.00    -0.061 A 
HETATM   17  C   UNL     1      -6.060  -4.499 -35.448  1.00  0.00     0.048 C 
HETATM   18  C   UNL     1      -7.147  -2.452 -34.477  1.00  0.00     0.014 A 
HETATM   19  C   UNL     1      -7.107  -1.243 -33.763  1.00  0.00    -0.045 A 
HETATM   20  C   UNL     1      -8.390  -0.481 -33.559  1.00  0.00     0.049 C 
ENDBRANCH   9  12
ENDBRANCH   1   8
BRANCH   4  21
HETATM   21  C   UNL     1      -8.309   5.644 -33.396  1.00  0.00     0.154 A 
HETATM   22  N   UNL     1      -8.935   5.660 -34.578  1.00  0.00    -0.155 NA
HETATM   23  N   UNL     1     -10.057   6.362 -34.375  1.00  0.00    -0.283 N 
HETATM   24  C   UNL     1     -10.951   6.608 -35.480  1.00  0.00     0.179 C 
HETATM   25  C   UNL     1     -10.227   6.753 -33.085  1.00  0.00     0.115 A 
HETATM   26  C   UNL     1      -9.115   6.298 -32.418  1.00  0.00     0.071 A 
ENDBRANCH   4  21
TORSDOF 3
ENDMDL
MODEL 4
REMARK VINA RESULT:      -8.2      2.126      3.996
REMARK  3 active torsions:
REMARK  status: ('A' for Active; 'I' for Inactive)
REMARK    1  A    between atoms: C_6  and  C_7 
REMARK       I    between atoms: C_7  and  N_8 
REMARK    2  A    between atoms: N_8  and  C_9 
REMARK    3  A    between atoms: N_12  and  C_13 
ROOT
HETATM    1  C   UNL     1      -4.598   2.397 -31.908  1.00  0.00     0.177 C 
HETATM    2  C   UNL     1      -5.883   3.229 -32.142  1.00  0.00     0.248 C 
HETATM    3  O   UNL     1      -6.899   2.633 -32.519  1.00  0.00    -0.271 OA
HETATM    4  N   UNL     1      -5.788   4.600 -31.846  1.00  0.00    -0.299 N 
HETATM    5  C   UNL     1      -4.508   5.297 -31.994  1.00  0.00     0.134 C 
HETATM    6  C   UNL     1      -3.291   4.468 -31.627  1.00  0.00     0.023 C 
HETATM    7  C   UNL     1      -3.346   3.141 -32.355  1.00  0.00     0.036 C 
ENDROOT
BRANCH   1   8
HETATM    8  N   UNL     1      -4.763   1.125 -32.608  1.00  0.00    -0.344 N 
HETATM    9  C   UNL     1      -5.316   0.010 -32.027  1.00  0.00     0.253 C 
HETATM   10  O   UNL     1      -5.625  -0.063 -30.844  1.00  0.00    -0.268 OA
HETATM   11  H   UNL     1      -4.753   1.188 -33.625  1.00  0.00     0.163 HD
BRANCH   9  12
HETATM   12  C   UNL     1      -5.563  -1.133 -32.953  1.00  0.00     0.043 A 
HETATM   13  C   UNL     1      -6.801  -1.268 -33.621  1.00  0.00    -0.045 A 
HETATM   14  C   UNL     1      -6.999  -2.371 -34.470  1.00  0.00     0.014 A 
HETATM   15  C   UNL     1      -7.929  -0.284 -33.460  1.00  0.00     0.049 C 
HETATM   16  C   UNL     1      -5.987  -3.310 -34.688  1.00  0.00    -0.061 A 
HETATM   17  C   UNL     1      -6.193  -4.454 -35.637  1.00  0.00     0.048 C 
HETATM   18  C   UNL     1      -4.751  -3.138 -34.054  1.00  0.00     0.014 A 
HETATM   19  C   UNL     1      -4.527  -2.066 -33.175  1.00  0.00    -0.045 A 
HETATM   20  C   UNL     1      -3.176  -1.936 -32.523  1.00  0.00     0.049 C 
ENDBRANCH   9  12
ENDBRANCH   1   8
BRANCH   4  21
HETATM   21  C   UNL     1      -6.972   5.352 -31.732  1.00  0.00     0.154 A 
HETATM   22  N   UNL     1      -7.558   5.990 -32.750  1.00  0.00    -0.155 NA
HETATM   23  N   UNL     1      -8.633   6.588 -32.223  1.00  0.00    -0.283 N 
HETATM   24  C   UNL     1      -9.473   7.409 -33.060  1.00  0.00     0.179 C 
HETATM   25  C   UNL     1      -8.814   6.314 -30.905  1.00  0.00     0.115 A 
HETATM   26  C   UNL     1      -7.758   5.507 -30.553  1.00  0.00     0.071 A 
ENDBRANCH   4  21
TORSDOF 3
ENDMDL
MODEL 5
REMARK VINA RESULT:      -8.1      3.620      6.565
REMARK  3 active torsions:
REMARK  status: ('A' for Active; 'I' for Inactive)
REMARK    1  A    between atoms: C_6  and  C_7 
REMARK       I    between atoms: C_7  and  N_8 
REMARK    2  A    between atoms: N_8  and  C_9 
REMARK    3  A    between atoms: N_12  and  C_13 
ROOT
HETATM    1  C   UNL     1      -7.121   2.575 -33.093  1.00  0.00     0.177 C 
HETATM    2  C   UNL     1      -8.486   2.347 -33.788  1.00  0.00     0.248 C 
HETATM    3  O   UNL     1      -8.816   1.184 -34.050  1.00  0.00    -0.271 OA
HETATM    4  N   UNL     1      -9.261   3.498 -34.011  1.00  0.00    -0.299 N 
HETATM    5  C   UNL     1      -8.609   4.790 -34.235  1.00  0.00     0.134 C 
HETATM    6  C   UNL     1      -7.342   5.007 -33.427  1.00  0.00     0.023 C 
HETATM    7  C   UNL     1      -6.418   3.822 -33.612  1.00  0.00     0.036 C 
ENDROOT
BRANCH   1   8
HETATM    8  N   UNL     1      -6.320   1.368 -33.287  1.00  0.00    -0.344 N 
HETATM    9  C   UNL     1      -6.360   0.290 -32.436  1.00  0.00     0.253 C 
HETATM   10  O   UNL     1      -6.983   0.274 -31.382  1.00  0.00    -0.268 OA
HETATM   11  H   UNL     1      -5.981   1.225 -34.237  1.00  0.00     0.163 HD
BRANCH   9  12
HETATM   12  C   UNL     1      -5.609  -0.912 -32.899  1.00  0.00     0.043 A 
HETATM   13  C   UNL     1      -4.352  -1.238 -32.341  1.00  0.00    -0.045 A 
HETATM   14  C   UNL     1      -3.669  -2.370 -32.820  1.00  0.00     0.014 A 
HETATM   15  C   UNL     1      -3.702  -0.422 -31.256  1.00  0.00     0.049 C 
HETATM   16  C   UNL     1      -4.224  -3.189 -33.807  1.00  0.00    -0.061 A 
HETATM   17  C   UNL     1      -3.507  -4.423 -34.272  1.00  0.00     0.048 C 
HETATM   18  C   UNL     1      -5.489  -2.879 -34.317  1.00  0.00     0.014 A 
HETATM   19  C   UNL     1      -6.188  -1.739 -33.886  1.00  0.00    -0.045 A 
HETATM   20  C   UNL     1      -7.545  -1.458 -34.473  1.00  0.00     0.049 C 
ENDBRANCH   9  12
ENDBRANCH   1   8
BRANCH   4  21
HETATM   21  C   UNL     1     -10.620   3.346 -34.343  1.00  0.00     0.154 A 
HETATM   22  N   UNL     1     -11.526   2.764 -33.552  1.00  0.00    -0.155 NA
HETATM   23  N   UNL     1     -12.676   2.810 -34.236  1.00  0.00    -0.283 N 
HETATM   24  C   UNL     1     -13.864   2.215 -33.672  1.00  0.00     0.179 C 
HETATM   25  C   UNL     1     -12.576   3.462 -35.423  1.00  0.00     0.115 A 
HETATM   26  C   UNL     1     -11.256   3.832 -35.524  1.00  0.00     0.071 A 
ENDBRANCH   4  21
TORSDOF 3
ENDMDL
MODEL 6
REMARK VINA RESULT:      -8.1      2.637      3.615
REMARK  3 active torsions:
REMARK  status: ('A' for Active; 'I' for Inactive)
REMARK    1  A    between atoms: C_6  and  C_7 
REMARK       I    between atoms: C_7  and  N_8 
REMARK    2  A    between atoms: N_8  and  C_9 
REMARK    3  A    between atoms: N_12  and  C_13 
ROOT
HETATM    1  C   UNL     1      -7.266   3.442 -31.656  1.00  0.00     0.177 C 
HETATM    2  C   UNL     1      -6.287   3.884 -30.540  1.00  0.00     0.248 C 
HETATM    3  O   UNL     1      -5.196   3.305 -30.462  1.00  0.00    -0.271 OA
HETATM    4  N   UNL     1      -6.713   4.958 -29.741  1.00  0.00    -0.299 N 
HETATM    5  C   UNL     1      -8.142   5.168 -29.494  1.00  0.00     0.134 C 
HETATM    6  C   UNL     1      -9.042   4.837 -30.671  1.00  0.00     0.023 C 
HETATM    7  C   UNL     1      -8.713   3.451 -31.183  1.00  0.00     0.036 C 
ENDROOT
BRANCH   1   8
HETATM    8  N   UNL     1      -6.842   2.120 -32.115  1.00  0.00    -0.344 N 
HETATM    9  C   UNL     1      -6.266   1.894 -33.341  1.00  0.00     0.253 C 
HETATM   10  O   UNL     1      -6.147   2.750 -34.208  1.00  0.00    -0.268 OA
HETATM   11  H   UNL     1      -6.695   1.435 -31.375  1.00  0.00     0.163 HD
BRANCH   9  12
HETATM   12  C   UNL     1      -5.742   0.514 -33.552  1.00  0.00     0.043 A 
HETATM   13  C   UNL     1      -4.482   0.133 -33.037  1.00  0.00    -0.045 A 
HETATM   14  C   UNL     1      -4.017  -1.173 -33.277  1.00  0.00     0.014 A 
HETATM   15  C   UNL     1      -3.605   1.065 -32.245  1.00  0.00     0.049 C 
HETATM   16  C   UNL     1      -4.789  -2.100 -33.981  1.00  0.00    -0.061 A 
HETATM   17  C   UNL     1      -4.304  -3.506 -34.184  1.00  0.00     0.048 C 
HETATM   18  C   UNL     1      -6.053  -1.721 -34.446  1.00  0.00     0.014 A 
HETATM   19  C   UNL     1      -6.538  -0.417 -34.253  1.00  0.00    -0.045 A 
HETATM   20  C   UNL     1      -7.906  -0.069 -34.777  1.00  0.00     0.049 C 
ENDBRANCH   9  12
ENDBRANCH   1   8
BRANCH   4  21
HETATM   21  C   UNL     1      -5.771   5.614 -28.927  1.00  0.00     0.154 A 
HETATM   22  N   UNL     1      -4.779   6.380 -29.393  1.00  0.00    -0.155 NA
HETATM   23  N   UNL     1      -4.113   6.796 -28.309  1.00  0.00    -0.283 N 
HETATM   24  C   UNL     1      -2.938   7.618 -28.469  1.00  0.00     0.179 C 
HETATM   25  C   UNL     1      -4.669   6.385 -27.140  1.00  0.00     0.115 A 
HETATM   26  C   UNL     1      -5.753   5.622 -27.501  1.00  0.00     0.071 A 
ENDBRANCH   4  21
TORSDOF 3
ENDMDL
MODEL 7
REMARK VINA RESULT:      -8.0      2.624      3.265
REMARK  3 active torsions:
REMARK  status: ('A' for Active; 'I' for Inactive)
REMARK    1  A    between atoms: C_6  and  C_7 
REMARK       I    between atoms: C_7  and  N_8 
REMARK    2  A    between atoms: N_8  and  C_9 
REMARK    3  A    between atoms: N_12  and  C_13 
ROOT
HETATM    1  C   UNL     1      -7.387   3.442 -31.669  1.00  0.00     0.177 C 
HETATM    2  C   UNL     1      -6.377   3.883 -30.580  1.00  0.00     0.248 C 
HETATM    3  O   UNL     1      -5.281   3.311 -30.540  1.00  0.00    -0.271 OA
HETATM    4  N   UNL     1      -6.786   4.948 -29.760  1.00  0.00    -0.299 N 
HETATM    5  C   UNL     1      -8.208   5.146 -29.468  1.00  0.00     0.134 C 
HETATM    6  C   UNL     1      -9.141   4.818 -30.619  1.00  0.00     0.023 C 
HETATM    7  C   UNL     1      -8.819   3.438 -31.151  1.00  0.00     0.036 C 
ENDROOT
BRANCH   1   8
HETATM    8  N   UNL     1      -6.969   2.127 -32.150  1.00  0.00    -0.344 N 
HETATM    9  C   UNL     1      -6.298   1.933 -33.333  1.00  0.00     0.253 C 
HETATM   10  O   UNL     1      -6.079   2.821 -34.148  1.00  0.00    -0.268 OA
HETATM   11  H   UNL     1      -6.906   1.406 -31.433  1.00  0.00     0.163 HD
BRANCH   9  12
HETATM   12  C   UNL     1      -5.803   0.545 -33.563  1.00  0.00     0.043 A 
HETATM   13  C   UNL     1      -6.562  -0.377 -34.317  1.00  0.00    -0.045 A 
HETATM   14  C   UNL     1      -6.067  -1.682 -34.493  1.00  0.00     0.014 A 
HETATM   15  C   UNL     1      -7.887  -0.031 -34.941  1.00  0.00     0.049 C 
HETATM   16  C   UNL     1      -4.831  -2.067 -33.965  1.00  0.00    -0.061 A 
HETATM   17  C   UNL     1      -4.291  -3.446 -34.204  1.00  0.00     0.048 C 
HETATM   18  C   UNL     1      -4.071  -1.128 -33.258  1.00  0.00     0.014 A 
HETATM   19  C   UNL     1      -4.546   0.174 -33.036  1.00  0.00    -0.045 A 
HETATM   20  C   UNL     1      -3.683   1.138 -32.267  1.00  0.00     0.049 C 
ENDBRANCH   9  12
ENDBRANCH   1   8
BRANCH   4  21
HETATM   21  C   UNL     1      -5.824   5.604 -28.970  1.00  0.00     0.154 A 
HETATM   22  N   UNL     1      -4.838   6.362 -29.462  1.00  0.00    -0.155 NA
HETATM   23  N   UNL     1      -4.147   6.782 -28.395  1.00  0.00    -0.283 N 
HETATM   24  C   UNL     1      -2.972   7.597 -28.584  1.00  0.00     0.179 C 
HETATM   25  C   UNL     1      -4.681   6.382 -27.211  1.00  0.00     0.115 A 
HETATM   26  C   UNL     1      -5.776   5.621 -27.545  1.00  0.00     0.071 A 
ENDBRANCH   4  21
TORSDOF 3
ENDMDL
MODEL 8
REMARK VINA RESULT:      -8.0      4.226      6.703
REMARK  3 active torsions:
REMARK  status: ('A' for Active; 'I' for Inactive)
REMARK    1  A    between atoms: C_6  and  C_7 
REMARK       I    between atoms: C_7  and  N_8 
REMARK    2  A    between atoms: N_8  and  C_9 
REMARK    3  A    between atoms: N_12  and  C_13 
ROOT
HETATM    1  C   UNL     1      -9.671   1.096 -34.140  1.00  0.00     0.177 C 
HETATM    2  C   UNL     1      -9.637   2.633 -33.948  1.00  0.00     0.248 C 
HETATM    3  O   UNL     1      -8.535   3.176 -33.808  1.00  0.00    -0.271 OA
HETATM    4  N   UNL     1     -10.881   3.285 -34.007  1.00  0.00    -0.299 N 
HETATM    5  C   UNL     1     -12.097   2.588 -33.582  1.00  0.00     0.134 C 
HETATM    6  C   UNL     1     -12.125   1.107 -33.913  1.00  0.00     0.023 C 
HETATM    7  C   UNL     1     -10.850   0.456 -33.420  1.00  0.00     0.036 C 
ENDROOT
BRANCH   1   8
HETATM    8  N   UNL     1      -8.388   0.567 -33.680  1.00  0.00    -0.344 N 
HETATM    9  C   UNL     1      -7.290   0.434 -34.494  1.00  0.00     0.253 C 
HETATM   10  O   UNL     1      -7.304   0.643 -35.701  1.00  0.00    -0.268 OA
HETATM   11  H   UNL     1      -8.244   0.604 -32.672  1.00  0.00     0.163 HD
BRANCH   9  12
HETATM   12  C   UNL     1      -6.028   0.045 -33.800  1.00  0.00     0.043 A 
HETATM   13  C   UNL     1      -5.239   1.013 -33.139  1.00  0.00    -0.045 A 
HETATM   14  C   UNL     1      -4.047   0.606 -32.514  1.00  0.00     0.014 A 
HETATM   15  C   UNL     1      -5.613   2.470 -33.075  1.00  0.00     0.049 C 
HETATM   16  C   UNL     1      -3.651  -0.734 -32.510  1.00  0.00    -0.061 A 
HETATM   17  C   UNL     1      -2.403  -1.162 -31.794  1.00  0.00     0.048 C 
HETATM   18  C   UNL     1      -4.465  -1.687 -33.131  1.00  0.00     0.014 A 
HETATM   19  C   UNL     1      -5.647  -1.314 -33.791  1.00  0.00    -0.045 A 
HETATM   20  C   UNL     1      -6.481  -2.386 -34.442  1.00  0.00     0.049 C 
ENDBRANCH   9  12
ENDBRANCH   1   8
BRANCH   4  21
HETATM   21  C   UNL     1     -10.906   4.684 -34.155  1.00  0.00     0.154 A 
HETATM   22  N   UNL     1     -10.729   5.320 -35.318  1.00  0.00    -0.155 NA
HETATM   23  N   UNL     1     -10.811   6.624 -35.026  1.00  0.00    -0.283 N 
HETATM   24  C   UNL     1     -10.616   7.601 -36.069  1.00  0.00     0.179 C 
HETATM   25  C   UNL     1     -11.103   6.870 -33.722  1.00  0.00     0.115 A 
HETATM   26  C   UNL     1     -11.180   5.633 -33.127  1.00  0.00     0.071 A 
ENDBRANCH   4  21
TORSDOF 3
ENDMDL
MODEL 9
REMARK VINA RESULT:      -8.0      4.547      8.006
REMARK  3 active torsions:
REMARK  status: ('A' for Active; 'I' for Inactive)
REMARK    1  A    between atoms: C_6  and  C_7 
REMARK       I    between atoms: C_7  and  N_8 
REMARK    2  A    between atoms: N_8  and  C_9 
REMARK    3  A    between atoms: N_12  and  C_13 
ROOT
HETATM    1  C   UNL     1      -9.203   2.505 -33.210  1.00  0.00     0.177 C 
HETATM    2  C   UNL     1     -10.572   1.793 -33.336  1.00  0.00     0.248 C 
HETATM    3  O   UNL     1     -10.640   0.603 -33.004  1.00  0.00    -0.271 OA
HETATM    4  N   UNL     1     -11.642   2.594 -33.772  1.00  0.00    -0.299 N 
HETATM    5  C   UNL     1     -11.394   3.724 -34.670  1.00  0.00     0.134 C 
HETATM    6  C   UNL     1     -10.093   4.462 -34.413  1.00  0.00     0.023 C 
HETATM    7  C   UNL     1      -8.952   3.469 -34.361  1.00  0.00     0.036 C 
ENDROOT
BRANCH   1   8
HETATM    8  N   UNL     1      -8.175   1.469 -33.122  1.00  0.00    -0.344 N 
HETATM    9  C   UNL     1      -6.832   1.725 -33.252  1.00  0.00     0.253 C 
HETATM   10  O   UNL     1      -6.370   2.817 -33.559  1.00  0.00    -0.268 OA
HETATM   11  H   UNL     1      -8.463   0.617 -32.643  1.00  0.00     0.163 HD
BRANCH   9  12
HETATM   12  C   UNL     1      -5.933   0.572 -32.953  1.00  0.00     0.043 A 
HETATM   13  C   UNL     1      -5.845  -0.523 -33.842  1.00  0.00    -0.045 A 
HETATM   14  C   UNL     1      -5.000  -1.599 -33.512  1.00  0.00     0.014 A 
HETATM   15  C   UNL     1      -6.621  -0.599 -35.129  1.00  0.00     0.049 C 
HETATM   16  C   UNL     1      -4.230  -1.585 -32.346  1.00  0.00    -0.061 A 
HETATM   17  C   UNL     1      -3.293  -2.715 -32.033  1.00  0.00     0.048 C 
HETATM   18  C   UNL     1      -4.295  -0.473 -31.500  1.00  0.00     0.014 A 
HETATM   19  C   UNL     1      -5.150   0.605 -31.780  1.00  0.00    -0.045 A 
HETATM   20  C   UNL     1      -5.176   1.773 -30.830  1.00  0.00     0.049 C 
ENDBRANCH   9  12
ENDBRANCH   1   8
BRANCH   4  21
HETATM   21  C   UNL     1     -12.956   2.115 -33.615  1.00  0.00     0.154 A 
HETATM   22  N   UNL     1     -13.839   2.616 -32.745  1.00  0.00    -0.155 NA
HETATM   23  N   UNL     1     -14.946   1.880 -32.900  1.00  0.00    -0.283 N 
HETATM   24  C   UNL     1     -16.093   2.137 -32.064  1.00  0.00     0.179 C 
HETATM   25  C   UNL     1     -14.847   0.953 -33.888  1.00  0.00     0.115 A 
HETATM   26  C   UNL     1     -13.571   1.081 -34.380  1.00  0.00     0.071 A 
ENDBRANCH   4  21
TORSDOF 3
ENDMDL
MODEL 10
REMARK VINA RESULT:      -7.9      4.375      7.722
REMARK  3 active torsions:
REMARK  status: ('A' for Active; 'I' for Inactive)
REMARK    1  A    between atoms: C_6  and  C_7 
REMARK       I    between atoms: C_7  and  N_8 
REMARK    2  A    between atoms: N_8  and  C_9 
REMARK    3  A    between atoms: N_12  and  C_13 
ROOT
HETATM    1  C   UNL     1      -8.259   2.298 -33.470  1.00  0.00     0.177 C 
HETATM    2  C   UNL     1      -7.833   0.810 -33.520  1.00  0.00     0.248 C 
HETATM    3  O   UNL     1      -8.723  -0.047 -33.577  1.00  0.00    -0.271 OA
HETATM    4  N   UNL     1      -6.448   0.570 -33.554  1.00  0.00    -0.299 N 
HETATM    5  C   UNL     1      -5.525   1.505 -32.908  1.00  0.00     0.134 C 
HETATM    6  C   UNL     1      -5.933   2.964 -33.003  1.00  0.00     0.023 C 
HETATM    7  C   UNL     1      -7.368   3.117 -32.546  1.00  0.00     0.036 C 
ENDROOT
BRANCH   1   8
HETATM    8  N   UNL     1      -9.663   2.340 -33.065  1.00  0.00    -0.344 N 
HETATM    9  C   UNL     1     -10.580   3.208 -33.607  1.00  0.00     0.253 C 
HETATM   10  O   UNL     1     -10.294   4.097 -34.399  1.00  0.00    -0.268 OA
HETATM   11  H   UNL     1     -10.004   1.496 -32.608  1.00  0.00     0.163 HD
BRANCH   9  12
HETATM   12  C   UNL     1     -11.994   2.977 -33.194  1.00  0.00     0.043 A 
HETATM   13  C   UNL     1     -12.819   2.081 -33.910  1.00  0.00    -0.045 A 
HETATM   14  C   UNL     1     -14.152   1.907 -33.498  1.00  0.00     0.014 A 
HETATM   15  C   UNL     1     -12.338   1.302 -35.104  1.00  0.00     0.049 C 
HETATM   16  C   UNL     1     -14.660   2.577 -32.381  1.00  0.00    -0.061 A 
HETATM   17  C   UNL     1     -16.069   2.344 -31.921  1.00  0.00     0.048 C 
HETATM   18  C   UNL     1     -13.818   3.427 -31.656  1.00  0.00     0.014 A 
HETATM   19  C   UNL     1     -12.490   3.649 -32.055  1.00  0.00    -0.045 A 
HETATM   20  C   UNL     1     -11.633   4.576 -31.234  1.00  0.00     0.049 C 
ENDBRANCH   9  12
ENDBRANCH   1   8
BRANCH   4  21
HETATM   21  C   UNL     1      -5.991  -0.712 -33.912  1.00  0.00     0.154 A 
HETATM   22  N   UNL     1      -5.028  -1.374 -33.262  1.00  0.00    -0.155 NA
HETATM   23  N   UNL     1      -4.886  -2.531 -33.921  1.00  0.00    -0.283 N 
HETATM   24  C   UNL     1      -3.879  -3.473 -33.497  1.00  0.00     0.179 C 
HETATM   25  C   UNL     1      -5.767  -2.684 -34.944  1.00  0.00     0.115 A 
HETATM   26  C   UNL     1      -6.506  -1.525 -34.963  1.00  0.00     0.071 A 
ENDBRANCH   4  21
TORSDOF 3
ENDMDL
