MODEL 1
REMARK VINA RESULT:      -8.2      0.000      0.000
REMARK  2 active torsions:
REMARK  status: ('A' for Active; 'I' for Inactive)
REMARK    1  A    between atoms: C_9  and  N_10 
REMARK    2  A    between atoms: N_10  and  C_11 
ROOT
HETATM    1  C   UNL     1      -3.559  -0.621 -32.965  1.00  0.00     0.050 C 
HETATM    2  C   UNL     1      -4.909  -1.072 -33.428  1.00  0.00    -0.032 A 
HETATM    3  C   UNL     1      -6.155  -0.333 -33.229  1.00  0.00     0.053 A 
HETATM    4  C   UNL     1      -7.232  -1.058 -33.717  1.00  0.00     0.114 A 
HETATM    5  N   UNL     1      -8.528  -0.712 -33.677  1.00  0.00    -0.226 NA
HETATM    6  C   UNL     1      -8.737   0.464 -33.086  1.00  0.00     0.125 A 
HETATM    7  C   UNL     1     -10.152   0.944 -32.981  1.00  0.00     0.093 C 
HETATM    8  N   UNL     1      -7.789   1.269 -32.584  1.00  0.00    -0.215 NA
HETATM    9  C   UNL     1      -6.481   0.919 -32.642  1.00  0.00     0.143 A 
HETATM   10  S   UNL     1      -6.780  -2.527 -34.436  1.00  0.00    -0.074 SA
HETATM   11  C   UNL     1      -5.128  -2.270 -34.099  1.00  0.00    -0.012 A 
HETATM   12  C   UNL     1      -4.131  -3.304 -34.511  1.00  0.00     0.057 C 
ENDROOT
BRANCH   9  13
HETATM   13  N   UNL     1      -5.499   1.808 -32.175  1.00  0.00    -0.340 N 
HETATM   14  H   UNL     1      -5.072   1.514 -31.312  1.00  0.00     0.167 HD
BRANCH  13  15
HETATM   15  C   UNL     1      -4.873   2.911 -32.783  1.00  0.00     0.036 A 
HETATM   16  C   UNL     1      -3.551   3.289 -32.523  1.00  0.00     0.069 A 
HETATM   17  C   UNL     1      -2.981   4.395 -33.159  1.00  0.00     0.104 A 
HETATM   18  C   UNL     1      -3.739   5.165 -34.044  1.00  0.00     0.102 A 
HETATM   19  O   UNL     1      -1.669   4.671 -32.862  1.00  0.00    -0.346 OA
HETATM   20  O   UNL     1      -3.259   6.283 -34.674  1.00  0.00    -0.346 OA
HETATM   21  C   UNL     1      -5.050   4.799 -34.328  1.00  0.00     0.042 A 
HETATM   22  C   UNL     1      -2.051   6.746 -34.060  1.00  0.00     0.202 C 
HETATM   23  C   UNL     1      -1.102   5.588 -33.804  1.00  0.00     0.202 C 
HETATM   24  C   UNL     1      -5.609   3.680 -33.702  1.00  0.00     0.032 A 
ENDBRANCH  13  15
ENDBRANCH   9  13
TORSDOF 2
ENDMDL
MODEL 2
REMARK VINA RESULT:      -8.1      3.715      6.952
REMARK  2 active torsions:
REMARK  status: ('A' for Active; 'I' for Inactive)
REMARK    1  A    between atoms: C_9  and  N_10 
REMARK    2  A    between atoms: N_10  and  C_11 
ROOT
HETATM    1  C   UNL     1     -10.419   0.277 -33.187  1.00  0.00     0.050 C 
HETATM    2  C   UNL     1     -10.179   1.643 -33.751  1.00  0.00    -0.032 A 
HETATM    3  C   UNL     1      -8.925   2.385 -33.646  1.00  0.00     0.053 A 
HETATM    4  C   UNL     1      -9.057   3.644 -34.214  1.00  0.00     0.114 A 
HETATM    5  N   UNL     1      -8.128   4.609 -34.272  1.00  0.00    -0.226 NA
HETATM    6  C   UNL     1      -6.977   4.263 -33.698  1.00  0.00     0.125 A 
HETATM    7  C   UNL     1      -5.869   5.272 -33.700  1.00  0.00     0.093 C 
HETATM    8  N   UNL     1      -6.711   3.079 -33.125  1.00  0.00    -0.215 NA
HETATM    9  C   UNL     1      -7.651   2.103 -33.085  1.00  0.00     0.143 A 
HETATM   10  S   UNL     1     -10.587   3.913 -34.898  1.00  0.00    -0.074 SA
HETATM   11  C   UNL     1     -11.147   2.369 -34.436  1.00  0.00    -0.012 A 
HETATM   12  C   UNL     1     -12.548   1.972 -34.772  1.00  0.00     0.057 C 
ENDROOT
BRANCH   9  13
HETATM   13  N   UNL     1      -7.329   0.847 -32.545  1.00  0.00    -0.340 N 
HETATM   14  H   UNL     1      -7.827   0.638 -31.695  1.00  0.00     0.167 HD
BRANCH  13  15
HETATM   15  C   UNL     1      -6.604  -0.237 -33.070  1.00  0.00     0.036 A 
HETATM   16  C   UNL     1      -7.203  -1.394 -33.580  1.00  0.00     0.069 A 
HETATM   17  C   UNL     1      -6.429  -2.440 -34.090  1.00  0.00     0.104 A 
HETATM   18  C   UNL     1      -5.036  -2.359 -34.067  1.00  0.00     0.102 A 
HETATM   19  O   UNL     1      -7.108  -3.521 -34.595  1.00  0.00    -0.346 OA
HETATM   20  O   UNL     1      -4.213  -3.360 -34.515  1.00  0.00    -0.346 OA
HETATM   21  C   UNL     1      -4.419  -1.213 -33.579  1.00  0.00     0.042 A 
HETATM   22  C   UNL     1      -4.931  -4.591 -34.670  1.00  0.00     0.202 C 
HETATM   23  C   UNL     1      -6.251  -4.355 -35.383  1.00  0.00     0.202 C 
HETATM   24  C   UNL     1      -5.199  -0.162 -33.086  1.00  0.00     0.032 A 
ENDBRANCH  13  15
ENDBRANCH   9  13
TORSDOF 2
ENDMDL
MODEL 3
REMARK VINA RESULT:      -7.6      3.612      6.741
REMARK  2 active torsions:
REMARK  status: ('A' for Active; 'I' for Inactive)
REMARK    1  A    between atoms: C_9  and  N_10 
REMARK    2  A    between atoms: N_10  and  C_11 
ROOT
HETATM    1  C   UNL     1      -9.514   0.935 -34.314  1.00  0.00     0.050 C 
HETATM    2  C   UNL     1      -9.196   2.025 -33.338  1.00  0.00    -0.032 A 
HETATM    3  C   UNL     1      -7.851   2.393 -32.900  1.00  0.00     0.053 A 
HETATM    4  C   UNL     1      -7.909   3.394 -31.942  1.00  0.00     0.114 A 
HETATM    5  N   UNL     1      -6.880   3.957 -31.292  1.00  0.00    -0.226 NA
HETATM    6  C   UNL     1      -5.699   3.450 -31.645  1.00  0.00     0.125 A 
HETATM    7  C   UNL     1      -4.479   4.003 -30.974  1.00  0.00     0.093 C 
HETATM    8  N   UNL     1      -5.500   2.493 -32.563  1.00  0.00    -0.215 NA
HETATM    9  C   UNL     1      -6.544   1.941 -33.226  1.00  0.00     0.143 A 
HETATM   10  S   UNL     1      -9.490   3.918 -31.617  1.00  0.00    -0.074 SA
HETATM   11  C   UNL     1     -10.165   2.808 -32.722  1.00  0.00    -0.012 A 
HETATM   12  C   UNL     1     -11.649   2.768 -32.899  1.00  0.00     0.057 C 
ENDROOT
BRANCH   9  13
HETATM   13  N   UNL     1      -6.308   0.991 -34.234  1.00  0.00    -0.340 N 
HETATM   14  H   UNL     1      -6.306   1.384 -35.161  1.00  0.00     0.167 HD
BRANCH  13  15
HETATM   15  C   UNL     1      -5.881  -0.348 -34.174  1.00  0.00     0.036 A 
HETATM   16  C   UNL     1      -4.784  -0.776 -33.417  1.00  0.00     0.069 A 
HETATM   17  C   UNL     1      -4.408  -2.122 -33.395  1.00  0.00     0.104 A 
HETATM   18  C   UNL     1      -5.105  -3.059 -34.160  1.00  0.00     0.102 A 
HETATM   19  O   UNL     1      -3.337  -2.451 -32.602  1.00  0.00    -0.346 OA
HETATM   20  O   UNL     1      -4.770  -4.387 -34.217  1.00  0.00    -0.346 OA
HETATM   21  C   UNL     1      -6.207  -2.658 -34.907  1.00  0.00     0.042 A 
HETATM   22  C   UNL     1      -3.454  -4.613 -33.698  1.00  0.00     0.202 C 
HETATM   23  C   UNL     1      -3.258  -3.864 -32.390  1.00  0.00     0.202 C 
HETATM   24  C   UNL     1      -6.590  -1.313 -34.911  1.00  0.00     0.032 A 
ENDBRANCH  13  15
ENDBRANCH   9  13
TORSDOF 2
ENDMDL
MODEL 4
REMARK VINA RESULT:      -7.6      3.733      6.086
REMARK  2 active torsions:
REMARK  status: ('A' for Active; 'I' for Inactive)
REMARK    1  A    between atoms: C_9  and  N_10 
REMARK    2  A    between atoms: N_10  and  C_11 
ROOT
HETATM    1  C   UNL     1      -7.359  -1.910 -34.070  1.00  0.00     0.050 C 
HETATM    2  C   UNL     1      -6.146  -1.271 -33.470  1.00  0.00    -0.032 A 
HETATM    3  C   UNL     1      -6.163  -0.133 -32.553  1.00  0.00     0.053 A 
HETATM    4  C   UNL     1      -4.870   0.257 -32.238  1.00  0.00     0.114 A 
HETATM    5  N   UNL     1      -4.498   1.280 -31.455  1.00  0.00    -0.226 NA
HETATM    6  C   UNL     1      -5.531   1.962 -30.961  1.00  0.00     0.125 A 
HETATM    7  C   UNL     1      -5.229   3.133 -30.076  1.00  0.00     0.093 C 
HETATM    8  N   UNL     1      -6.827   1.686 -31.174  1.00  0.00    -0.215 NA
HETATM    9  C   UNL     1      -7.193   0.641 -31.954  1.00  0.00     0.143 A 
HETATM   10  S   UNL     1      -3.683  -0.723 -32.953  1.00  0.00    -0.074 SA
HETATM   11  C   UNL     1      -4.848  -1.691 -33.738  1.00  0.00    -0.012 A 
HETATM   12  C   UNL     1      -4.392  -2.819 -34.605  1.00  0.00     0.057 C 
ENDROOT
BRANCH   9  13
HETATM   13  N   UNL     1      -8.553   0.327 -32.106  1.00  0.00    -0.340 N 
HETATM   14  H   UNL     1      -8.882  -0.360 -31.447  1.00  0.00     0.167 HD
BRANCH  13  15
HETATM   15  C   UNL     1      -9.572   0.932 -32.864  1.00  0.00     0.036 A 
HETATM   16  C   UNL     1      -9.466   2.211 -33.422  1.00  0.00     0.069 A 
HETATM   17  C   UNL     1     -10.512   2.759 -34.168  1.00  0.00     0.104 A 
HETATM   18  C   UNL     1     -11.701   2.048 -34.340  1.00  0.00     0.102 A 
HETATM   19  O   UNL     1     -10.304   4.008 -34.699  1.00  0.00    -0.346 OA
HETATM   20  O   UNL     1     -12.782   2.537 -35.027  1.00  0.00    -0.346 OA
HETATM   21  C   UNL     1     -11.823   0.769 -33.808  1.00  0.00     0.042 A 
HETATM   22  C   UNL     1     -12.672   3.951 -35.228  1.00  0.00     0.202 C 
HETATM   23  C   UNL     1     -11.276   4.318 -35.703  1.00  0.00     0.202 C 
HETATM   24  C   UNL     1     -10.766   0.218 -33.077  1.00  0.00     0.032 A 
ENDBRANCH  13  15
ENDBRANCH   9  13
TORSDOF 2
ENDMDL
MODEL 5
REMARK VINA RESULT:      -7.5      3.766      6.772
REMARK  2 active torsions:
REMARK  status: ('A' for Active; 'I' for Inactive)
REMARK    1  A    between atoms: C_9  and  N_10 
REMARK    2  A    between atoms: N_10  and  C_11 
ROOT
HETATM    1  C   UNL     1      -5.244   3.054 -32.345  1.00  0.00     0.050 C 
HETATM    2  C   UNL     1      -6.522   3.624 -32.878  1.00  0.00    -0.032 A 
HETATM    3  C   UNL     1      -7.714   2.845 -33.210  1.00  0.00     0.053 A 
HETATM    4  C   UNL     1      -8.697   3.666 -33.743  1.00  0.00     0.114 A 
HETATM    5  N   UNL     1      -9.906   3.298 -34.191  1.00  0.00    -0.226 NA
HETATM    6  C   UNL     1     -10.124   1.987 -34.092  1.00  0.00     0.125 A 
HETATM    7  C   UNL     1     -11.445   1.466 -34.570  1.00  0.00     0.093 C 
HETATM    8  N   UNL     1      -9.268   1.086 -33.586  1.00  0.00    -0.215 NA
HETATM    9  C   UNL     1      -8.054   1.469 -33.122  1.00  0.00     0.143 A 
HETATM   10  S   UNL     1      -8.249   5.302 -33.793  1.00  0.00    -0.074 SA
HETATM   11  C   UNL     1      -6.710   4.978 -33.132  1.00  0.00    -0.012 A 
HETATM   12  C   UNL     1      -5.756   6.108 -32.920  1.00  0.00     0.057 C 
ENDROOT
BRANCH   9  13
HETATM   13  N   UNL     1      -7.202   0.521 -32.532  1.00  0.00    -0.340 N 
HETATM   14  H   UNL     1      -7.213   0.545 -31.525  1.00  0.00     0.167 HD
BRANCH  13  15
HETATM   15  C   UNL     1      -6.502  -0.571 -33.075  1.00  0.00     0.036 A 
HETATM   16  C   UNL     1      -7.125  -1.648 -33.717  1.00  0.00     0.069 A 
HETATM   17  C   UNL     1      -6.375  -2.705 -34.239  1.00  0.00     0.104 A 
HETATM   18  C   UNL     1      -4.986  -2.720 -34.097  1.00  0.00     0.102 A 
HETATM   19  O   UNL     1      -7.073  -3.702 -34.875  1.00  0.00    -0.346 OA
HETATM   20  O   UNL     1      -4.191  -3.740 -34.549  1.00  0.00    -0.346 OA
HETATM   21  C   UNL     1      -4.345  -1.654 -33.476  1.00  0.00     0.042 A 
HETATM   22  C   UNL     1      -4.966  -4.906 -34.852  1.00  0.00     0.202 C 
HETATM   23  C   UNL     1      -6.204  -4.535 -35.651  1.00  0.00     0.202 C 
HETATM   24  C   UNL     1      -5.099  -0.589 -32.972  1.00  0.00     0.032 A 
ENDBRANCH  13  15
ENDBRANCH   9  13
TORSDOF 2
ENDMDL
MODEL 6
REMARK VINA RESULT:      -7.4      3.800      7.254
REMARK  2 active torsions:
REMARK  status: ('A' for Active; 'I' for Inactive)
REMARK    1  A    between atoms: C_9  and  N_10 
REMARK    2  A    between atoms: N_10  and  C_11 
ROOT
HETATM    1  C   UNL     1      -9.302   1.432 -32.362  1.00  0.00     0.050 C 
HETATM    2  C   UNL     1      -8.477   2.490 -31.697  1.00  0.00    -0.032 A 
HETATM    3  C   UNL     1      -7.042   2.683 -31.897  1.00  0.00     0.053 A 
HETATM    4  C   UNL     1      -6.572   3.703 -31.082  1.00  0.00     0.114 A 
HETATM    5  N   UNL     1      -5.307   4.135 -30.971  1.00  0.00    -0.226 NA
HETATM    6  C   UNL     1      -4.456   3.467 -31.749  1.00  0.00     0.125 A 
HETATM    7  C   UNL     1      -3.013   3.865 -31.699  1.00  0.00     0.093 C 
HETATM    8  N   UNL     1      -4.778   2.473 -32.590  1.00  0.00    -0.215 NA
HETATM    9  C   UNL     1      -6.061   2.053 -32.707  1.00  0.00     0.143 A 
HETATM   10  S   UNL     1      -7.792   4.441 -30.162  1.00  0.00    -0.074 SA
HETATM   11  C   UNL     1      -8.995   3.409 -30.792  1.00  0.00    -0.012 A 
HETATM   12  C   UNL     1     -10.406   3.564 -30.324  1.00  0.00     0.057 C 
ENDROOT
BRANCH   9  13
HETATM   13  N   UNL     1      -6.387   1.059 -33.645  1.00  0.00    -0.340 N 
HETATM   14  H   UNL     1      -6.973   1.392 -34.393  1.00  0.00     0.167 HD
BRANCH  13  15
HETATM   15  C   UNL     1      -5.889  -0.242 -33.838  1.00  0.00     0.036 A 
HETATM   16  C   UNL     1      -6.653  -1.294 -34.355  1.00  0.00     0.069 A 
HETATM   17  C   UNL     1      -6.103  -2.567 -34.526  1.00  0.00     0.104 A 
HETATM   18  C   UNL     1      -4.782  -2.818 -34.148  1.00  0.00     0.102 A 
HETATM   19  O   UNL     1      -6.922  -3.527 -35.067  1.00  0.00    -0.346 OA
HETATM   20  O   UNL     1      -4.188  -4.049 -34.252  1.00  0.00    -0.346 OA
HETATM   21  C   UNL     1      -3.999  -1.784 -33.647  1.00  0.00     0.042 A 
HETATM   22  C   UNL     1      -5.162  -5.080 -34.450  1.00  0.00     0.202 C 
HETATM   23  C   UNL     1      -6.174  -4.666 -35.505  1.00  0.00     0.202 C 
HETATM   24  C   UNL     1      -4.550  -0.508 -33.495  1.00  0.00     0.032 A 
ENDBRANCH  13  15
ENDBRANCH   9  13
TORSDOF 2
ENDMDL
MODEL 7
REMARK VINA RESULT:      -7.3     16.210     17.777
REMARK  2 active torsions:
REMARK  status: ('A' for Active; 'I' for Inactive)
REMARK    1  A    between atoms: C_9  and  N_10 
REMARK    2  A    between atoms: N_10  and  C_11 
ROOT
HETATM    1  C   UNL     1      -4.923 -12.186 -39.693  1.00  0.00     0.050 C 
HETATM    2  C   UNL     1      -4.522 -12.907 -38.444  1.00  0.00    -0.032 A 
HETATM    3  C   UNL     1      -5.427 -13.262 -37.352  1.00  0.00     0.053 A 
HETATM    4  C   UNL     1      -4.726 -13.862 -36.316  1.00  0.00     0.114 A 
HETATM    5  N   UNL     1      -5.219 -14.288 -35.143  1.00  0.00    -0.226 NA
HETATM    6  C   UNL     1      -6.528 -14.076 -35.018  1.00  0.00     0.125 A 
HETATM    7  C   UNL     1      -7.181 -14.509 -33.741  1.00  0.00     0.093 C 
HETATM    8  N   UNL     1      -7.324 -13.520 -35.944  1.00  0.00    -0.215 NA
HETATM    9  C   UNL     1      -6.821 -13.107 -37.132  1.00  0.00     0.143 A 
HETATM   10  S   UNL     1      -3.073 -14.052 -36.648  1.00  0.00    -0.074 SA
HETATM   11  C   UNL     1      -3.219 -13.313 -38.178  1.00  0.00    -0.012 A 
HETATM   12  C   UNL     1      -2.001 -13.159 -39.032  1.00  0.00     0.057 C 
ENDROOT
BRANCH   9  13
HETATM   13  N   UNL     1      -7.684 -12.593 -38.114  1.00  0.00    -0.340 N 
HETATM   14  H   UNL     1      -7.454 -11.655 -38.398  1.00  0.00     0.167 HD
BRANCH  13  15
HETATM   15  C   UNL     1      -8.672 -13.208 -38.905  1.00  0.00     0.036 A 
HETATM   16  C   UNL     1      -8.730 -14.588 -39.133  1.00  0.00     0.069 A 
HETATM   17  C   UNL     1      -9.737 -15.142 -39.928  1.00  0.00     0.104 A 
HETATM   18  C   UNL     1     -10.685 -14.319 -40.538  1.00  0.00     0.102 A 
HETATM   19  O   UNL     1      -9.729 -16.508 -40.071  1.00  0.00    -0.346 OA
HETATM   20  O   UNL     1     -11.677 -14.788 -41.359  1.00  0.00    -0.346 OA
HETATM   21  C   UNL     1     -10.655 -12.947 -40.313  1.00  0.00     0.042 A 
HETATM   22  C   UNL     1     -11.409 -16.131 -41.782  1.00  0.00     0.202 C 
HETATM   23  C   UNL     1     -10.969 -16.985 -40.605  1.00  0.00     0.202 C 
HETATM   24  C   UNL     1      -9.656 -12.399 -39.502  1.00  0.00     0.032 A 
ENDBRANCH  13  15
ENDBRANCH   9  13
TORSDOF 2
ENDMDL
MODEL 8
REMARK VINA RESULT:      -7.2      3.732      6.318
REMARK  2 active torsions:
REMARK  status: ('A' for Active; 'I' for Inactive)
REMARK    1  A    between atoms: C_9  and  N_10 
REMARK    2  A    between atoms: N_10  and  C_11 
ROOT
HETATM    1  C   UNL     1      -6.318  -1.706 -34.757  1.00  0.00     0.050 C 
HETATM    2  C   UNL     1      -5.267  -1.253 -33.792  1.00  0.00    -0.032 A 
HETATM    3  C   UNL     1      -5.151   0.099 -33.251  1.00  0.00     0.053 A 
HETATM    4  C   UNL     1      -4.031   0.203 -32.440  1.00  0.00     0.114 A 
HETATM    5  N   UNL     1      -3.589   1.298 -31.802  1.00  0.00    -0.226 NA
HETATM    6  C   UNL     1      -4.349   2.371 -32.017  1.00  0.00     0.125 A 
HETATM    7  C   UNL     1      -3.942   3.652 -31.356  1.00  0.00     0.093 C 
HETATM    8  N   UNL     1      -5.462   2.406 -32.766  1.00  0.00    -0.215 NA
HETATM    9  C   UNL     1      -5.910   1.292 -33.394  1.00  0.00     0.143 A 
HETATM   10  S   UNL     1      -3.183  -1.258 -32.278  1.00  0.00    -0.074 SA
HETATM   11  C   UNL     1      -4.262  -2.084 -33.310  1.00  0.00    -0.012 A 
HETATM   12  C   UNL     1      -4.028  -3.532 -33.599  1.00  0.00     0.057 C 
ENDROOT
BRANCH   9  13
HETATM   13  N   UNL     1      -7.115   1.334 -34.114  1.00  0.00    -0.340 N 
HETATM   14  H   UNL     1      -7.064   0.869 -35.006  1.00  0.00     0.167 HD
BRANCH  13  15
HETATM   15  C   UNL     1      -8.414   1.723 -33.740  1.00  0.00     0.036 A 
HETATM   16  C   UNL     1      -9.574   1.093 -34.204  1.00  0.00     0.069 A 
HETATM   17  C   UNL     1     -10.838   1.523 -33.796  1.00  0.00     0.104 A 
HETATM   18  C   UNL     1     -10.965   2.618 -32.939  1.00  0.00     0.102 A 
HETATM   19  O   UNL     1     -11.916   0.825 -34.282  1.00  0.00    -0.346 OA
HETATM   20  O   UNL     1     -12.173   3.119 -32.526  1.00  0.00    -0.346 OA
HETATM   21  C   UNL     1      -9.826   3.250 -32.453  1.00  0.00     0.042 A 
HETATM   22  C   UNL     1     -13.244   2.622 -33.337  1.00  0.00     0.202 C 
HETATM   23  C   UNL     1     -13.108   1.124 -33.547  1.00  0.00     0.202 C 
HETATM   24  C   UNL     1      -8.562   2.803 -32.851  1.00  0.00     0.032 A 
ENDBRANCH  13  15
ENDBRANCH   9  13
TORSDOF 2
ENDMDL
MODEL 9
REMARK VINA RESULT:      -7.2     16.053     17.052
REMARK  2 active torsions:
REMARK  status: ('A' for Active; 'I' for Inactive)
REMARK    1  A    between atoms: C_9  and  N_10 
REMARK    2  A    between atoms: N_10  and  C_11 
ROOT
HETATM    1  C   UNL     1      -5.210 -12.159 -40.136  1.00  0.00     0.050 C 
HETATM    2  C   UNL     1      -6.083 -12.643 -39.019  1.00  0.00    -0.032 A 
HETATM    3  C   UNL     1      -5.605 -13.076 -37.708  1.00  0.00     0.053 A 
HETATM    4  C   UNL     1      -6.662 -13.529 -36.931  1.00  0.00     0.114 A 
HETATM    5  N   UNL     1      -6.599 -14.031 -35.689  1.00  0.00    -0.226 NA
HETATM    6  C   UNL     1      -5.358 -14.081 -35.208  1.00  0.00     0.125 A 
HETATM    7  C   UNL     1      -5.172 -14.633 -33.827  1.00  0.00     0.093 C 
HETATM    8  N   UNL     1      -4.252 -13.668 -35.845  1.00  0.00    -0.215 NA
HETATM    9  C   UNL     1      -4.327 -13.147 -37.093  1.00  0.00     0.143 A 
HETATM   10  S   UNL     1      -8.167 -13.389 -37.702  1.00  0.00    -0.074 SA
HETATM   11  C   UNL     1      -7.466 -12.747 -39.119  1.00  0.00    -0.012 A 
HETATM   12  C   UNL     1      -8.348 -12.397 -40.274  1.00  0.00     0.057 C 
ENDROOT
BRANCH   9  13
HETATM   13  N   UNL     1      -3.167 -12.654 -37.714  1.00  0.00    -0.340 N 
HETATM   14  H   UNL     1      -3.045 -11.661 -37.604  1.00  0.00     0.167 HD
BRANCH  13  15
HETATM   15  C   UNL     1      -2.059 -13.312 -38.278  1.00  0.00     0.036 A 
HETATM   16  C   UNL     1      -1.137 -14.054 -37.532  1.00  0.00     0.069 A 
HETATM   17  C   UNL     1      -0.055 -14.687 -38.150  1.00  0.00     0.104 A 
HETATM   18  C   UNL     1       0.142 -14.559 -39.526  1.00  0.00     0.102 A 
HETATM   19  O   UNL     1       0.779 -15.416 -37.339  1.00  0.00    -0.346 OA
HETATM   20  O   UNL     1       1.200 -15.120 -40.193  1.00  0.00    -0.346 OA
HETATM   21  C   UNL     1      -0.770 -13.839 -40.289  1.00  0.00     0.042 A 
HETATM   22  C   UNL     1       2.226 -15.534 -39.283  1.00  0.00     0.202 C 
HETATM   23  C   UNL     1       1.628 -16.280 -38.103  1.00  0.00     0.202 C 
HETATM   24  C   UNL     1      -1.860 -13.222 -39.668  1.00  0.00     0.032 A 
ENDBRANCH  13  15
ENDBRANCH   9  13
TORSDOF 2
ENDMDL
MODEL 10
REMARK VINA RESULT:      -7.1      4.450      6.764
REMARK  2 active torsions:
REMARK  status: ('A' for Active; 'I' for Inactive)
REMARK    1  A    between atoms: C_9  and  N_10 
REMARK    2  A    between atoms: N_10  and  C_11 
ROOT
HETATM    1  C   UNL     1      -9.231   4.819 -34.100  1.00  0.00     0.050 C 
HETATM    2  C   UNL     1     -10.553   4.425 -33.516  1.00  0.00    -0.032 A 
HETATM    3  C   UNL     1     -11.174   3.110 -33.658  1.00  0.00     0.053 A 
HETATM    4  C   UNL     1     -12.424   3.097 -33.057  1.00  0.00     0.114 A 
HETATM    5  N   UNL     1     -13.294   2.077 -33.017  1.00  0.00    -0.226 NA
HETATM    6  C   UNL     1     -12.854   0.989 -33.646  1.00  0.00     0.125 A 
HETATM    7  C   UNL     1     -13.752  -0.211 -33.668  1.00  0.00     0.093 C 
HETATM    8  N   UNL     1     -11.665   0.862 -34.256  1.00  0.00    -0.215 NA
HETATM    9  C   UNL     1     -10.786   1.893 -34.278  1.00  0.00     0.143 A 
HETATM   10  S   UNL     1     -12.820   4.565 -32.303  1.00  0.00    -0.074 SA
HETATM   11  C   UNL     1     -11.350   5.290 -32.775  1.00  0.00    -0.012 A 
HETATM   12  C   UNL     1     -11.081   6.709 -32.390  1.00  0.00     0.057 C 
ENDROOT
BRANCH   9  13
HETATM   13  N   UNL     1      -9.519   1.716 -34.859  1.00  0.00    -0.340 N 
HETATM   14  H   UNL     1      -9.353   2.321 -35.647  1.00  0.00     0.167 HD
BRANCH  13  15
HETATM   15  C   UNL     1      -8.385   1.005 -34.428  1.00  0.00     0.036 A 
HETATM   16  C   UNL     1      -7.728   1.257 -33.218  1.00  0.00     0.069 A 
HETATM   17  C   UNL     1      -6.605   0.515 -32.842  1.00  0.00     0.104 A 
HETATM   18  C   UNL     1      -6.097  -0.470 -33.690  1.00  0.00     0.102 A 
HETATM   19  O   UNL     1      -6.046   0.815 -31.624  1.00  0.00    -0.346 OA
HETATM   20  O   UNL     1      -4.979  -1.210 -33.405  1.00  0.00    -0.346 OA
HETATM   21  C   UNL     1      -6.742  -0.747 -34.890  1.00  0.00     0.042 A 
HETATM   22  C   UNL     1      -4.224  -0.619 -32.340  1.00  0.00     0.202 C 
HETATM   23  C   UNL     1      -5.140  -0.208 -31.199  1.00  0.00     0.202 C 
HETATM   24  C   UNL     1      -7.877  -0.015 -35.253  1.00  0.00     0.032 A 
ENDBRANCH  13  15
ENDBRANCH   9  13
TORSDOF 2
ENDMDL
