MODEL 1
REMARK VINA RESULT:      -8.7      0.000      0.000
REMARK  9 active torsions:
REMARK  status: ('A' for Active; 'I' for Inactive)
REMARK    1  A    between atoms: C_7  and  O_8 
REMARK    2  A    between atoms: O_8  and  C_9 
REMARK    3  A    between atoms: C_9  and  C_10 
REMARK    4  A    between atoms: C_10  and  O_11 
REMARK    5  A    between atoms: C_10  and  C_12 
REMARK    6  A    between atoms: C_12  and  N_13 
REMARK    7  A    between atoms: N_18  and  C_19 
REMARK    8  A    between atoms: C_19  and  C_20 
REMARK    9  A    between atoms: C_20  and  N_21 
ROOT
HETATM    1  N   UNL     1      -6.495   0.195 -31.164  1.00  0.00    -0.179 N 
HETATM    2  C   UNL     1      -7.732   0.706 -31.508  1.00  0.00     0.681 A 
HETATM    3  N   UNL     1      -8.438   1.525 -30.729  1.00  0.00    -0.234 N 
HETATM    4  H   UNL     1      -9.293   1.987 -30.986  1.00  0.00     0.174 HD
HETATM    5  H   UNL     1      -8.122   1.637 -29.756  1.00  0.00     0.174 HD
HETATM    6  N   UNL     1      -8.171   0.283 -32.761  1.00  0.00    -0.180 N 
HETATM    7  C   UNL     1      -7.105  -0.531 -33.254  1.00  0.00     0.079 A 
HETATM    8  C   UNL     1      -6.094  -0.593 -32.279  1.00  0.00     0.079 A 
HETATM    9  C   UNL     1      -6.990  -1.184 -34.464  1.00  0.00     0.032 A 
HETATM   10  C   UNL     1      -5.822  -1.922 -34.682  1.00  0.00     0.002 A 
HETATM   11  C   UNL     1      -4.810  -1.988 -33.704  1.00  0.00     0.002 A 
HETATM   12  C   UNL     1      -4.938  -1.316 -32.483  1.00  0.00     0.032 A 
ENDROOT
BRANCH   1  13
HETATM   13  C   UNL     1      -5.688   0.489 -29.964  1.00  0.00     0.181 C 
BRANCH  13  14
HETATM   14  C   UNL     1      -4.989   1.852 -30.023  1.00  0.00     0.161 C 
BRANCH  14  15
HETATM   15  C   UNL     1      -4.434   2.142 -31.425  1.00  0.00     0.209 C 
BRANCH  15  16
HETATM   16  O   UNL     1      -3.071   2.533 -31.244  1.00  0.00    -0.349 OA
BRANCH  16  17
HETATM   17  C   UNL     1      -2.682   3.721 -31.799  1.00  0.00     0.069 A 
HETATM   18  C   UNL     1      -3.398   4.091 -32.938  1.00  0.00     0.038 A 
HETATM   19  C   UNL     1      -3.093   5.276 -33.610  1.00  0.00     0.027 A 
HETATM   20  C   UNL     1      -2.069   6.101 -33.145  1.00  0.00     0.040 A 
HETATM   21  C   UNL     1      -1.345   5.753 -31.995  1.00  0.00    -0.038 A 
HETATM   22 CL   UNL     1      -1.730   7.544 -34.030  1.00  0.00    -0.084 Cl
HETATM   23  C   UNL     1      -0.229   6.617 -31.474  1.00  0.00     0.050 C 
HETATM   24  C   UNL     1      -1.660   4.552 -31.331  1.00  0.00     0.045 A 
ENDBRANCH  16  17
ENDBRANCH  15  16
ENDBRANCH  14  15
BRANCH  14  25
HETATM   25  O   UNL     1      -5.939   2.882 -29.672  1.00  0.00    -0.392 OA
HETATM   26  H   UNL     1      -5.436   3.490 -29.081  1.00  0.00     0.210 HD
ENDBRANCH  14  25
ENDBRANCH  13  14
ENDBRANCH   1  13
BRANCH   6  27
HETATM   27  C   UNL     1      -9.388   0.659 -33.489  1.00  0.00     0.175 C 
BRANCH  27  28
HETATM   28  C   UNL     1     -10.647  -0.064 -32.968  1.00  0.00     0.256 C 
BRANCH  28  29
HETATM   29  N   UNL     1     -11.933   0.668 -33.303  1.00  0.00    -0.066 N 
HETATM   30  H   UNL     1     -12.200   1.275 -32.515  1.00  0.00     0.280 HD
HETATM   31  C   UNL     1     -11.726   1.615 -34.505  1.00  0.00     0.261 C 
HETATM   32  C   UNL     1     -13.034   2.346 -34.825  1.00  0.00     0.195 C 
HETATM   33  O   UNL     1     -14.077   1.408 -35.098  1.00  0.00    -0.388 OA
HETATM   34  C   UNL     1     -14.354   0.575 -33.971  1.00  0.00     0.195 C 
HETATM   35  C   UNL     1     -13.122  -0.256 -33.597  1.00  0.00     0.261 C 
ENDBRANCH  28  29
ENDBRANCH  27  28
ENDBRANCH   6  27
TORSDOF 9
ENDMDL
MODEL 2
REMARK VINA RESULT:      -8.7      3.476      8.305
REMARK  9 active torsions:
REMARK  status: ('A' for Active; 'I' for Inactive)
REMARK    1  A    between atoms: C_7  and  O_8 
REMARK    2  A    between atoms: O_8  and  C_9 
REMARK    3  A    between atoms: C_9  and  C_10 
REMARK    4  A    between atoms: C_10  and  O_11 
REMARK    5  A    between atoms: C_10  and  C_12 
REMARK    6  A    between atoms: C_12  and  N_13 
REMARK    7  A    between atoms: N_18  and  C_19 
REMARK    8  A    between atoms: C_19  and  C_20 
REMARK    9  A    between atoms: C_20  and  N_21 
ROOT
HETATM    1  N   UNL     1      -7.644   2.438 -32.461  1.00  0.00    -0.179 N 
HETATM    2  C   UNL     1      -7.372   3.499 -33.303  1.00  0.00     0.681 A 
HETATM    3  N   UNL     1      -8.307   4.170 -33.976  1.00  0.00    -0.234 N 
HETATM    4  H   UNL     1      -8.155   5.001 -34.520  1.00  0.00     0.174 HD
HETATM    5  H   UNL     1      -9.251   3.763 -34.001  1.00  0.00     0.174 HD
HETATM    6  N   UNL     1      -6.015   3.806 -33.378  1.00  0.00    -0.180 N 
HETATM    7  C   UNL     1      -5.393   2.883 -32.482  1.00  0.00     0.079 A 
HETATM    8  C   UNL     1      -6.381   2.046 -31.934  1.00  0.00     0.079 A 
HETATM    9  C   UNL     1      -4.062   2.756 -32.141  1.00  0.00     0.032 A 
HETATM   10  C   UNL     1      -3.730   1.750 -31.228  1.00  0.00     0.002 A 
HETATM   11  C   UNL     1      -4.720   0.907 -30.683  1.00  0.00     0.002 A 
HETATM   12  C   UNL     1      -6.067   1.052 -31.034  1.00  0.00     0.032 A 
ENDROOT
BRANCH   1  13
HETATM   13  C   UNL     1      -8.960   1.894 -32.075  1.00  0.00     0.181 C 
BRANCH  13  14
HETATM   14  C   UNL     1      -9.561   0.956 -33.128  1.00  0.00     0.161 C 
BRANCH  14  15
HETATM   15  C   UNL     1      -8.836  -0.397 -33.157  1.00  0.00     0.209 C 
BRANCH  15  16
HETATM   16  O   UNL     1      -7.825  -0.287 -34.163  1.00  0.00    -0.349 OA
BRANCH  16  17
HETATM   17  C   UNL     1      -6.892  -1.286 -34.222  1.00  0.00     0.069 A 
HETATM   18  C   UNL     1      -5.643  -0.944 -33.704  1.00  0.00     0.038 A 
HETATM   19  C   UNL     1      -4.596  -1.867 -33.715  1.00  0.00     0.027 A 
HETATM   20  C   UNL     1      -4.793  -3.143 -34.245  1.00  0.00     0.040 A 
HETATM   21  C   UNL     1      -6.045  -3.511 -34.760  1.00  0.00    -0.038 A 
HETATM   22 CL   UNL     1      -3.456  -4.234 -34.245  1.00  0.00    -0.084 Cl
HETATM   23  C   UNL     1      -6.287  -4.875 -35.346  1.00  0.00     0.050 C 
HETATM   24  C   UNL     1      -7.090  -2.566 -34.747  1.00  0.00     0.045 A 
ENDBRANCH  16  17
ENDBRANCH  15  16
ENDBRANCH  14  15
BRANCH  14  25
HETATM   25  O   UNL     1     -10.955   0.735 -32.817  1.00  0.00    -0.392 OA
HETATM   26  H   UNL     1     -11.375   1.621 -32.924  1.00  0.00     0.210 HD
ENDBRANCH  14  25
ENDBRANCH  13  14
ENDBRANCH   1  13
BRANCH   6  27
HETATM   27  C   UNL     1      -5.352   4.893 -34.106  1.00  0.00     0.175 C 
BRANCH  27  28
HETATM   28  C   UNL     1      -4.761   5.968 -33.171  1.00  0.00     0.256 C 
BRANCH  28  29
HETATM   29  N   UNL     1      -3.244   6.006 -33.194  1.00  0.00    -0.066 N 
HETATM   30  H   UNL     1      -2.870   5.277 -32.571  1.00  0.00     0.280 HD
HETATM   31  C   UNL     1      -2.711   5.662 -34.602  1.00  0.00     0.261 C 
HETATM   32  C   UNL     1      -1.179   5.705 -34.604  1.00  0.00     0.195 C 
HETATM   33  O   UNL     1      -0.713   6.991 -34.190  1.00  0.00    -0.388 OA
HETATM   34  C   UNL     1      -1.116   7.300 -32.855  1.00  0.00     0.195 C 
HETATM   35  C   UNL     1      -2.645   7.347 -32.748  1.00  0.00     0.261 C 
ENDBRANCH  28  29
ENDBRANCH  27  28
ENDBRANCH   6  27
TORSDOF 9
ENDMDL
MODEL 3
REMARK VINA RESULT:      -8.7      1.281      1.388
REMARK  9 active torsions:
REMARK  status: ('A' for Active; 'I' for Inactive)
REMARK    1  A    between atoms: C_7  and  O_8 
REMARK    2  A    between atoms: O_8  and  C_9 
REMARK    3  A    between atoms: C_9  and  C_10 
REMARK    4  A    between atoms: C_10  and  O_11 
REMARK    5  A    between atoms: C_10  and  C_12 
REMARK    6  A    between atoms: C_12  and  N_13 
REMARK    7  A    between atoms: N_18  and  C_19 
REMARK    8  A    between atoms: C_19  and  C_20 
REMARK    9  A    between atoms: C_20  and  N_21 
ROOT
HETATM    1  N   UNL     1      -5.762  -0.102 -31.858  1.00  0.00    -0.179 N 
HETATM    2  C   UNL     1      -6.981   0.510 -32.076  1.00  0.00     0.681 A 
HETATM    3  N   UNL     1      -7.452   1.512 -31.334  1.00  0.00    -0.234 N 
HETATM    4  H   UNL     1      -8.286   2.038 -31.521  1.00  0.00     0.174 HD
HETATM    5  H   UNL     1      -6.959   1.716 -30.454  1.00  0.00     0.174 HD
HETATM    6  N   UNL     1      -7.676  -0.023 -33.160  1.00  0.00    -0.180 N 
HETATM    7  C   UNL     1      -6.802  -1.027 -33.683  1.00  0.00     0.079 A 
HETATM    8  C   UNL     1      -5.646  -1.081 -32.884  1.00  0.00     0.079 A 
HETATM    9  C   UNL     1      -6.969  -1.849 -34.777  1.00  0.00     0.032 A 
HETATM   10  C   UNL     1      -5.940  -2.753 -35.060  1.00  0.00     0.002 A 
HETATM   11  C   UNL     1      -4.783  -2.811 -34.257  1.00  0.00     0.002 A 
HETATM   12  C   UNL     1      -4.624  -1.966 -33.153  1.00  0.00     0.032 A 
ENDROOT
BRANCH   1  13
HETATM   13  C   UNL     1      -4.730   0.250 -30.864  1.00  0.00     0.181 C 
BRANCH  13  14
HETATM   14  C   UNL     1      -3.516   0.961 -31.475  1.00  0.00     0.161 C 
BRANCH  14  15
HETATM   15  C   UNL     1      -3.556   2.473 -31.210  1.00  0.00     0.209 C 
BRANCH  15  16
HETATM   16  O   UNL     1      -2.690   3.071 -32.179  1.00  0.00    -0.349 OA
BRANCH  16  17
HETATM   17  C   UNL     1      -2.384   4.394 -32.012  1.00  0.00     0.069 A 
HETATM   18  C   UNL     1      -3.456   5.266 -32.206  1.00  0.00     0.038 A 
HETATM   19  C   UNL     1      -3.278   6.645 -32.079  1.00  0.00     0.027 A 
HETATM   20  C   UNL     1      -2.023   7.161 -31.753  1.00  0.00     0.040 A 
HETATM   21  C   UNL     1      -0.935   6.300 -31.541  1.00  0.00    -0.038 A 
HETATM   22 CL   UNL     1      -1.863   8.875 -31.626  1.00  0.00    -0.084 Cl
HETATM   23  C   UNL     1       0.431   6.827 -31.197  1.00  0.00     0.050 C 
HETATM   24  C   UNL     1      -1.130   4.912 -31.679  1.00  0.00     0.045 A 
ENDBRANCH  16  17
ENDBRANCH  15  16
ENDBRANCH  14  15
BRANCH  14  25
HETATM   25  O   UNL     1      -2.312   0.414 -30.894  1.00  0.00    -0.392 OA
HETATM   26  H   UNL     1      -2.530  -0.532 -30.720  1.00  0.00     0.210 HD
ENDBRANCH  14  25
ENDBRANCH  13  14
ENDBRANCH   1  13
BRANCH   6  27
HETATM   27  C   UNL     1      -8.957   0.400 -33.736  1.00  0.00     0.175 C 
BRANCH  27  28
HETATM   28  C   UNL     1     -10.166   0.010 -32.860  1.00  0.00     0.256 C 
BRANCH  28  29
HETATM   29  N   UNL     1     -11.446   0.716 -33.267  1.00  0.00    -0.066 N 
HETATM   30  H   UNL     1     -11.743   1.354 -32.514  1.00  0.00     0.280 HD
HETATM   31  C   UNL     1     -11.206   1.614 -34.500  1.00  0.00     0.261 C 
HETATM   32  C   UNL     1     -12.508   2.319 -34.894  1.00  0.00     0.195 C 
HETATM   33  O   UNL     1     -13.535   1.361 -35.161  1.00  0.00    -0.388 OA
HETATM   34  C   UNL     1     -13.842   0.574 -34.009  1.00  0.00     0.195 C 
HETATM   35  C   UNL     1     -12.617  -0.230 -33.560  1.00  0.00     0.261 C 
ENDBRANCH  28  29
ENDBRANCH  27  28
ENDBRANCH   6  27
TORSDOF 9
ENDMDL
MODEL 4
REMARK VINA RESULT:      -8.5      4.788      9.641
REMARK  9 active torsions:
REMARK  status: ('A' for Active; 'I' for Inactive)
REMARK    1  A    between atoms: C_7  and  O_8 
REMARK    2  A    between atoms: O_8  and  C_9 
REMARK    3  A    between atoms: C_9  and  C_10 
REMARK    4  A    between atoms: C_10  and  O_11 
REMARK    5  A    between atoms: C_10  and  C_12 
REMARK    6  A    between atoms: C_12  and  N_13 
REMARK    7  A    between atoms: N_18  and  C_19 
REMARK    8  A    between atoms: C_19  and  C_20 
REMARK    9  A    between atoms: C_20  and  N_21 
ROOT
HETATM    1  N   UNL     1      -3.764   4.320 -31.611  1.00  0.00    -0.179 N 
HETATM    2  C   UNL     1      -4.106   5.335 -30.738  1.00  0.00     0.681 A 
HETATM    3  N   UNL     1      -4.839   5.152 -29.640  1.00  0.00    -0.234 N 
HETATM    4  H   UNL     1      -5.027   5.847 -28.938  1.00  0.00     0.174 HD
HETATM    5  H   UNL     1      -5.313   4.245 -29.536  1.00  0.00     0.174 HD
HETATM    6  N   UNL     1      -3.605   6.577 -31.119  1.00  0.00    -0.180 N 
HETATM    7  C   UNL     1      -2.858   6.309 -32.308  1.00  0.00     0.079 A 
HETATM    8  C   UNL     1      -2.965   4.941 -32.611  1.00  0.00     0.079 A 
HETATM    9  C   UNL     1      -2.122   7.173 -33.093  1.00  0.00     0.032 A 
HETATM   10  C   UNL     1      -1.487   6.631 -34.215  1.00  0.00     0.002 A 
HETATM   11  C   UNL     1      -1.598   5.260 -34.523  1.00  0.00     0.002 A 
HETATM   12  C   UNL     1      -2.344   4.395 -33.714  1.00  0.00     0.032 A 
ENDROOT
BRANCH   1  13
HETATM   13  C   UNL     1      -4.044   2.876 -31.486  1.00  0.00     0.181 C 
BRANCH  13  14
HETATM   14  C   UNL     1      -5.484   2.503 -31.860  1.00  0.00     0.161 C 
BRANCH  14  15
HETATM   15  C   UNL     1      -5.529   1.618 -33.114  1.00  0.00     0.209 C 
BRANCH  15  16
HETATM   16  O   UNL     1      -4.678   0.501 -32.846  1.00  0.00    -0.349 OA
BRANCH  16  17
HETATM   17  C   UNL     1      -5.014  -0.694 -33.422  1.00  0.00     0.069 A 
HETATM   18  C   UNL     1      -6.272  -0.713 -34.026  1.00  0.00     0.038 A 
HETATM   19  C   UNL     1      -6.744  -1.874 -34.639  1.00  0.00     0.027 A 
HETATM   20  C   UNL     1      -5.958  -3.027 -34.654  1.00  0.00     0.040 A 
HETATM   21  C   UNL     1      -4.686  -3.026 -34.063  1.00  0.00    -0.038 A 
HETATM   22 CL   UNL     1      -6.604  -4.436 -35.414  1.00  0.00    -0.084 Cl
HETATM   23  C   UNL     1      -3.819  -4.255 -34.054  1.00  0.00     0.050 C 
HETATM   24  C   UNL     1      -4.226  -1.847 -33.442  1.00  0.00     0.045 A 
ENDBRANCH  16  17
ENDBRANCH  15  16
ENDBRANCH  14  15
BRANCH  14  25
HETATM   25  O   UNL     1      -6.084   1.787 -30.758  1.00  0.00    -0.392 OA
HETATM   26  H   UNL     1      -5.734   2.237 -29.952  1.00  0.00     0.210 HD
ENDBRANCH  14  25
ENDBRANCH  13  14
ENDBRANCH   1  13
BRANCH   6  27
HETATM   27  C   UNL     1      -3.700   7.865 -30.424  1.00  0.00     0.175 C 
BRANCH  27  28
HETATM   28  C   UNL     1      -2.352   8.332 -29.837  1.00  0.00     0.256 C 
BRANCH  28  29
HETATM   29  N   UNL     1      -1.643   7.250 -29.044  1.00  0.00    -0.066 N 
HETATM   30  H   UNL     1      -2.187   6.376 -29.089  1.00  0.00     0.280 HD
HETATM   31  C   UNL     1      -0.273   6.919 -29.673  1.00  0.00     0.261 C 
HETATM   32  C   UNL     1       0.425   5.824 -28.859  1.00  0.00     0.195 C 
HETATM   33  O   UNL     1       0.582   6.235 -27.499  1.00  0.00    -0.388 OA
HETATM   34  C   UNL     1      -0.676   6.462 -26.862  1.00  0.00     0.195 C 
HETATM   35  C   UNL     1      -1.441   7.591 -27.562  1.00  0.00     0.261 C 
ENDBRANCH  28  29
ENDBRANCH  27  28
ENDBRANCH   6  27
TORSDOF 9
ENDMDL
MODEL 5
REMARK VINA RESULT:      -8.4      3.820      8.338
REMARK  9 active torsions:
REMARK  status: ('A' for Active; 'I' for Inactive)
REMARK    1  A    between atoms: C_7  and  O_8 
REMARK    2  A    between atoms: O_8  and  C_9 
REMARK    3  A    between atoms: C_9  and  C_10 
REMARK    4  A    between atoms: C_10  and  O_11 
REMARK    5  A    between atoms: C_10  and  C_12 
REMARK    6  A    between atoms: C_12  and  N_13 
REMARK    7  A    between atoms: N_18  and  C_19 
REMARK    8  A    between atoms: C_19  and  C_20 
REMARK    9  A    between atoms: C_20  and  N_21 
ROOT
HETATM    1  N   UNL     1      -7.963   2.551 -32.164  1.00  0.00    -0.179 N 
HETATM    2  C   UNL     1      -6.715   3.134 -32.052  1.00  0.00     0.681 A 
HETATM    3  N   UNL     1      -5.595   2.581 -32.517  1.00  0.00    -0.234 N 
HETATM    4  H   UNL     1      -4.690   3.017 -32.536  1.00  0.00     0.174 HD
HETATM    5  H   UNL     1      -5.645   1.597 -32.815  1.00  0.00     0.174 HD
HETATM    6  N   UNL     1      -6.742   4.367 -31.405  1.00  0.00    -0.180 N 
HETATM    7  C   UNL     1      -8.125   4.589 -31.121  1.00  0.00     0.079 A 
HETATM    8  C   UNL     1      -8.864   3.481 -31.572  1.00  0.00     0.079 A 
HETATM    9  C   UNL     1      -8.732   5.671 -30.518  1.00  0.00     0.032 A 
HETATM   10  C   UNL     1     -10.121   5.619 -30.363  1.00  0.00     0.002 A 
HETATM   11  C   UNL     1     -10.861   4.506 -30.810  1.00  0.00     0.002 A 
HETATM   12  C   UNL     1     -10.233   3.418 -31.426  1.00  0.00     0.032 A 
ENDROOT
BRANCH   1  13
HETATM   13  C   UNL     1      -8.327   1.299 -32.855  1.00  0.00     0.181 C 
BRANCH  13  14
HETATM   14  C   UNL     1      -8.465   1.462 -34.373  1.00  0.00     0.161 C 
BRANCH  14  15
HETATM   15  C   UNL     1      -7.592   0.452 -35.131  1.00  0.00     0.209 C 
BRANCH  15  16
HETATM   16  O   UNL     1      -6.392   0.308 -34.368  1.00  0.00    -0.349 OA
BRANCH  16  17
HETATM   17  C   UNL     1      -5.845  -0.944 -34.291  1.00  0.00     0.069 A 
HETATM   18  C   UNL     1      -4.667  -1.019 -33.548  1.00  0.00     0.038 A 
HETATM   19  C   UNL     1      -4.000  -2.236 -33.402  1.00  0.00     0.027 A 
HETATM   20  C   UNL     1      -4.509  -3.390 -33.998  1.00  0.00     0.040 A 
HETATM   21  C   UNL     1      -5.699  -3.339 -34.739  1.00  0.00    -0.038 A 
HETATM   22 CL   UNL     1      -3.630  -4.861 -33.794  1.00  0.00    -0.084 Cl
HETATM   23  C   UNL     1      -6.269  -4.563 -35.401  1.00  0.00     0.050 C 
HETATM   24  C   UNL     1      -6.358  -2.102 -34.883  1.00  0.00     0.045 A 
ENDBRANCH  16  17
ENDBRANCH  15  16
ENDBRANCH  14  15
BRANCH  14  25
HETATM   25  O   UNL     1      -9.846   1.259 -34.743  1.00  0.00    -0.392 OA
HETATM   26  H   UNL     1     -10.075   2.050 -35.286  1.00  0.00     0.210 HD
ENDBRANCH  14  25
ENDBRANCH  13  14
ENDBRANCH   1  13
BRANCH   6  27
HETATM   27  C   UNL     1      -5.642   5.306 -31.160  1.00  0.00     0.175 C 
BRANCH  27  28
HETATM   28  C   UNL     1      -5.399   6.268 -32.341  1.00  0.00     0.256 C 
BRANCH  28  29
HETATM   29  N   UNL     1      -4.041   6.077 -32.992  1.00  0.00    -0.066 N 
HETATM   30  H   UNL     1      -3.585   6.993 -33.114  1.00  0.00     0.280 HD
HETATM   31  C   UNL     1      -3.104   5.266 -32.072  1.00  0.00     0.261 C 
HETATM   32  C   UNL     1      -1.739   5.086 -32.746  1.00  0.00     0.195 C 
HETATM   33  O   UNL     1      -1.888   4.438 -34.012  1.00  0.00    -0.388 OA
HETATM   34  C   UNL     1      -2.679   5.210 -34.917  1.00  0.00     0.195 C 
HETATM   35  C   UNL     1      -4.097   5.402 -34.368  1.00  0.00     0.261 C 
ENDBRANCH  28  29
ENDBRANCH  27  28
ENDBRANCH   6  27
TORSDOF 9
ENDMDL
MODEL 6
REMARK VINA RESULT:      -8.2      4.758      9.958
REMARK  9 active torsions:
REMARK  status: ('A' for Active; 'I' for Inactive)
REMARK    1  A    between atoms: C_7  and  O_8 
REMARK    2  A    between atoms: O_8  and  C_9 
REMARK    3  A    between atoms: C_9  and  C_10 
REMARK    4  A    between atoms: C_10  and  O_11 
REMARK    5  A    between atoms: C_10  and  C_12 
REMARK    6  A    between atoms: C_12  and  N_13 
REMARK    7  A    between atoms: N_18  and  C_19 
REMARK    8  A    between atoms: C_19  and  C_20 
REMARK    9  A    between atoms: C_20  and  N_21 
ROOT
HETATM    1  N   UNL     1      -3.849   4.260 -31.796  1.00  0.00    -0.179 N 
HETATM    2  C   UNL     1      -4.279   5.108 -30.793  1.00  0.00     0.681 A 
HETATM    3  N   UNL     1      -5.120   4.743 -29.825  1.00  0.00    -0.234 N 
HETATM    4  H   UNL     1      -5.379   5.303 -29.032  1.00  0.00     0.174 HD
HETATM    5  H   UNL     1      -5.603   3.842 -29.937  1.00  0.00     0.174 HD
HETATM    6  N   UNL     1      -3.741   6.389 -30.890  1.00  0.00    -0.180 N 
HETATM    7  C   UNL     1      -2.877   6.326 -32.026  1.00  0.00     0.079 A 
HETATM    8  C   UNL     1      -2.952   5.037 -32.582  1.00  0.00     0.079 A 
HETATM    9  C   UNL     1      -2.064   7.303 -32.563  1.00  0.00     0.032 A 
HETATM   10  C   UNL     1      -1.318   6.962 -33.695  1.00  0.00     0.002 A 
HETATM   11  C   UNL     1      -1.397   5.671 -34.256  1.00  0.00     0.002 A 
HETATM   12  C   UNL     1      -2.221   4.688 -33.697  1.00  0.00     0.032 A 
ENDROOT
BRANCH   1  13
HETATM   13  C   UNL     1      -4.141   2.823 -31.964  1.00  0.00     0.181 C 
BRANCH  13  14
HETATM   14  C   UNL     1      -5.354   2.552 -32.861  1.00  0.00     0.161 C 
BRANCH  14  15
HETATM   15  C   UNL     1      -5.949   1.160 -32.599  1.00  0.00     0.209 C 
BRANCH  15  16
HETATM   16  O   UNL     1      -6.046   0.521 -33.875  1.00  0.00    -0.349 OA
BRANCH  16  17
HETATM   17  C   UNL     1      -5.644  -0.785 -33.951  1.00  0.00     0.069 A 
HETATM   18  C   UNL     1      -4.415  -1.050 -33.347  1.00  0.00     0.038 A 
HETATM   19  C   UNL     1      -3.882  -2.339 -33.364  1.00  0.00     0.027 A 
HETATM   20  C   UNL     1      -4.577  -3.376 -33.986  1.00  0.00     0.040 A 
HETATM   21  C   UNL     1      -5.821  -3.134 -34.590  1.00  0.00    -0.038 A 
HETATM   22 CL   UNL     1      -3.858  -4.945 -33.989  1.00  0.00    -0.084 Cl
HETATM   23  C   UNL     1      -6.591  -4.228 -35.277  1.00  0.00     0.050 C 
HETATM   24  C   UNL     1      -6.343  -1.825 -34.569  1.00  0.00     0.045 A 
ENDBRANCH  16  17
ENDBRANCH  15  16
ENDBRANCH  14  15
BRANCH  14  25
HETATM   25  O   UNL     1      -6.364   3.551 -32.598  1.00  0.00    -0.392 OA
HETATM   26  H   UNL     1      -7.089   3.055 -32.150  1.00  0.00     0.210 HD
ENDBRANCH  14  25
ENDBRANCH  13  14
ENDBRANCH   1  13
BRANCH   6  27
HETATM   27  C   UNL     1      -3.908   7.532 -29.985  1.00  0.00     0.175 C 
BRANCH  27  28
HETATM   28  C   UNL     1      -3.154   7.355 -28.650  1.00  0.00     0.256 C 
BRANCH  28  29
HETATM   29  N   UNL     1      -1.744   7.914 -28.687  1.00  0.00    -0.066 N 
HETATM   30  H   UNL     1      -1.684   8.656 -29.398  1.00  0.00     0.280 HD
HETATM   31  C   UNL     1      -1.391   8.594 -27.346  1.00  0.00     0.261 C 
HETATM   32  C   UNL     1       0.035   9.153 -27.404  1.00  0.00     0.195 C 
HETATM   33  O   UNL     1       0.968   8.112 -27.701  1.00  0.00    -0.388 OA
HETATM   34  C   UNL     1       0.721   7.522 -28.978  1.00  0.00     0.195 C 
HETATM   35  C   UNL     1      -0.666   6.872 -29.015  1.00  0.00     0.261 C 
ENDBRANCH  28  29
ENDBRANCH  27  28
ENDBRANCH   6  27
TORSDOF 9
ENDMDL
MODEL 7
REMARK VINA RESULT:      -8.1      3.526      6.182
REMARK  9 active torsions:
REMARK  status: ('A' for Active; 'I' for Inactive)
REMARK    1  A    between atoms: C_7  and  O_8 
REMARK    2  A    between atoms: O_8  and  C_9 
REMARK    3  A    between atoms: C_9  and  C_10 
REMARK    4  A    between atoms: C_10  and  O_11 
REMARK    5  A    between atoms: C_10  and  C_12 
REMARK    6  A    between atoms: C_12  and  N_13 
REMARK    7  A    between atoms: N_18  and  C_19 
REMARK    8  A    between atoms: C_19  and  C_20 
REMARK    9  A    between atoms: C_20  and  N_21 
ROOT
HETATM    1  N   UNL     1      -7.282   3.222 -30.857  1.00  0.00    -0.179 N 
HETATM    2  C   UNL     1      -8.663   3.169 -30.841  1.00  0.00     0.681 A 
HETATM    3  N   UNL     1      -9.359   2.111 -30.423  1.00  0.00    -0.234 N 
HETATM    4  H   UNL     1     -10.356   2.073 -30.311  1.00  0.00     0.174 HD
HETATM    5  H   UNL     1      -8.839   1.236 -30.273  1.00  0.00     0.174 HD
HETATM    6  N   UNL     1      -9.262   4.338 -31.304  1.00  0.00    -0.180 N 
HETATM    7  C   UNL     1      -8.165   5.206 -31.599  1.00  0.00     0.079 A 
HETATM    8  C   UNL     1      -6.964   4.523 -31.339  1.00  0.00     0.079 A 
HETATM    9  C   UNL     1      -8.178   6.506 -32.061  1.00  0.00     0.032 A 
HETATM   10  C   UNL     1      -6.939   7.121 -32.268  1.00  0.00     0.002 A 
HETATM   11  C   UNL     1      -5.735   6.435 -32.012  1.00  0.00     0.002 A 
HETATM   12  C   UNL     1      -5.738   5.118 -31.538  1.00  0.00     0.032 A 
ENDROOT
BRANCH   1  13
HETATM   13  C   UNL     1      -6.324   2.212 -30.366  1.00  0.00     0.181 C 
BRANCH  13  14
HETATM   14  C   UNL     1      -6.340   0.914 -31.181  1.00  0.00     0.161 C 
BRANCH  14  15
HETATM   15  C   UNL     1      -4.918   0.422 -31.487  1.00  0.00     0.209 C 
BRANCH  15  16
HETATM   16  O   UNL     1      -4.820   0.344 -32.911  1.00  0.00    -0.349 OA
BRANCH  16  17
HETATM   17  C   UNL     1      -5.090  -0.865 -33.492  1.00  0.00     0.069 A 
HETATM   18  C   UNL     1      -6.312  -0.926 -34.163  1.00  0.00     0.038 A 
HETATM   19  C   UNL     1      -6.716  -2.106 -34.789  1.00  0.00     0.027 A 
HETATM   20  C   UNL     1      -5.898  -3.236 -34.749  1.00  0.00     0.040 A 
HETATM   21  C   UNL     1      -4.660  -3.192 -34.089  1.00  0.00    -0.038 A 
HETATM   22 CL   UNL     1      -6.461  -4.670 -35.527  1.00  0.00    -0.084 Cl
HETATM   23  C   UNL     1      -3.760  -4.395 -34.021  1.00  0.00     0.050 C 
HETATM   24  C   UNL     1      -4.269  -1.995 -33.457  1.00  0.00     0.045 A 
ENDBRANCH  16  17
ENDBRANCH  15  16
ENDBRANCH  14  15
BRANCH  14  25
HETATM   25  O   UNL     1      -7.037  -0.103 -30.428  1.00  0.00    -0.392 OA
HETATM   26  H   UNL     1      -6.893   0.147 -29.485  1.00  0.00     0.210 HD
ENDBRANCH  14  25
ENDBRANCH  13  14
ENDBRANCH   1  13
BRANCH   6  27
HETATM   27  C   UNL     1     -10.687   4.681 -31.375  1.00  0.00     0.175 C 
BRANCH  27  28
HETATM   28  C   UNL     1     -11.329   4.302 -32.725  1.00  0.00     0.256 C 
BRANCH  28  29
HETATM   29  N   UNL     1     -11.937   2.912 -32.724  1.00  0.00    -0.066 N 
HETATM   30  H   UNL     1     -11.933   2.534 -31.766  1.00  0.00     0.280 HD
HETATM   31  C   UNL     1     -13.421   2.965 -33.144  1.00  0.00     0.261 C 
HETATM   32  C   UNL     1     -14.017   1.553 -33.135  1.00  0.00     0.195 C 
HETATM   33  O   UNL     1     -13.278   0.692 -34.005  1.00  0.00    -0.388 OA
HETATM   34  C   UNL     1     -11.919   0.552 -33.588  1.00  0.00     0.195 C 
HETATM   35  C   UNL     1     -11.201   1.906 -33.619  1.00  0.00     0.261 C 
ENDBRANCH  28  29
ENDBRANCH  27  28
ENDBRANCH   6  27
TORSDOF 9
ENDMDL
MODEL 8
REMARK VINA RESULT:      -8.0      1.837      2.085
REMARK  9 active torsions:
REMARK  status: ('A' for Active; 'I' for Inactive)
REMARK    1  A    between atoms: C_7  and  O_8 
REMARK    2  A    between atoms: O_8  and  C_9 
REMARK    3  A    between atoms: C_9  and  C_10 
REMARK    4  A    between atoms: C_10  and  O_11 
REMARK    5  A    between atoms: C_10  and  C_12 
REMARK    6  A    between atoms: C_12  and  N_13 
REMARK    7  A    between atoms: N_18  and  C_19 
REMARK    8  A    between atoms: C_19  and  C_20 
REMARK    9  A    between atoms: C_20  and  N_21 
ROOT
HETATM    1  N   UNL     1      -6.585   1.059 -31.339  1.00  0.00    -0.179 N 
HETATM    2  C   UNL     1      -7.963   1.075 -31.430  1.00  0.00     0.681 A 
HETATM    3  N   UNL     1      -8.746   1.854 -30.684  1.00  0.00    -0.234 N 
HETATM    4  H   UNL     1      -9.740   1.959 -30.788  1.00  0.00     0.174 HD
HETATM    5  H   UNL     1      -8.309   2.333 -29.885  1.00  0.00     0.174 HD
HETATM    6  N   UNL     1      -8.460   0.195 -32.389  1.00  0.00    -0.180 N 
HETATM    7  C   UNL     1      -7.294  -0.394 -32.968  1.00  0.00     0.079 A 
HETATM    8  C   UNL     1      -6.157   0.123 -32.323  1.00  0.00     0.079 A 
HETATM    9  C   UNL     1      -7.194  -1.315 -33.991  1.00  0.00     0.032 A 
HETATM   10  C   UNL     1      -5.908  -1.724 -34.357  1.00  0.00     0.002 A 
HETATM   11  C   UNL     1      -4.768  -1.210 -33.707  1.00  0.00     0.002 A 
HETATM   12  C   UNL     1      -4.884  -0.271 -32.675  1.00  0.00     0.032 A 
ENDROOT
BRANCH   1  13
HETATM   13  C   UNL     1      -5.716   1.909 -30.503  1.00  0.00     0.181 C 
BRANCH  13  14
HETATM   14  C   UNL     1      -5.408   3.271 -31.138  1.00  0.00     0.161 C 
BRANCH  14  15
HETATM   15  C   UNL     1      -4.069   3.254 -31.888  1.00  0.00     0.209 C 
BRANCH  15  16
HETATM   16  O   UNL     1      -3.770   4.616 -32.203  1.00  0.00    -0.349 OA
BRANCH  16  17
HETATM   17  C   UNL     1      -2.749   5.209 -31.511  1.00  0.00     0.069 A 
HETATM   18  C   UNL     1      -3.129   6.316 -30.752  1.00  0.00     0.038 A 
HETATM   19  C   UNL     1      -2.183   7.021 -30.007  1.00  0.00     0.027 A 
HETATM   20  C   UNL     1      -0.846   6.621 -30.014  1.00  0.00     0.040 A 
HETATM   21  C   UNL     1      -0.445   5.502 -30.761  1.00  0.00    -0.038 A 
HETATM   22 CL   UNL     1       0.279   7.543 -29.086  1.00  0.00    -0.084 Cl
HETATM   23  C   UNL     1       0.989   5.051 -30.797  1.00  0.00     0.050 C 
HETATM   24  C   UNL     1      -1.411   4.805 -31.512  1.00  0.00     0.045 A 
ENDBRANCH  16  17
ENDBRANCH  15  16
ENDBRANCH  14  15
BRANCH  14  25
HETATM   25  O   UNL     1      -6.463   3.603 -32.068  1.00  0.00    -0.392 OA
HETATM   26  H   UNL     1      -7.078   4.174 -31.549  1.00  0.00     0.210 HD
ENDBRANCH  14  25
ENDBRANCH  13  14
ENDBRANCH   1  13
BRANCH   6  27
HETATM   27  C   UNL     1      -9.847  -0.020 -32.816  1.00  0.00     0.175 C 
BRANCH  27  28
HETATM   28  C   UNL     1     -10.422   1.171 -33.611  1.00  0.00     0.256 C 
BRANCH  28  29
HETATM   29  N   UNL     1     -11.649   1.782 -32.960  1.00  0.00    -0.066 N 
HETATM   30  H   UNL     1     -11.719   1.460 -31.984  1.00  0.00     0.280 HD
HETATM   31  C   UNL     1     -11.518   3.318 -32.882  1.00  0.00     0.261 C 
HETATM   32  C   UNL     1     -12.765   3.915 -32.221  1.00  0.00     0.195 C 
HETATM   33  O   UNL     1     -13.941   3.545 -32.946  1.00  0.00    -0.388 OA
HETATM   34  C   UNL     1     -14.137   2.131 -32.958  1.00  0.00     0.195 C 
HETATM   35  C   UNL     1     -12.969   1.428 -33.658  1.00  0.00     0.261 C 
ENDBRANCH  28  29
ENDBRANCH  27  28
ENDBRANCH   6  27
TORSDOF 9
ENDMDL
MODEL 9
REMARK VINA RESULT:      -7.9      3.536      5.521
REMARK  9 active torsions:
REMARK  status: ('A' for Active; 'I' for Inactive)
REMARK    1  A    between atoms: C_7  and  O_8 
REMARK    2  A    between atoms: O_8  and  C_9 
REMARK    3  A    between atoms: C_9  and  C_10 
REMARK    4  A    between atoms: C_10  and  O_11 
REMARK    5  A    between atoms: C_10  and  C_12 
REMARK    6  A    between atoms: C_12  and  N_13 
REMARK    7  A    between atoms: N_18  and  C_19 
REMARK    8  A    between atoms: C_19  and  C_20 
REMARK    9  A    between atoms: C_20  and  N_21 
ROOT
HETATM    1  N   UNL     1      -6.167   2.828 -32.188  1.00  0.00    -0.179 N 
HETATM    2  C   UNL     1      -7.134   3.206 -31.277  1.00  0.00     0.681 A 
HETATM    3  N   UNL     1      -6.899   4.003 -30.235  1.00  0.00    -0.234 N 
HETATM    4  H   UNL     1      -7.594   4.372 -29.610  1.00  0.00     0.174 HD
HETATM    5  H   UNL     1      -5.916   4.199 -30.005  1.00  0.00     0.174 HD
HETATM    6  N   UNL     1      -8.391   2.674 -31.558  1.00  0.00    -0.180 N 
HETATM    7  C   UNL     1      -8.199   1.931 -32.764  1.00  0.00     0.079 A 
HETATM    8  C   UNL     1      -6.847   2.015 -33.139  1.00  0.00     0.079 A 
HETATM    9  C   UNL     1      -9.118   1.222 -33.510  1.00  0.00     0.032 A 
HETATM   10  C   UNL     1      -8.646   0.580 -34.659  1.00  0.00     0.002 A 
HETATM   11  C   UNL     1      -7.290   0.660 -35.033  1.00  0.00     0.002 A 
HETATM   12  C   UNL     1      -6.370   1.388 -34.269  1.00  0.00     0.032 A 
ENDROOT
BRANCH   1  13
HETATM   13  C   UNL     1      -4.758   3.261 -32.256  1.00  0.00     0.181 C 
BRANCH  13  14
HETATM   14  C   UNL     1      -3.801   2.335 -31.495  1.00  0.00     0.161 C 
BRANCH  14  15
HETATM   15  C   UNL     1      -3.320   1.174 -32.377  1.00  0.00     0.209 C 
BRANCH  15  16
HETATM   16  O   UNL     1      -3.444  -0.009 -31.583  1.00  0.00    -0.349 OA
BRANCH  16  17
HETATM   17  C   UNL     1      -3.696  -1.181 -32.243  1.00  0.00     0.069 A 
HETATM   18  C   UNL     1      -2.992  -2.283 -31.756  1.00  0.00     0.038 A 
HETATM   19  C   UNL     1      -3.146  -3.538 -32.347  1.00  0.00     0.027 A 
HETATM   20  C   UNL     1      -4.009  -3.700 -33.431  1.00  0.00     0.040 A 
HETATM   21  C   UNL     1      -4.735  -2.607 -33.928  1.00  0.00    -0.038 A 
HETATM   22 CL   UNL     1      -4.144  -5.272 -34.129  1.00  0.00    -0.084 Cl
HETATM   23  C   UNL     1      -5.667  -2.747 -35.101  1.00  0.00     0.050 C 
HETATM   24  C   UNL     1      -4.564  -1.346 -33.324  1.00  0.00     0.045 A 
ENDBRANCH  16  17
ENDBRANCH  15  16
ENDBRANCH  14  15
BRANCH  14  25
HETATM   25  O   UNL     1      -2.656   3.101 -31.061  1.00  0.00    -0.392 OA
HETATM   26  H   UNL     1      -2.170   2.493 -30.454  1.00  0.00     0.210 HD
ENDBRANCH  14  25
ENDBRANCH  13  14
ENDBRANCH   1  13
BRANCH   6  27
HETATM   27  C   UNL     1      -9.665   2.898 -30.867  1.00  0.00     0.175 C 
BRANCH  27  28
HETATM   28  C   UNL     1     -10.208   4.329 -31.059  1.00  0.00     0.256 C 
BRANCH  28  29
HETATM   29  N   UNL     1     -11.634   4.359 -31.577  1.00  0.00    -0.066 N 
HETATM   30  H   UNL     1     -11.802   5.244 -32.076  1.00  0.00     0.280 HD
HETATM   31  C   UNL     1     -11.859   3.244 -32.621  1.00  0.00     0.261 C 
HETATM   32  C   UNL     1     -13.302   3.292 -33.133  1.00  0.00     0.195 C 
HETATM   33  O   UNL     1     -14.223   3.157 -32.048  1.00  0.00    -0.388 OA
HETATM   34  C   UNL     1     -14.099   4.226 -31.108  1.00  0.00     0.195 C 
HETATM   35  C   UNL     1     -12.701   4.236 -30.481  1.00  0.00     0.261 C 
ENDBRANCH  28  29
ENDBRANCH  27  28
ENDBRANCH   6  27
TORSDOF 9
ENDMDL
MODEL 10
REMARK VINA RESULT:      -7.8      4.665      9.621
REMARK  9 active torsions:
REMARK  status: ('A' for Active; 'I' for Inactive)
REMARK    1  A    between atoms: C_7  and  O_8 
REMARK    2  A    between atoms: O_8  and  C_9 
REMARK    3  A    between atoms: C_9  and  C_10 
REMARK    4  A    between atoms: C_10  and  O_11 
REMARK    5  A    between atoms: C_10  and  C_12 
REMARK    6  A    between atoms: C_12  and  N_13 
REMARK    7  A    between atoms: N_18  and  C_19 
REMARK    8  A    between atoms: C_19  and  C_20 
REMARK    9  A    between atoms: C_20  and  N_21 
ROOT
HETATM    1  N   UNL     1      -4.669   3.724 -30.882  1.00  0.00    -0.179 N 
HETATM    2  C   UNL     1      -3.727   4.587 -31.408  1.00  0.00     0.681 A 
HETATM    3  N   UNL     1      -2.753   4.207 -32.234  1.00  0.00    -0.234 N 
HETATM    4  H   UNL     1      -2.112   4.820 -32.706  1.00  0.00     0.174 HD
HETATM    5  H   UNL     1      -2.595   3.196 -32.341  1.00  0.00     0.174 HD
HETATM    6  N   UNL     1      -3.898   5.906 -30.991  1.00  0.00    -0.180 N 
HETATM    7  C   UNL     1      -5.065   5.868 -30.165  1.00  0.00     0.079 A 
HETATM    8  C   UNL     1      -5.525   4.542 -30.091  1.00  0.00     0.079 A 
HETATM    9  C   UNL     1      -5.708   6.899 -29.513  1.00  0.00     0.032 A 
HETATM   10  C   UNL     1      -6.841   6.570 -28.762  1.00  0.00     0.002 A 
HETATM   11  C   UNL     1      -7.300   5.240 -28.683  1.00  0.00     0.002 A 
HETATM   12  C   UNL     1      -6.640   4.205 -29.355  1.00  0.00     0.032 A 
ENDROOT
BRANCH   1  13
HETATM   13  C   UNL     1      -4.849   2.287 -31.166  1.00  0.00     0.181 C 
BRANCH  13  14
HETATM   14  C   UNL     1      -6.143   1.976 -31.927  1.00  0.00     0.161 C 
BRANCH  14  15
HETATM   15  C   UNL     1      -5.853   1.389 -33.316  1.00  0.00     0.209 C 
BRANCH  15  16
HETATM   16  O   UNL     1      -4.852   0.386 -33.126  1.00  0.00    -0.349 OA
BRANCH  16  17
HETATM   17  C   UNL     1      -5.104  -0.855 -33.643  1.00  0.00     0.069 A 
HETATM   18  C   UNL     1      -6.321  -0.967 -34.316  1.00  0.00     0.038 A 
HETATM   19  C   UNL     1      -6.707  -2.183 -34.881  1.00  0.00     0.027 A 
HETATM   20  C   UNL     1      -5.875  -3.299 -34.778  1.00  0.00     0.040 A 
HETATM   21  C   UNL     1      -4.642  -3.204 -34.115  1.00  0.00    -0.038 A 
HETATM   22 CL   UNL     1      -6.416  -4.778 -35.482  1.00  0.00    -0.084 Cl
HETATM   23  C   UNL     1      -3.727  -4.391 -33.979  1.00  0.00     0.050 C 
HETATM   24  C   UNL     1      -4.269  -1.971 -33.545  1.00  0.00     0.045 A 
ENDBRANCH  16  17
ENDBRANCH  15  16
ENDBRANCH  14  15
BRANCH  14  25
HETATM   25  O   UNL     1      -6.916   1.022 -31.166  1.00  0.00    -0.392 OA
HETATM   26  H   UNL     1      -6.243   0.505 -30.663  1.00  0.00     0.210 HD
ENDBRANCH  14  25
ENDBRANCH  13  14
ENDBRANCH   1  13
BRANCH   6  27
HETATM   27  C   UNL     1      -3.147   7.104 -31.382  1.00  0.00     0.175 C 
BRANCH  27  28
HETATM   28  C   UNL     1      -2.368   7.733 -30.208  1.00  0.00     0.256 C 
BRANCH  28  29
HETATM   29  N   UNL     1      -1.522   6.728 -29.450  1.00  0.00    -0.066 N 
HETATM   30  H   UNL     1      -2.075   5.878 -29.268  1.00  0.00     0.280 HD
HETATM   31  C   UNL     1      -0.323   6.267 -30.306  1.00  0.00     0.261 C 
HETATM   32  C   UNL     1       0.517   5.252 -29.525  1.00  0.00     0.195 C 
HETATM   33  O   UNL     1       0.967   5.819 -28.292  1.00  0.00    -0.388 OA
HETATM   34  C   UNL     1      -0.122   6.173 -27.438  1.00  0.00     0.195 C 
HETATM   35  C   UNL     1      -1.003   7.238 -28.100  1.00  0.00     0.261 C 
ENDBRANCH  28  29
ENDBRANCH  27  28
ENDBRANCH   6  27
TORSDOF 9
ENDMDL
