MODEL 1
REMARK VINA RESULT:      -9.0      0.000      0.000
REMARK  5 active torsions:
REMARK  status: ('A' for Active; 'I' for Inactive)
REMARK    1  A    between atoms: O_2  and  C_3 
REMARK    2  A    between atoms: C_16  and  C_17 
REMARK    3  A    between atoms: C_19  and  O_20 
REMARK    4  A    between atoms: C_22  and  O_23 
REMARK    5  A    between atoms: O_23  and  C_24 
ROOT
HETATM    1  C   UNL     1      -5.044  -3.019 -34.474  1.00  0.00     0.069 A 
HETATM    2  C   UNL     1      -6.004  -2.031 -34.730  1.00  0.00     0.051 A 
HETATM    3  C   UNL     1      -6.029  -0.857 -33.956  1.00  0.00     0.002 A 
HETATM    4  C   UNL     1      -5.088  -0.708 -32.936  1.00  0.00     0.043 A 
HETATM    5  N   UNL     1      -5.316   0.509 -32.329  1.00  0.00    -0.356 N 
HETATM    6  H   UNL     1      -4.762   0.866 -31.559  1.00  0.00     0.166 HD
HETATM    7  C   UNL     1      -6.347   1.152 -32.965  1.00  0.00     0.052 A 
HETATM    8  C   UNL     1      -6.828   0.316 -33.955  1.00  0.00    -0.019 A 
HETATM    9  C   UNL     1      -7.971   0.700 -34.832  1.00  0.00     0.069 C 
HETATM   10  C   UNL     1      -8.741   1.886 -34.221  1.00  0.00     0.238 C 
HETATM   11  N   UNL     1      -7.789   2.953 -33.740  1.00  0.00    -0.061 N 
HETATM   12  H   UNL     1      -7.197   3.252 -34.522  1.00  0.00     0.278 HD
HETATM   13  H   UNL     1      -8.299   3.786 -33.429  1.00  0.00     0.278 HD
HETATM   14  C   UNL     1      -6.874   2.507 -32.627  1.00  0.00     0.269 C 
HETATM   15  C   UNL     1      -4.125  -1.682 -32.657  1.00  0.00     0.033 A 
HETATM   16  C   UNL     1      -4.118  -2.841 -33.447  1.00  0.00     0.039 A 
ENDROOT
BRANCH  14  17
HETATM   17  C   UNL     1      -5.802   3.553 -32.394  1.00  0.00    -0.019 A 
HETATM   18  C   UNL     1      -5.186   4.223 -33.468  1.00  0.00     0.049 A 
HETATM   19  C   UNL     1      -4.209   5.198 -33.242  1.00  0.00     0.102 A 
HETATM   20  C   UNL     1      -3.852   5.541 -31.926  1.00  0.00     0.102 A 
HETATM   21  C   UNL     1      -4.480   4.900 -30.857  1.00  0.00     0.040 A 
HETATM   22  C   UNL     1      -5.443   3.912 -31.087  1.00  0.00     0.012 A 
BRANCH  19  23
HETATM   23  O   UNL     1      -3.583   5.889 -34.248  1.00  0.00    -0.353 OA
HETATM   24  C   UNL     1      -2.567   5.206 -34.971  1.00  0.00     0.210 C 
ENDBRANCH  19  23
BRANCH  20  25
HETATM   25  O   UNL     1      -2.900   6.515 -31.799  1.00  0.00    -0.343 OA
BRANCH  25  26
HETATM   26  C   UNL     1      -1.764   6.283 -30.972  1.00  0.00     0.129 C 
HETATM   27  C   UNL     1      -0.952   5.064 -31.408  1.00  0.00     0.032 C 
HETATM   28  C   UNL     1       0.442   5.374 -30.894  1.00  0.00     0.002 C 
HETATM   29  C   UNL     1       0.614   6.848 -31.221  1.00  0.00     0.002 C 
HETATM   30  C   UNL     1      -0.785   7.457 -31.136  1.00  0.00     0.032 C 
ENDBRANCH  25  26
ENDBRANCH  20  25
ENDBRANCH  14  17
BRANCH   1  31
HETATM   31  O   UNL     1      -5.124  -4.105 -35.303  1.00  0.00    -0.356 OA
HETATM   32  C   UNL     1      -6.377  -4.777 -35.372  1.00  0.00     0.210 C 
ENDBRANCH   1  31
TORSDOF 5
ENDMDL
MODEL 2
REMARK VINA RESULT:      -8.4      3.911      7.861
REMARK  5 active torsions:
REMARK  status: ('A' for Active; 'I' for Inactive)
REMARK    1  A    between atoms: O_2  and  C_3 
REMARK    2  A    between atoms: C_16  and  C_17 
REMARK    3  A    between atoms: C_19  and  O_20 
REMARK    4  A    between atoms: C_22  and  O_23 
REMARK    5  A    between atoms: O_23  and  C_24 
ROOT
HETATM    1  C   UNL     1      -4.127  -3.210 -33.498  1.00  0.00     0.069 A 
HETATM    2  C   UNL     1      -4.201  -1.956 -32.875  1.00  0.00     0.051 A 
HETATM    3  C   UNL     1      -5.115  -0.993 -33.342  1.00  0.00     0.002 A 
HETATM    4  C   UNL     1      -5.927  -1.313 -34.430  1.00  0.00     0.043 A 
HETATM    5  N   UNL     1      -6.724  -0.220 -34.694  1.00  0.00    -0.356 N 
HETATM    6  H   UNL     1      -7.416  -0.193 -35.436  1.00  0.00     0.166 HD
HETATM    7  C   UNL     1      -6.468   0.767 -33.778  1.00  0.00     0.052 A 
HETATM    8  C   UNL     1      -5.453   0.328 -32.948  1.00  0.00    -0.019 A 
HETATM    9  C   UNL     1      -4.911   1.170 -31.843  1.00  0.00     0.069 C 
HETATM   10  C   UNL     1      -5.324   2.640 -32.037  1.00  0.00     0.238 C 
HETATM   11  N   UNL     1      -6.786   2.744 -32.395  1.00  0.00    -0.061 N 
HETATM   12  H   UNL     1      -7.344   2.291 -31.664  1.00  0.00     0.278 HD
HETATM   13  H   UNL     1      -7.088   3.724 -32.422  1.00  0.00     0.278 HD
HETATM   14  C   UNL     1      -7.148   2.094 -33.707  1.00  0.00     0.269 C 
HETATM   15  C   UNL     1      -5.867  -2.555 -35.071  1.00  0.00     0.033 A 
HETATM   16  C   UNL     1      -4.952  -3.499 -34.583  1.00  0.00     0.039 A 
ENDROOT
BRANCH  14  17
HETATM   17  C   UNL     1      -8.655   2.031 -33.850  1.00  0.00    -0.019 A 
HETATM   18  C   UNL     1      -9.367   3.026 -34.546  1.00  0.00     0.049 A 
HETATM   19  C   UNL     1     -10.757   2.950 -34.686  1.00  0.00     0.102 A 
HETATM   20  C   UNL     1     -11.458   1.855 -34.151  1.00  0.00     0.102 A 
HETATM   21  C   UNL     1     -10.753   0.852 -33.484  1.00  0.00     0.040 A 
HETATM   22  C   UNL     1      -9.365   0.939 -33.330  1.00  0.00     0.012 A 
BRANCH  19  23
HETATM   23  O   UNL     1     -11.501   3.884 -35.361  1.00  0.00    -0.353 OA
HETATM   24  C   UNL     1     -11.169   5.252 -35.156  1.00  0.00     0.210 C 
ENDBRANCH  19  23
BRANCH  20  25
HETATM   25  O   UNL     1     -12.812   1.856 -34.348  1.00  0.00    -0.343 OA
BRANCH  25  26
HETATM   26  C   UNL     1     -13.681   1.601 -33.250  1.00  0.00     0.129 C 
HETATM   27  C   UNL     1     -13.973   2.852 -32.421  1.00  0.00     0.032 C 
HETATM   28  C   UNL     1     -15.322   2.548 -31.798  1.00  0.00     0.002 C 
HETATM   29  C   UNL     1     -16.099   1.912 -32.940  1.00  0.00     0.002 C 
HETATM   30  C   UNL     1     -15.058   1.189 -33.794  1.00  0.00     0.032 C 
ENDBRANCH  25  26
ENDBRANCH  20  25
ENDBRANCH  14  17
BRANCH   1  31
HETATM   31  O   UNL     1      -3.205  -4.056 -32.942  1.00  0.00    -0.356 OA
HETATM   32  C   UNL     1      -2.760  -3.753 -31.624  1.00  0.00     0.210 C 
ENDBRANCH   1  31
TORSDOF 5
ENDMDL
MODEL 3
REMARK VINA RESULT:      -8.4      2.029      8.244
REMARK  5 active torsions:
REMARK  status: ('A' for Active; 'I' for Inactive)
REMARK    1  A    between atoms: O_2  and  C_3 
REMARK    2  A    between atoms: C_16  and  C_17 
REMARK    3  A    between atoms: C_19  and  O_20 
REMARK    4  A    between atoms: C_22  and  O_23 
REMARK    5  A    between atoms: O_23  and  C_24 
ROOT
HETATM    1  C   UNL     1      -2.222   7.070 -33.261  1.00  0.00     0.069 A 
HETATM    2  C   UNL     1      -3.536   6.995 -32.781  1.00  0.00     0.051 A 
HETATM    3  C   UNL     1      -4.409   6.008 -33.273  1.00  0.00     0.002 A 
HETATM    4  C   UNL     1      -3.939   5.123 -34.244  1.00  0.00     0.043 A 
HETATM    5  N   UNL     1      -4.968   4.263 -34.562  1.00  0.00    -0.356 N 
HETATM    6  H   UNL     1      -4.886   3.512 -35.240  1.00  0.00     0.166 HD
HETATM    7  C   UNL     1      -6.063   4.552 -33.789  1.00  0.00     0.052 A 
HETATM    8  C   UNL     1      -5.756   5.648 -33.005  1.00  0.00    -0.019 A 
HETATM    9  C   UNL     1      -6.737   6.243 -32.053  1.00  0.00     0.069 C 
HETATM   10  C   UNL     1      -8.161   5.756 -32.376  1.00  0.00     0.238 C 
HETATM   11  N   UNL     1      -8.177   4.267 -32.618  1.00  0.00    -0.061 N 
HETATM   12  H   UNL     1      -7.794   3.789 -31.795  1.00  0.00     0.278 HD
HETATM   13  H   UNL     1      -9.137   3.923 -32.729  1.00  0.00     0.278 HD
HETATM   14  C   UNL     1      -7.367   3.826 -33.811  1.00  0.00     0.269 C 
HETATM   15  C   UNL     1      -2.634   5.182 -34.743  1.00  0.00     0.033 A 
HETATM   16  C   UNL     1      -1.782   6.172 -34.232  1.00  0.00     0.039 A 
ENDROOT
BRANCH  14  17
HETATM   17  C   UNL     1      -7.240   2.316 -33.816  1.00  0.00    -0.019 A 
HETATM   18  C   UNL     1      -6.758   1.617 -32.693  1.00  0.00     0.049 A 
HETATM   19  C   UNL     1      -6.660   0.222 -32.702  1.00  0.00     0.102 A 
HETATM   20  C   UNL     1      -7.073  -0.503 -33.834  1.00  0.00     0.102 A 
HETATM   21  C   UNL     1      -7.577   0.183 -34.939  1.00  0.00     0.040 A 
HETATM   22  C   UNL     1      -7.657   1.580 -34.934  1.00  0.00     0.012 A 
BRANCH  19  23
HETATM   23  O   UNL     1      -6.208  -0.511 -31.635  1.00  0.00    -0.353 OA
HETATM   24  C   UNL     1      -5.064  -0.020 -30.946  1.00  0.00     0.210 C 
ENDBRANCH  19  23
BRANCH  20  25
HETATM   25  O   UNL     1      -6.955  -1.864 -33.749  1.00  0.00    -0.343 OA
BRANCH  25  26
HETATM   26  C   UNL     1      -5.989  -2.536 -34.550  1.00  0.00     0.129 C 
HETATM   27  C   UNL     1      -4.653  -2.728 -33.833  1.00  0.00     0.032 C 
HETATM   28  C   UNL     1      -4.066  -3.949 -34.516  1.00  0.00     0.002 C 
HETATM   29  C   UNL     1      -5.259  -4.880 -34.652  1.00  0.00     0.002 C 
HETATM   30  C   UNL     1      -6.477  -3.971 -34.812  1.00  0.00     0.032 C 
ENDBRANCH  25  26
ENDBRANCH  20  25
ENDBRANCH  14  17
BRANCH   1  31
HETATM   31  O   UNL     1      -1.476   8.068 -32.694  1.00  0.00    -0.356 OA
HETATM   32  C   UNL     1      -1.639   8.284 -31.296  1.00  0.00     0.210 C 
ENDBRANCH   1  31
TORSDOF 5
ENDMDL
MODEL 4
REMARK VINA RESULT:      -8.3      1.259      2.109
REMARK  5 active torsions:
REMARK  status: ('A' for Active; 'I' for Inactive)
REMARK    1  A    between atoms: O_2  and  C_3 
REMARK    2  A    between atoms: C_16  and  C_17 
REMARK    3  A    between atoms: C_19  and  O_20 
REMARK    4  A    between atoms: C_22  and  O_23 
REMARK    5  A    between atoms: O_23  and  C_24 
ROOT
HETATM    1  C   UNL     1      -4.929  -2.844 -34.138  1.00  0.00     0.069 A 
HETATM    2  C   UNL     1      -6.048  -2.061 -34.453  1.00  0.00     0.051 A 
HETATM    3  C   UNL     1      -6.233  -0.816 -33.824  1.00  0.00     0.002 A 
HETATM    4  C   UNL     1      -5.290  -0.392 -32.887  1.00  0.00     0.043 A 
HETATM    5  N   UNL     1      -5.690   0.841 -32.418  1.00  0.00    -0.356 N 
HETATM    6  H   UNL     1      -5.172   1.377 -31.730  1.00  0.00     0.166 HD
HETATM    7  C   UNL     1      -6.836   1.228 -33.063  1.00  0.00     0.052 A 
HETATM    8  C   UNL     1      -7.212   0.208 -33.916  1.00  0.00    -0.019 A 
HETATM    9  C   UNL     1      -8.437   0.292 -34.763  1.00  0.00     0.069 C 
HETATM   10  C   UNL     1      -9.366   1.409 -34.253  1.00  0.00     0.238 C 
HETATM   11  N   UNL     1      -8.583   2.665 -33.960  1.00  0.00    -0.061 N 
HETATM   12  H   UNL     1      -8.079   2.952 -34.806  1.00  0.00     0.278 HD
HETATM   13  H   UNL     1      -9.210   3.441 -33.722  1.00  0.00     0.278 HD
HETATM   14  C   UNL     1      -7.563   2.515 -32.859  1.00  0.00     0.269 C 
HETATM   15  C   UNL     1      -4.170  -1.159 -32.552  1.00  0.00     0.033 A 
HETATM   16  C   UNL     1      -4.006  -2.393 -33.196  1.00  0.00     0.039 A 
ENDROOT
BRANCH  14  17
HETATM   17  C   UNL     1      -6.669   3.737 -32.816  1.00  0.00    -0.019 A 
HETATM   18  C   UNL     1      -6.539   4.510 -31.646  1.00  0.00     0.049 A 
HETATM   19  C   UNL     1      -5.699   5.628 -31.613  1.00  0.00     0.102 A 
HETATM   20  C   UNL     1      -4.948   5.976 -32.750  1.00  0.00     0.102 A 
HETATM   21  C   UNL     1      -5.053   5.197 -33.903  1.00  0.00     0.040 A 
HETATM   22  C   UNL     1      -5.908   4.090 -33.940  1.00  0.00     0.012 A 
BRANCH  19  23
HETATM   23  O   UNL     1      -5.525   6.410 -30.500  1.00  0.00    -0.353 OA
HETATM   24  C   UNL     1      -5.190   5.748 -29.286  1.00  0.00     0.210 C 
ENDBRANCH  19  23
BRANCH  20  25
HETATM   25  O   UNL     1      -4.142   7.074 -32.623  1.00  0.00    -0.343 OA
BRANCH  25  26
HETATM   26  C   UNL     1      -2.732   6.902 -32.533  1.00  0.00     0.129 C 
HETATM   27  C   UNL     1      -2.332   5.499 -32.075  1.00  0.00     0.032 C 
HETATM   28  C   UNL     1      -0.944   5.325 -32.662  1.00  0.00     0.002 C 
HETATM   29  C   UNL     1      -1.080   5.910 -34.058  1.00  0.00     0.002 C 
HETATM   30  C   UNL     1      -2.129   7.015 -33.943  1.00  0.00     0.032 C 
ENDBRANCH  25  26
ENDBRANCH  20  25
ENDBRANCH  14  17
BRANCH   1  31
HETATM   31  O   UNL     1      -4.863  -4.026 -34.825  1.00  0.00    -0.356 OA
HETATM   32  C   UNL     1      -6.086  -4.550 -35.332  1.00  0.00     0.210 C 
ENDBRANCH   1  31
TORSDOF 5
ENDMDL
MODEL 5
REMARK VINA RESULT:      -8.2      2.467      8.569
REMARK  5 active torsions:
REMARK  status: ('A' for Active; 'I' for Inactive)
REMARK    1  A    between atoms: O_2  and  C_3 
REMARK    2  A    between atoms: C_16  and  C_17 
REMARK    3  A    between atoms: C_19  and  O_20 
REMARK    4  A    between atoms: C_22  and  O_23 
REMARK    5  A    between atoms: O_23  and  C_24 
ROOT
HETATM    1  C   UNL     1       0.096   6.986 -29.946  1.00  0.00     0.069 A 
HETATM    2  C   UNL     1      -1.278   7.250 -30.035  1.00  0.00     0.051 A 
HETATM    3  C   UNL     1      -2.083   6.491 -30.904  1.00  0.00     0.002 A 
HETATM    4  C   UNL     1      -1.484   5.490 -31.669  1.00  0.00     0.043 A 
HETATM    5  N   UNL     1      -2.468   4.898 -32.432  1.00  0.00    -0.356 N 
HETATM    6  H   UNL     1      -2.300   4.131 -33.073  1.00  0.00     0.166 HD
HETATM    7  C   UNL     1      -3.681   5.469 -32.139  1.00  0.00     0.052 A 
HETATM    8  C   UNL     1      -3.467   6.480 -31.221  1.00  0.00    -0.019 A 
HETATM    9  C   UNL     1      -4.579   7.325 -30.697  1.00  0.00     0.069 C 
HETATM   10  C   UNL     1      -5.822   7.191 -31.595  1.00  0.00     0.238 C 
HETATM   11  N   UNL     1      -6.089   5.744 -31.930  1.00  0.00    -0.061 N 
HETATM   12  H   UNL     1      -6.195   5.212 -31.059  1.00  0.00     0.278 HD
HETATM   13  H   UNL     1      -6.974   5.642 -32.438  1.00  0.00     0.278 HD
HETATM   14  C   UNL     1      -4.995   5.083 -32.731  1.00  0.00     0.269 C 
HETATM   15  C   UNL     1      -0.115   5.213 -31.602  1.00  0.00     0.033 A 
HETATM   16  C   UNL     1       0.665   5.980 -30.724  1.00  0.00     0.039 A 
ENDROOT
BRANCH  14  17
HETATM   17  C   UNL     1      -5.237   3.589 -32.794  1.00  0.00    -0.019 A 
HETATM   18  C   UNL     1      -4.662   2.713 -31.853  1.00  0.00     0.049 A 
HETATM   19  C   UNL     1      -4.904   1.337 -31.911  1.00  0.00     0.102 A 
HETATM   20  C   UNL     1      -5.754   0.815 -32.902  1.00  0.00     0.102 A 
HETATM   21  C   UNL     1      -6.347   1.682 -33.820  1.00  0.00     0.040 A 
HETATM   22  C   UNL     1      -6.089   3.056 -33.771  1.00  0.00     0.012 A 
BRANCH  19  23
HETATM   23  O   UNL     1      -4.380   0.439 -31.016  1.00  0.00    -0.353 OA
HETATM   24  C   UNL     1      -3.033   0.029 -31.219  1.00  0.00     0.210 C 
ENDBRANCH  19  23
BRANCH  20  25
HETATM   25  O   UNL     1      -5.945  -0.540 -32.874  1.00  0.00    -0.343 OA
BRANCH  25  26
HETATM   26  C   UNL     1      -5.828  -1.290 -34.078  1.00  0.00     0.129 C 
HETATM   27  C   UNL     1      -4.744  -2.366 -34.004  1.00  0.00     0.032 C 
HETATM   28  C   UNL     1      -5.211  -3.398 -35.014  1.00  0.00     0.002 C 
HETATM   29  C   UNL     1      -6.709  -3.480 -34.762  1.00  0.00     0.002 C 
HETATM   30  C   UNL     1      -7.125  -2.087 -34.293  1.00  0.00     0.032 C 
ENDBRANCH  25  26
ENDBRANCH  20  25
ENDBRANCH  14  17
BRANCH   1  31
HETATM   31  O   UNL     1       0.762   7.788 -29.058  1.00  0.00    -0.356 OA
HETATM   32  C   UNL     1       0.596   7.498 -27.674  1.00  0.00     0.210 C 
ENDBRANCH   1  31
TORSDOF 5
ENDMDL
MODEL 6
REMARK VINA RESULT:      -7.9      3.091      9.151
REMARK  5 active torsions:
REMARK  status: ('A' for Active; 'I' for Inactive)
REMARK    1  A    between atoms: O_2  and  C_3 
REMARK    2  A    between atoms: C_16  and  C_17 
REMARK    3  A    between atoms: C_19  and  O_20 
REMARK    4  A    between atoms: C_22  and  O_23 
REMARK    5  A    between atoms: O_23  and  C_24 
ROOT
HETATM    1  C   UNL     1      -2.262   9.574 -29.522  1.00  0.00     0.069 A 
HETATM    2  C   UNL     1      -2.027   9.068 -30.808  1.00  0.00     0.051 A 
HETATM    3  C   UNL     1      -2.147   7.688 -31.053  1.00  0.00     0.002 A 
HETATM    4  C   UNL     1      -2.493   6.847 -29.994  1.00  0.00     0.043 A 
HETATM    5  N   UNL     1      -2.544   5.559 -30.480  1.00  0.00    -0.356 N 
HETATM    6  H   UNL     1      -2.783   4.752 -29.914  1.00  0.00     0.166 HD
HETATM    7  C   UNL     1      -2.281   5.566 -31.826  1.00  0.00     0.052 A 
HETATM    8  C   UNL     1      -2.000   6.866 -32.201  1.00  0.00    -0.019 A 
HETATM    9  C   UNL     1      -1.650   7.230 -33.604  1.00  0.00     0.069 C 
HETATM   10  C   UNL     1      -1.257   5.973 -34.402  1.00  0.00     0.238 C 
HETATM   11  N   UNL     1      -2.235   4.852 -34.152  1.00  0.00    -0.061 N 
HETATM   12  H   UNL     1      -3.180   5.170 -34.394  1.00  0.00     0.278 HD
HETATM   13  H   UNL     1      -2.038   4.050 -34.760  1.00  0.00     0.278 HD
HETATM   14  C   UNL     1      -2.274   4.373 -32.723  1.00  0.00     0.269 C 
HETATM   15  C   UNL     1      -2.726   7.328 -28.701  1.00  0.00     0.033 A 
HETATM   16  C   UNL     1      -2.606   8.708 -28.485  1.00  0.00     0.039 A 
ENDROOT
BRANCH  14  17
HETATM   17  C   UNL     1      -3.450   3.437 -32.527  1.00  0.00    -0.019 A 
HETATM   18  C   UNL     1      -3.297   2.192 -31.888  1.00  0.00     0.049 A 
HETATM   19  C   UNL     1      -4.392   1.342 -31.698  1.00  0.00     0.102 A 
HETATM   20  C   UNL     1      -5.672   1.742 -32.122  1.00  0.00     0.102 A 
HETATM   21  C   UNL     1      -5.833   2.987 -32.730  1.00  0.00     0.040 A 
HETATM   22  C   UNL     1      -4.733   3.827 -32.936  1.00  0.00     0.012 A 
BRANCH  19  23
HETATM   23  O   UNL     1      -4.304   0.124 -31.074  1.00  0.00    -0.353 OA
HETATM   24  C   UNL     1      -3.327  -0.787 -31.562  1.00  0.00     0.210 C 
ENDBRANCH  19  23
BRANCH  20  25
HETATM   25  O   UNL     1      -6.686   0.855 -31.881  1.00  0.00    -0.343 OA
BRANCH  25  26
HETATM   26  C   UNL     1      -7.357   0.243 -32.977  1.00  0.00     0.129 C 
HETATM   27  C   UNL     1      -7.207   1.029 -34.280  1.00  0.00     0.032 C 
HETATM   28  C   UNL     1      -7.374  -0.035 -35.348  1.00  0.00     0.002 C 
HETATM   29  C   UNL     1      -6.577  -1.208 -34.800  1.00  0.00     0.002 C 
HETATM   30  C   UNL     1      -6.682  -1.105 -33.279  1.00  0.00     0.032 C 
ENDBRANCH  25  26
ENDBRANCH  20  25
ENDBRANCH  14  17
BRANCH   1  31
HETATM   31  O   UNL     1      -2.122  10.932 -29.421  1.00  0.00    -0.356 OA
HETATM   32  C   UNL     1      -1.928  11.468 -28.117  1.00  0.00     0.210 C 
ENDBRANCH   1  31
TORSDOF 5
ENDMDL
MODEL 7
REMARK VINA RESULT:      -7.9      1.748      2.539
REMARK  5 active torsions:
REMARK  status: ('A' for Active; 'I' for Inactive)
REMARK    1  A    between atoms: O_2  and  C_3 
REMARK    2  A    between atoms: C_16  and  C_17 
REMARK    3  A    between atoms: C_19  and  O_20 
REMARK    4  A    between atoms: C_22  and  O_23 
REMARK    5  A    between atoms: O_23  and  C_24 
ROOT
HETATM    1  C   UNL     1      -4.221  -1.674 -33.170  1.00  0.00     0.069 A 
HETATM    2  C   UNL     1      -5.031  -0.577 -33.496  1.00  0.00     0.051 A 
HETATM    3  C   UNL     1      -4.903   0.628 -32.780  1.00  0.00     0.002 A 
HETATM    4  C   UNL     1      -3.967   0.697 -31.747  1.00  0.00     0.043 A 
HETATM    5  N   UNL     1      -4.032   1.962 -31.206  1.00  0.00    -0.356 N 
HETATM    6  H   UNL     1      -3.446   2.279 -30.441  1.00  0.00     0.166 HD
HETATM    7  C   UNL     1      -4.954   2.710 -31.895  1.00  0.00     0.052 A 
HETATM    8  C   UNL     1      -5.531   1.899 -32.854  1.00  0.00    -0.019 A 
HETATM    9  C   UNL     1      -6.596   2.392 -33.774  1.00  0.00     0.069 C 
HETATM   10  C   UNL     1      -7.202   3.702 -33.238  1.00  0.00     0.238 C 
HETATM   11  N   UNL     1      -6.119   4.650 -32.788  1.00  0.00    -0.061 N 
HETATM   12  H   UNL     1      -5.478   4.825 -33.570  1.00  0.00     0.278 HD
HETATM   13  H   UNL     1      -6.512   5.561 -32.530  1.00  0.00     0.278 HD
HETATM   14  C   UNL     1      -5.291   4.140 -31.635  1.00  0.00     0.269 C 
HETATM   15  C   UNL     1      -3.153  -0.386 -31.400  1.00  0.00     0.033 A 
HETATM   16  C   UNL     1      -3.296  -1.573 -32.133  1.00  0.00     0.039 A 
ENDROOT
BRANCH  14  17
HETATM   17  C   UNL     1      -4.089   5.038 -31.428  1.00  0.00    -0.019 A 
HETATM   18  C   UNL     1      -3.026   5.063 -32.352  1.00  0.00     0.049 A 
HETATM   19  C   UNL     1      -1.927   5.907 -32.160  1.00  0.00     0.102 A 
HETATM   20  C   UNL     1      -1.888   6.766 -31.048  1.00  0.00     0.102 A 
HETATM   21  C   UNL     1      -2.952   6.765 -30.144  1.00  0.00     0.040 A 
HETATM   22  C   UNL     1      -4.041   5.906 -30.329  1.00  0.00     0.012 A 
BRANCH  19  23
HETATM   23  O   UNL     1      -0.870   5.981 -33.030  1.00  0.00    -0.353 OA
HETATM   24  C   UNL     1      -1.169   6.257 -34.394  1.00  0.00     0.210 C 
ENDBRANCH  19  23
BRANCH  20  25
HETATM   25  O   UNL     1      -0.783   7.568 -30.949  1.00  0.00    -0.343 OA
BRANCH  25  26
HETATM   26  C   UNL     1       0.266   7.208 -30.057  1.00  0.00     0.129 C 
HETATM   27  C   UNL     1       0.253   8.023 -28.764  1.00  0.00     0.032 C 
HETATM   28  C   UNL     1       0.935   7.104 -27.768  1.00  0.00     0.002 C 
HETATM   29  C   UNL     1       0.341   5.741 -28.087  1.00  0.00     0.002 C 
HETATM   30  C   UNL     1       0.040   5.762 -29.585  1.00  0.00     0.032 C 
ENDBRANCH  25  26
ENDBRANCH  20  25
ENDBRANCH  14  17
BRANCH   1  31
HETATM   31  O   UNL     1      -4.439  -2.779 -33.948  1.00  0.00    -0.356 OA
HETATM   32  C   UNL     1      -5.599  -2.772 -34.773  1.00  0.00     0.210 C 
ENDBRANCH   1  31
TORSDOF 5
ENDMDL
MODEL 8
REMARK VINA RESULT:      -7.7      3.554      9.394
REMARK  5 active torsions:
REMARK  status: ('A' for Active; 'I' for Inactive)
REMARK    1  A    between atoms: O_2  and  C_3 
REMARK    2  A    between atoms: C_16  and  C_17 
REMARK    3  A    between atoms: C_19  and  O_20 
REMARK    4  A    between atoms: C_22  and  O_23 
REMARK    5  A    between atoms: O_23  and  C_24 
ROOT
HETATM    1  C   UNL     1       0.241   8.032 -26.815  1.00  0.00     0.069 A 
HETATM    2  C   UNL     1      -0.915   8.387 -27.525  1.00  0.00     0.051 A 
HETATM    3  C   UNL     1      -1.336   7.607 -28.617  1.00  0.00     0.002 A 
HETATM    4  C   UNL     1      -0.580   6.490 -28.974  1.00  0.00     0.043 A 
HETATM    5  N   UNL     1      -1.189   5.900 -30.060  1.00  0.00    -0.356 N 
HETATM    6  H   UNL     1      -0.843   5.060 -30.512  1.00  0.00     0.166 HD
HETATM    7  C   UNL     1      -2.333   6.587 -30.374  1.00  0.00     0.052 A 
HETATM    8  C   UNL     1      -2.432   7.667 -29.517  1.00  0.00    -0.019 A 
HETATM    9  C   UNL     1      -3.557   8.643 -29.596  1.00  0.00     0.069 C 
HETATM   10  C   UNL     1      -4.286   8.512 -30.947  1.00  0.00     0.238 C 
HETATM   11  N   UNL     1      -4.541   7.063 -31.281  1.00  0.00    -0.061 N 
HETATM   12  H   UNL     1      -5.077   6.632 -30.520  1.00  0.00     0.278 HD
HETATM   13  H   UNL     1      -5.117   6.976 -32.124  1.00  0.00     0.278 HD
HETATM   14  C   UNL     1      -3.288   6.243 -31.468  1.00  0.00     0.269 C 
HETATM   15  C   UNL     1       0.580   6.120 -28.285  1.00  0.00     0.033 A 
HETATM   16  C   UNL     1       0.975   6.911 -27.197  1.00  0.00     0.039 A 
ENDROOT
BRANCH  14  17
HETATM   17  C   UNL     1      -3.645   4.773 -31.546  1.00  0.00    -0.019 A 
HETATM   18  C   UNL     1      -4.645   4.216 -30.725  1.00  0.00     0.049 A 
HETATM   19  C   UNL     1      -4.977   2.860 -30.816  1.00  0.00     0.102 A 
HETATM   20  C   UNL     1      -4.328   2.040 -31.756  1.00  0.00     0.102 A 
HETATM   21  C   UNL     1      -3.355   2.593 -32.590  1.00  0.00     0.040 A 
HETATM   22  C   UNL     1      -3.012   3.945 -32.484  1.00  0.00     0.012 A 
BRANCH  19  23
HETATM   23  O   UNL     1      -5.949   2.267 -30.051  1.00  0.00    -0.353 OA
HETATM   24  C   UNL     1      -7.243   2.858 -30.071  1.00  0.00     0.210 C 
ENDBRANCH  19  23
BRANCH  20  25
HETATM   25  O   UNL     1      -4.727   0.732 -31.786  1.00  0.00    -0.343 OA
BRANCH  25  26
HETATM   26  C   UNL     1      -5.080   0.134 -33.028  1.00  0.00     0.129 C 
HETATM   27  C   UNL     1      -4.722  -1.351 -33.097  1.00  0.00     0.032 C 
HETATM   28  C   UNL     1      -5.710  -1.899 -34.109  1.00  0.00     0.002 C 
HETATM   29  C   UNL     1      -7.012  -1.210 -33.735  1.00  0.00     0.002 C 
HETATM   30  C   UNL     1      -6.611   0.151 -33.169  1.00  0.00     0.032 C 
ENDBRANCH  25  26
ENDBRANCH  20  25
ENDBRANCH  14  17
BRANCH   1  31
HETATM   31  O   UNL     1       0.534   8.867 -25.772  1.00  0.00    -0.356 OA
HETATM   32  C   UNL     1      -0.550   9.582 -25.189  1.00  0.00     0.210 C 
ENDBRANCH   1  31
TORSDOF 5
ENDMDL
MODEL 9
REMARK VINA RESULT:      -7.6      3.427      8.718
REMARK  5 active torsions:
REMARK  status: ('A' for Active; 'I' for Inactive)
REMARK    1  A    between atoms: O_2  and  C_3 
REMARK    2  A    between atoms: C_16  and  C_17 
REMARK    3  A    between atoms: C_19  and  O_20 
REMARK    4  A    between atoms: C_22  and  O_23 
REMARK    5  A    between atoms: O_23  and  C_24 
ROOT
HETATM    1  C   UNL     1      -2.427   5.147 -31.712  1.00  0.00     0.069 A 
HETATM    2  C   UNL     1      -2.535   3.794 -32.062  1.00  0.00     0.051 A 
HETATM    3  C   UNL     1      -3.757   3.118 -31.884  1.00  0.00     0.002 A 
HETATM    4  C   UNL     1      -4.839   3.820 -31.352  1.00  0.00     0.043 A 
HETATM    5  N   UNL     1      -5.906   2.951 -31.275  1.00  0.00    -0.356 N 
HETATM    6  H   UNL     1      -6.822   3.213 -30.929  1.00  0.00     0.166 HD
HETATM    7  C   UNL     1      -5.541   1.730 -31.784  1.00  0.00     0.052 A 
HETATM    8  C   UNL     1      -4.207   1.796 -32.139  1.00  0.00    -0.019 A 
HETATM    9  C   UNL     1      -3.479   0.628 -32.713  1.00  0.00     0.069 C 
HETATM   10  C   UNL     1      -4.266  -0.671 -32.458  1.00  0.00     0.238 C 
HETATM   11  N   UNL     1      -5.729  -0.484 -32.776  1.00  0.00    -0.061 N 
HETATM   12  H   UNL     1      -5.824  -0.171 -33.749  1.00  0.00     0.278 HD
HETATM   13  H   UNL     1      -6.236  -1.372 -32.709  1.00  0.00     0.278 HD
HETATM   14  C   UNL     1      -6.425   0.534 -31.907  1.00  0.00     0.269 C 
HETATM   15  C   UNL     1      -4.752   5.168 -30.990  1.00  0.00     0.033 A 
HETATM   16  C   UNL     1      -3.526   5.820 -31.182  1.00  0.00     0.039 A 
ENDROOT
BRANCH  14  17
HETATM   17  C   UNL     1      -7.802   0.830 -32.465  1.00  0.00    -0.019 A 
HETATM   18  C   UNL     1      -8.036   1.954 -33.280  1.00  0.00     0.049 A 
HETATM   19  C   UNL     1      -9.308   2.209 -33.803  1.00  0.00     0.102 A 
HETATM   20  C   UNL     1     -10.367   1.322 -33.540  1.00  0.00     0.102 A 
HETATM   21  C   UNL     1     -10.133   0.192 -32.755  1.00  0.00     0.040 A 
HETATM   22  C   UNL     1      -8.864  -0.051 -32.218  1.00  0.00     0.012 A 
BRANCH  19  23
HETATM   23  O   UNL     1      -9.592   3.281 -34.611  1.00  0.00    -0.353 OA
HETATM   24  C   UNL     1      -9.604   4.567 -34.004  1.00  0.00     0.210 C 
ENDBRANCH  19  23
BRANCH  20  25
HETATM   25  O   UNL     1     -11.571   1.643 -34.104  1.00  0.00    -0.343 OA
BRANCH  25  26
HETATM   26  C   UNL     1     -12.777   1.280 -33.439  1.00  0.00     0.129 C 
HETATM   27  C   UNL     1     -13.737   2.457 -33.267  1.00  0.00     0.032 C 
HETATM   28  C   UNL     1     -15.095   1.786 -33.185  1.00  0.00     0.002 C 
HETATM   29  C   UNL     1     -15.022   0.715 -34.261  1.00  0.00     0.002 C 
HETATM   30  C   UNL     1     -13.554   0.295 -34.326  1.00  0.00     0.032 C 
ENDBRANCH  25  26
ENDBRANCH  20  25
ENDBRANCH  14  17
BRANCH   1  31
HETATM   31  O   UNL     1      -1.190   5.686 -31.943  1.00  0.00    -0.356 OA
HETATM   32  C   UNL     1      -0.175   5.413 -30.983  1.00  0.00     0.210 C 
ENDBRANCH   1  31
TORSDOF 5
ENDMDL
MODEL 10
REMARK VINA RESULT:      -7.4      4.162      6.551
REMARK  5 active torsions:
REMARK  status: ('A' for Active; 'I' for Inactive)
REMARK    1  A    between atoms: O_2  and  C_3 
REMARK    2  A    between atoms: C_16  and  C_17 
REMARK    3  A    between atoms: C_19  and  O_20 
REMARK    4  A    between atoms: C_22  and  O_23 
REMARK    5  A    between atoms: O_23  and  C_24 
ROOT
HETATM    1  C   UNL     1      -4.655   1.446 -32.235  1.00  0.00     0.069 A 
HETATM    2  C   UNL     1      -3.765   2.314 -32.882  1.00  0.00     0.051 A 
HETATM    3  C   UNL     1      -3.455   3.560 -32.306  1.00  0.00     0.002 A 
HETATM    4  C   UNL     1      -4.057   3.907 -31.096  1.00  0.00     0.043 A 
HETATM    5  N   UNL     1      -3.602   5.158 -30.744  1.00  0.00    -0.356 N 
HETATM    6  H   UNL     1      -3.879   5.641 -29.896  1.00  0.00     0.166 HD
HETATM    7  C   UNL     1      -2.696   5.596 -31.676  1.00  0.00     0.052 A 
HETATM    8  C   UNL     1      -2.611   4.641 -32.671  1.00  0.00    -0.019 A 
HETATM    9  C   UNL     1      -1.724   4.808 -33.859  1.00  0.00     0.069 C 
HETATM   10  C   UNL     1      -1.294   6.280 -34.003  1.00  0.00     0.238 C 
HETATM   11  N   UNL     1      -0.860   6.845 -32.673  1.00  0.00    -0.061 N 
HETATM   12  H   UNL     1      -0.103   6.267 -32.293  1.00  0.00     0.278 HD
HETATM   13  H   UNL     1      -0.475   7.788 -32.783  1.00  0.00     0.278 HD
HETATM   14  C   UNL     1      -1.954   6.891 -31.635  1.00  0.00     0.269 C 
HETATM   15  C   UNL     1      -4.953   3.060 -30.436  1.00  0.00     0.033 A 
HETATM   16  C   UNL     1      -5.240   1.821 -31.027  1.00  0.00     0.039 A 
ENDROOT
BRANCH  14  17
HETATM   17  C   UNL     1      -1.364   7.229 -30.282  1.00  0.00    -0.019 A 
HETATM   18  C   UNL     1      -2.144   7.818 -29.268  1.00  0.00     0.049 A 
HETATM   19  C   UNL     1      -1.594   8.113 -28.016  1.00  0.00     0.102 A 
HETATM   20  C   UNL     1      -0.251   7.793 -27.748  1.00  0.00     0.102 A 
HETATM   21  C   UNL     1       0.519   7.185 -28.740  1.00  0.00     0.040 A 
HETATM   22  C   UNL     1      -0.029   6.908 -29.997  1.00  0.00     0.012 A 
BRANCH  19  23
HETATM   23  O   UNL     1      -2.308   8.676 -26.990  1.00  0.00    -0.353 OA
HETATM   24  C   UNL     1      -2.743  10.019 -27.161  1.00  0.00     0.210 C 
ENDBRANCH  19  23
BRANCH  20  25
HETATM   25  O   UNL     1       0.199   8.103 -26.493  1.00  0.00    -0.343 OA
BRANCH  25  26
HETATM   26  C   UNL     1       1.123   9.172 -26.323  1.00  0.00     0.129 C 
HETATM   27  C   UNL     1       0.600  10.268 -25.396  1.00  0.00     0.032 C 
HETATM   28  C   UNL     1       1.869  10.893 -24.847  1.00  0.00     0.002 C 
HETATM   29  C   UNL     1       2.754   9.691 -24.559  1.00  0.00     0.002 C 
HETATM   30  C   UNL     1       2.368   8.637 -25.596  1.00  0.00     0.032 C 
ENDBRANCH  25  26
ENDBRANCH  20  25
ENDBRANCH  14  17
BRANCH   1  31
HETATM   31  O   UNL     1      -4.862   0.264 -32.894  1.00  0.00    -0.356 OA
HETATM   32  C   UNL     1      -5.676  -0.706 -32.245  1.00  0.00     0.210 C 
ENDBRANCH   1  31
TORSDOF 5
ENDMDL
