MODEL 1
REMARK VINA RESULT:      -8.4      0.000      0.000
REMARK  9 active torsions:
REMARK  status: ('A' for Active; 'I' for Inactive)
REMARK    1  A    between atoms: C_2  and  O_3 
REMARK    2  A    between atoms: O_3  and  C_4 
REMARK    3  A    between atoms: C_5  and  O_6 
REMARK    4  A    between atoms: O_6  and  C_7 
REMARK    5  A    between atoms: C_7  and  C_8 
REMARK       I    between atoms: C_8  and  N_9 
REMARK    6  A    between atoms: N_9  and  C_10 
REMARK    7  A    between atoms: C_19  and  C_20 
REMARK    8  A    between atoms: C_21  and  C_22 
REMARK    9  A    between atoms: C_27  and  C_28 
ROOT
HETATM    1  C   UNL     1      -6.444   2.429 -31.941  1.00  0.00     0.102 A 
HETATM    2  C   UNL     1      -6.899   2.721 -33.242  1.00  0.00     0.102 A 
HETATM    3  C   UNL     1      -6.274   3.722 -33.988  1.00  0.00     0.040 A 
HETATM    4  C   UNL     1      -5.176   4.406 -33.460  1.00  0.00     0.014 A 
HETATM    5  C   UNL     1      -4.694   4.100 -32.184  1.00  0.00    -0.033 A 
HETATM    6  C   UNL     1      -5.349   3.127 -31.420  1.00  0.00     0.051 A 
ENDROOT
BRANCH   2   7
HETATM    7  O   UNL     1      -7.953   1.961 -33.692  1.00  0.00    -0.339 OA
BRANCH   7   8
HETATM    8  C   UNL     1      -7.708   1.024 -34.732  1.00  0.00     0.278 C 
BRANCH   8   9
HETATM    9  C   UNL     1      -7.522  -0.436 -34.293  1.00  0.00     0.246 C 
HETATM   10  N   UNL     1      -6.422  -1.032 -34.884  1.00  0.00    -0.325 N 
HETATM   11  H   UNL     1      -5.927  -0.454 -35.559  1.00  0.00     0.169 HD
HETATM   12  O   UNL     1      -8.281  -0.942 -33.471  1.00  0.00    -0.271 OA
BRANCH  10  13
HETATM   13  C   UNL     1      -5.969  -2.356 -34.740  1.00  0.00     0.034 A 
HETATM   14  C   UNL     1      -6.733  -3.481 -35.051  1.00  0.00     0.029 A 
HETATM   15  C   UNL     1      -6.204  -4.766 -34.885  1.00  0.00     0.002 A 
HETATM   16  C   UNL     1      -4.907  -4.935 -34.406  1.00  0.00     0.000 A 
HETATM   17  C   UNL     1      -4.137  -3.818 -34.092  1.00  0.00     0.002 A 
HETATM   18  C   UNL     1      -4.666  -2.536 -34.258  1.00  0.00     0.029 A 
ENDBRANCH  10  13
ENDBRANCH   8   9
ENDBRANCH   7   8
ENDBRANCH   2   7
BRANCH   1  19
HETATM   19  O   UNL     1      -7.104   1.417 -31.288  1.00  0.00    -0.349 OA
BRANCH  19  20
HETATM   20  C   UNL     1      -6.336   0.573 -30.434  1.00  0.00     0.171 C 
HETATM   21  C   UNL     1      -5.593  -0.423 -31.306  1.00  0.00     0.034 C 
ENDBRANCH  19  20
ENDBRANCH   1  19
BRANCH   5  22
HETATM   22  C   UNL     1      -3.518   4.773 -31.626  1.00  0.00     0.014 C 
HETATM   23  C   UNL     1      -2.311   4.719 -32.215  1.00  0.00     0.035 C 
BRANCH  23  24
HETATM   24  C   UNL     1      -1.113   5.310 -31.692  1.00  0.00     0.091 A 
HETATM   25  N   UNL     1      -0.214   4.630 -30.960  1.00  0.00    -0.175 NA
HETATM   26  N   UNL     1       0.746   5.519 -30.687  1.00  0.00    -0.288 N 
HETATM   27  H   UNL     1       1.540   5.211 -30.134  1.00  0.00     0.188 HD
HETATM   28  C   UNL     1       0.511   6.751 -31.215  1.00  0.00     0.126 A 
HETATM   29  C   UNL     1      -0.697   6.663 -31.878  1.00  0.00     0.049 A 
BRANCH  29  30
HETATM   30  C   UNL     1      -1.330   7.758 -32.584  1.00  0.00     0.273 C 
HETATM   31  O   UNL     1      -1.536   7.783 -33.793  1.00  0.00    -0.301 OA
ENDBRANCH  29  30
ENDBRANCH  23  24
ENDBRANCH   5  22
TORSDOF 9
ENDMDL
MODEL 2
REMARK VINA RESULT:      -8.2      3.557      9.390
REMARK  9 active torsions:
REMARK  status: ('A' for Active; 'I' for Inactive)
REMARK    1  A    between atoms: C_2  and  O_3 
REMARK    2  A    between atoms: O_3  and  C_4 
REMARK    3  A    between atoms: C_5  and  O_6 
REMARK    4  A    between atoms: O_6  and  C_7 
REMARK    5  A    between atoms: C_7  and  C_8 
REMARK       I    between atoms: C_8  and  N_9 
REMARK    6  A    between atoms: N_9  and  C_10 
REMARK    7  A    between atoms: C_19  and  C_20 
REMARK    8  A    between atoms: C_21  and  C_22 
REMARK    9  A    between atoms: C_27  and  C_28 
ROOT
HETATM    1  C   UNL     1      -6.498  -0.098 -33.272  1.00  0.00     0.102 A 
HETATM    2  C   UNL     1      -6.063   0.666 -32.170  1.00  0.00     0.102 A 
HETATM    3  C   UNL     1      -7.000   1.211 -31.291  1.00  0.00     0.040 A 
HETATM    4  C   UNL     1      -8.363   0.968 -31.480  1.00  0.00     0.014 A 
HETATM    5  C   UNL     1      -8.803   0.183 -32.550  1.00  0.00    -0.033 A 
HETATM    6  C   UNL     1      -7.866  -0.327 -33.457  1.00  0.00     0.051 A 
ENDROOT
BRANCH   2   7
HETATM    7  O   UNL     1      -4.702   0.807 -32.041  1.00  0.00    -0.339 OA
BRANCH   7   8
HETATM    8  C   UNL     1      -4.210   1.641 -31.001  1.00  0.00     0.278 C 
BRANCH   8   9
HETATM    9  C   UNL     1      -3.927   3.101 -31.386  1.00  0.00     0.246 C 
HETATM   10  N   UNL     1      -2.735   3.248 -32.075  1.00  0.00    -0.325 N 
HETATM   11  H   UNL     1      -2.191   2.396 -32.183  1.00  0.00     0.169 HD
HETATM   12  O   UNL     1      -4.735   3.985 -31.115  1.00  0.00    -0.271 OA
BRANCH  10  13
HETATM   13  C   UNL     1      -2.148   4.434 -32.553  1.00  0.00     0.034 A 
HETATM   14  C   UNL     1      -1.368   5.287 -31.772  1.00  0.00     0.029 A 
HETATM   15  C   UNL     1      -0.813   6.446 -32.327  1.00  0.00     0.002 A 
HETATM   16  C   UNL     1      -1.036   6.760 -33.666  1.00  0.00     0.000 A 
HETATM   17  C   UNL     1      -1.814   5.914 -34.452  1.00  0.00     0.002 A 
HETATM   18  C   UNL     1      -2.367   4.758 -33.898  1.00  0.00     0.029 A 
ENDBRANCH  10  13
ENDBRANCH   8   9
ENDBRANCH   7   8
ENDBRANCH   2   7
BRANCH   1  19
HETATM   19  O   UNL     1      -5.508  -0.612 -34.074  1.00  0.00    -0.349 OA
BRANCH  19  20
HETATM   20  C   UNL     1      -5.616  -1.980 -34.459  1.00  0.00     0.171 C 
HETATM   21  C   UNL     1      -4.351  -2.692 -34.016  1.00  0.00     0.034 C 
ENDBRANCH  19  20
ENDBRANCH   1  19
BRANCH   5  22
HETATM   22  C   UNL     1     -10.223  -0.121 -32.745  1.00  0.00     0.014 C 
HETATM   23  C   UNL     1     -11.004   0.593 -33.575  1.00  0.00     0.035 C 
BRANCH  23  24
HETATM   24  C   UNL     1     -12.410   0.379 -33.768  1.00  0.00     0.091 A 
HETATM   25  N   UNL     1     -13.050  -0.729 -33.358  1.00  0.00    -0.175 NA
HETATM   26  N   UNL     1     -14.326  -0.533 -33.706  1.00  0.00    -0.288 N 
HETATM   27  H   UNL     1     -14.999  -1.261 -33.485  1.00  0.00     0.188 HD
HETATM   28  C   UNL     1     -14.543   0.659 -34.325  1.00  0.00     0.126 A 
HETATM   29  C   UNL     1     -13.315   1.289 -34.392  1.00  0.00     0.049 A 
BRANCH  29  30
HETATM   30  C   UNL     1     -13.090   2.591 -34.983  1.00  0.00     0.273 C 
HETATM   31  O   UNL     1     -12.618   2.778 -36.100  1.00  0.00    -0.301 OA
ENDBRANCH  29  30
ENDBRANCH  23  24
ENDBRANCH   5  22
TORSDOF 9
ENDMDL
MODEL 3
REMARK VINA RESULT:      -8.0      3.904      7.777
REMARK  9 active torsions:
REMARK  status: ('A' for Active; 'I' for Inactive)
REMARK    1  A    between atoms: C_2  and  O_3 
REMARK    2  A    between atoms: O_3  and  C_4 
REMARK    3  A    between atoms: C_5  and  O_6 
REMARK    4  A    between atoms: O_6  and  C_7 
REMARK    5  A    between atoms: C_7  and  C_8 
REMARK       I    between atoms: C_8  and  N_9 
REMARK    6  A    between atoms: N_9  and  C_10 
REMARK    7  A    between atoms: C_19  and  C_20 
REMARK    8  A    between atoms: C_21  and  C_22 
REMARK    9  A    between atoms: C_27  and  C_28 
ROOT
HETATM    1  C   UNL     1      -7.086   1.834 -31.766  1.00  0.00     0.102 A 
HETATM    2  C   UNL     1      -6.094   1.795 -32.767  1.00  0.00     0.102 A 
HETATM    3  C   UNL     1      -6.462   1.605 -34.100  1.00  0.00     0.040 A 
HETATM    4  C   UNL     1      -7.810   1.491 -34.447  1.00  0.00     0.014 A 
HETATM    5  C   UNL     1      -8.804   1.563 -33.466  1.00  0.00    -0.033 A 
HETATM    6  C   UNL     1      -8.433   1.710 -32.124  1.00  0.00     0.051 A 
ENDROOT
BRANCH   2   7
HETATM    7  O   UNL     1      -4.801   1.966 -32.333  1.00  0.00    -0.339 OA
BRANCH   7   8
HETATM    8  C   UNL     1      -3.880   0.903 -32.536  1.00  0.00     0.278 C 
BRANCH   8   9
HETATM    9  C   UNL     1      -4.473  -0.514 -32.515  1.00  0.00     0.246 C 
HETATM   10  N   UNL     1      -4.361  -1.155 -33.737  1.00  0.00    -0.325 N 
HETATM   11  H   UNL     1      -3.960  -0.594 -34.485  1.00  0.00     0.169 HD
HETATM   12  O   UNL     1      -4.944  -0.978 -31.481  1.00  0.00    -0.271 OA
BRANCH  10  13
HETATM   13  C   UNL     1      -4.817  -2.438 -34.091  1.00  0.00     0.034 A 
HETATM   14  C   UNL     1      -4.067  -3.604 -33.933  1.00  0.00     0.029 A 
HETATM   15  C   UNL     1      -4.599  -4.844 -34.303  1.00  0.00     0.002 A 
HETATM   16  C   UNL     1      -5.884  -4.927 -34.835  1.00  0.00     0.000 A 
HETATM   17  C   UNL     1      -6.639  -3.769 -34.997  1.00  0.00     0.002 A 
HETATM   18  C   UNL     1      -6.108  -2.531 -34.627  1.00  0.00     0.029 A 
ENDBRANCH  10  13
ENDBRANCH   8   9
ENDBRANCH   7   8
ENDBRANCH   2   7
BRANCH   1  19
HETATM   19  O   UNL     1      -6.638   2.046 -30.486  1.00  0.00    -0.349 OA
BRANCH  19  20
HETATM   20  C   UNL     1      -7.112   3.205 -29.804  1.00  0.00     0.171 C 
HETATM   21  C   UNL     1      -6.010   4.248 -29.834  1.00  0.00     0.034 C 
ENDBRANCH  19  20
ENDBRANCH   1  19
BRANCH   5  22
HETATM   22  C   UNL     1     -10.227   1.489 -33.810  1.00  0.00     0.014 C 
HETATM   23  C   UNL     1     -11.024   0.503 -33.362  1.00  0.00     0.035 C 
BRANCH  23  24
HETATM   24  C   UNL     1     -12.409   0.346 -33.705  1.00  0.00     0.091 A 
HETATM   25  N   UNL     1     -13.142  -0.719 -33.338  1.00  0.00    -0.175 NA
HETATM   26  N   UNL     1     -14.361  -0.479 -33.830  1.00  0.00    -0.288 N 
HETATM   27  H   UNL     1     -15.088  -1.169 -33.665  1.00  0.00     0.188 HD
HETATM   28  C   UNL     1     -14.453   0.701 -34.501  1.00  0.00     0.126 A 
HETATM   29  C   UNL     1     -13.197   1.274 -34.449  1.00  0.00     0.049 A 
BRANCH  29  30
HETATM   30  C   UNL     1     -12.848   2.545 -35.047  1.00  0.00     0.273 C 
HETATM   31  O   UNL     1     -12.671   2.727 -36.247  1.00  0.00    -0.301 OA
ENDBRANCH  29  30
ENDBRANCH  23  24
ENDBRANCH   5  22
TORSDOF 9
ENDMDL
MODEL 4
REMARK VINA RESULT:      -7.9      2.793      9.815
REMARK  9 active torsions:
REMARK  status: ('A' for Active; 'I' for Inactive)
REMARK    1  A    between atoms: C_2  and  O_3 
REMARK    2  A    between atoms: O_3  and  C_4 
REMARK    3  A    between atoms: C_5  and  O_6 
REMARK    4  A    between atoms: O_6  and  C_7 
REMARK    5  A    between atoms: C_7  and  C_8 
REMARK       I    between atoms: C_8  and  N_9 
REMARK    6  A    between atoms: N_9  and  C_10 
REMARK    7  A    between atoms: C_19  and  C_20 
REMARK    8  A    between atoms: C_21  and  C_22 
REMARK    9  A    between atoms: C_27  and  C_28 
ROOT
HETATM    1  C   UNL     1      -4.829   3.375 -32.484  1.00  0.00     0.102 A 
HETATM    2  C   UNL     1      -3.683   3.265 -31.670  1.00  0.00     0.102 A 
HETATM    3  C   UNL     1      -3.212   2.003 -31.303  1.00  0.00     0.040 A 
HETATM    4  C   UNL     1      -3.851   0.853 -31.773  1.00  0.00     0.014 A 
HETATM    5  C   UNL     1      -4.967   0.951 -32.608  1.00  0.00    -0.033 A 
HETATM    6  C   UNL     1      -5.466   2.216 -32.940  1.00  0.00     0.051 A 
ENDROOT
BRANCH   2   7
HETATM    7  O   UNL     1      -3.096   4.452 -31.301  1.00  0.00    -0.339 OA
BRANCH   7   8
HETATM    8  C   UNL     1      -1.830   4.775 -31.857  1.00  0.00     0.278 C 
BRANCH   8   9
HETATM    9  C   UNL     1      -0.717   5.104 -30.851  1.00  0.00     0.246 C 
HETATM   10  N   UNL     1      -1.105   6.054 -29.921  1.00  0.00    -0.325 N 
HETATM   11  H   UNL     1      -2.036   6.439 -30.059  1.00  0.00     0.169 HD
HETATM   12  O   UNL     1       0.362   4.521 -30.901  1.00  0.00    -0.271 OA
BRANCH  10  13
HETATM   13  C   UNL     1      -0.342   6.613 -28.880  1.00  0.00     0.034 A 
HETATM   14  C   UNL     1      -0.391   6.178 -27.555  1.00  0.00     0.029 A 
HETATM   15  C   UNL     1       0.408   6.784 -26.580  1.00  0.00     0.002 A 
HETATM   16  C   UNL     1       1.260   7.832 -26.922  1.00  0.00     0.000 A 
HETATM   17  C   UNL     1       1.315   8.274 -28.241  1.00  0.00     0.002 A 
HETATM   18  C   UNL     1       0.518   7.668 -29.214  1.00  0.00     0.029 A 
ENDBRANCH  10  13
ENDBRANCH   8   9
ENDBRANCH   7   8
ENDBRANCH   2   7
BRANCH   1  19
HETATM   19  O   UNL     1      -5.210   4.654 -32.812  1.00  0.00    -0.349 OA
BRANCH  19  20
HETATM   20  C   UNL     1      -6.584   4.995 -32.642  1.00  0.00     0.171 C 
HETATM   21  C   UNL     1      -6.835   5.193 -31.157  1.00  0.00     0.034 C 
ENDBRANCH  19  20
ENDBRANCH   1  19
BRANCH   5  22
HETATM   22  C   UNL     1      -5.628  -0.241 -33.147  1.00  0.00     0.014 C 
HETATM   23  C   UNL     1      -4.940  -1.312 -33.581  1.00  0.00     0.035 C 
BRANCH  23  24
HETATM   24  C   UNL     1      -5.525  -2.483 -34.167  1.00  0.00     0.091 A 
HETATM   25  N   UNL     1      -6.764  -2.507 -34.687  1.00  0.00    -0.175 NA
HETATM   26  N   UNL     1      -6.920  -3.756 -35.138  1.00  0.00    -0.288 N 
HETATM   27  H   UNL     1      -7.802  -3.998 -35.579  1.00  0.00     0.188 HD
HETATM   28  C   UNL     1      -5.832  -4.546 -34.935  1.00  0.00     0.126 A 
HETATM   29  C   UNL     1      -4.894  -3.757 -34.298  1.00  0.00     0.049 A 
BRANCH  29  30
HETATM   30  C   UNL     1      -3.580  -4.207 -33.889  1.00  0.00     0.273 C 
HETATM   31  O   UNL     1      -3.229  -4.370 -32.726  1.00  0.00    -0.301 OA
ENDBRANCH  29  30
ENDBRANCH  23  24
ENDBRANCH   5  22
TORSDOF 9
ENDMDL
MODEL 5
REMARK VINA RESULT:      -7.7      1.312      1.945
REMARK  9 active torsions:
REMARK  status: ('A' for Active; 'I' for Inactive)
REMARK    1  A    between atoms: C_2  and  O_3 
REMARK    2  A    between atoms: O_3  and  C_4 
REMARK    3  A    between atoms: C_5  and  O_6 
REMARK    4  A    between atoms: O_6  and  C_7 
REMARK    5  A    between atoms: C_7  and  C_8 
REMARK       I    between atoms: C_8  and  N_9 
REMARK    6  A    between atoms: N_9  and  C_10 
REMARK    7  A    between atoms: C_19  and  C_20 
REMARK    8  A    between atoms: C_21  and  C_22 
REMARK    9  A    between atoms: C_27  and  C_28 
ROOT
HETATM    1  C   UNL     1      -7.023   3.388 -31.763  1.00  0.00     0.102 A 
HETATM    2  C   UNL     1      -6.825   2.139 -32.385  1.00  0.00     0.102 A 
HETATM    3  C   UNL     1      -5.534   1.729 -32.723  1.00  0.00     0.040 A 
HETATM    4  C   UNL     1      -4.438   2.538 -32.411  1.00  0.00     0.014 A 
HETATM    5  C   UNL     1      -4.620   3.762 -31.763  1.00  0.00    -0.033 A 
HETATM    6  C   UNL     1      -5.918   4.193 -31.464  1.00  0.00     0.051 A 
ENDROOT
BRANCH   2   7
HETATM    7  O   UNL     1      -7.959   1.394 -32.605  1.00  0.00    -0.339 OA
BRANCH   7   8
HETATM    8  C   UNL     1      -8.316   1.097 -33.948  1.00  0.00     0.278 C 
BRANCH   8   9
HETATM    9  C   UNL     1      -7.467   0.025 -34.648  1.00  0.00     0.246 C 
HETATM   10  N   UNL     1      -7.283  -1.102 -33.865  1.00  0.00    -0.325 N 
HETATM   11  H   UNL     1      -7.679  -1.048 -32.930  1.00  0.00     0.169 HD
HETATM   12  O   UNL     1      -7.061   0.200 -35.794  1.00  0.00    -0.271 OA
BRANCH  10  13
HETATM   13  C   UNL     1      -6.542  -2.259 -34.168  1.00  0.00     0.034 A 
HETATM   14  C   UNL     1      -7.104  -3.446 -34.639  1.00  0.00     0.029 A 
HETATM   15  C   UNL     1      -6.294  -4.550 -34.924  1.00  0.00     0.002 A 
HETATM   16  C   UNL     1      -4.915  -4.476 -34.738  1.00  0.00     0.000 A 
HETATM   17  C   UNL     1      -4.345  -3.296 -34.269  1.00  0.00     0.002 A 
HETATM   18  C   UNL     1      -5.154  -2.193 -33.985  1.00  0.00     0.029 A 
ENDBRANCH  10  13
ENDBRANCH   8   9
ENDBRANCH   7   8
ENDBRANCH   2   7
BRANCH   1  19
HETATM   19  O   UNL     1      -8.323   3.701 -31.448  1.00  0.00    -0.349 OA
BRANCH  19  20
HETATM   20  C   UNL     1      -8.834   4.944 -31.923  1.00  0.00     0.171 C 
HETATM   21  C   UNL     1      -9.255   4.753 -33.370  1.00  0.00     0.034 C 
ENDBRANCH  19  20
ENDBRANCH   1  19
BRANCH   5  22
HETATM   22  C   UNL     1      -3.484   4.608 -31.388  1.00  0.00     0.014 C 
HETATM   23  C   UNL     1      -2.270   4.475 -31.952  1.00  0.00     0.035 C 
BRANCH  23  24
HETATM   24  C   UNL     1      -1.107   5.234 -31.591  1.00  0.00     0.091 A 
HETATM   25  N   UNL     1      -0.097   4.732 -30.861  1.00  0.00    -0.175 NA
HETATM   26  N   UNL     1       0.783   5.733 -30.762  1.00  0.00    -0.288 N 
HETATM   27  H   UNL     1       1.639   5.568 -30.243  1.00  0.00     0.188 HD
HETATM   28  C   UNL     1       0.387   6.868 -31.401  1.00  0.00     0.126 A 
HETATM   29  C   UNL     1      -0.847   6.589 -31.954  1.00  0.00     0.049 A 
BRANCH  29  30
HETATM   30  C   UNL     1      -1.635   7.530 -32.723  1.00  0.00     0.273 C 
HETATM   31  O   UNL     1      -1.543   7.690 -33.936  1.00  0.00    -0.301 OA
ENDBRANCH  29  30
ENDBRANCH  23  24
ENDBRANCH   5  22
TORSDOF 9
ENDMDL
MODEL 6
REMARK VINA RESULT:      -7.7      3.231      4.918
REMARK  9 active torsions:
REMARK  status: ('A' for Active; 'I' for Inactive)
REMARK    1  A    between atoms: C_2  and  O_3 
REMARK    2  A    between atoms: O_3  and  C_4 
REMARK    3  A    between atoms: C_5  and  O_6 
REMARK    4  A    between atoms: O_6  and  C_7 
REMARK    5  A    between atoms: C_7  and  C_8 
REMARK       I    between atoms: C_8  and  N_9 
REMARK    6  A    between atoms: N_9  and  C_10 
REMARK    7  A    between atoms: C_19  and  C_20 
REMARK    8  A    between atoms: C_21  and  C_22 
REMARK    9  A    between atoms: C_27  and  C_28 
ROOT
HETATM    1  C   UNL     1      -5.313   0.626 -32.698  1.00  0.00     0.102 A 
HETATM    2  C   UNL     1      -6.294   1.357 -33.400  1.00  0.00     0.102 A 
HETATM    3  C   UNL     1      -6.182   2.745 -33.504  1.00  0.00     0.040 A 
HETATM    4  C   UNL     1      -5.083   3.403 -32.949  1.00  0.00     0.014 A 
HETATM    5  C   UNL     1      -4.087   2.684 -32.281  1.00  0.00    -0.033 A 
HETATM    6  C   UNL     1      -4.221   1.298 -32.138  1.00  0.00     0.051 A 
ENDROOT
BRANCH   2   7
HETATM    7  O   UNL     1      -7.310   0.615 -33.953  1.00  0.00    -0.339 OA
BRANCH   7   8
HETATM    8  C   UNL     1      -8.458   1.302 -34.431  1.00  0.00     0.278 C 
BRANCH   8   9
HETATM    9  C   UNL     1      -9.774   1.007 -33.695  1.00  0.00     0.246 C 
HETATM   10  N   UNL     1     -10.845   1.708 -34.220  1.00  0.00    -0.325 N 
HETATM   11  H   UNL     1     -10.614   2.354 -34.971  1.00  0.00     0.169 HD
HETATM   12  O   UNL     1      -9.805   0.194 -32.775  1.00  0.00    -0.271 OA
BRANCH  10  13
HETATM   13  C   UNL     1     -12.182   1.708 -33.782  1.00  0.00     0.034 A 
HETATM   14  C   UNL     1     -12.748   2.717 -33.001  1.00  0.00     0.029 A 
HETATM   15  C   UNL     1     -14.090   2.644 -32.613  1.00  0.00     0.002 A 
HETATM   16  C   UNL     1     -14.877   1.562 -33.003  1.00  0.00     0.000 A 
HETATM   17  C   UNL     1     -14.321   0.551 -33.782  1.00  0.00     0.002 A 
HETATM   18  C   UNL     1     -12.981   0.624 -34.169  1.00  0.00     0.029 A 
ENDBRANCH  10  13
ENDBRANCH   8   9
ENDBRANCH   7   8
ENDBRANCH   2   7
BRANCH   1  19
HETATM   19  O   UNL     1      -5.492  -0.735 -32.662  1.00  0.00    -0.349 OA
BRANCH  19  20
HETATM   20  C   UNL     1      -4.588  -1.538 -33.418  1.00  0.00     0.171 C 
HETATM   21  C   UNL     1      -3.681  -2.265 -32.441  1.00  0.00     0.034 C 
ENDBRANCH  19  20
ENDBRANCH   1  19
BRANCH   5  22
HETATM   22  C   UNL     1      -2.903   3.347 -31.727  1.00  0.00     0.014 C 
HETATM   23  C   UNL     1      -2.480   4.547 -32.162  1.00  0.00     0.035 C 
BRANCH  23  24
HETATM   24  C   UNL     1      -1.302   5.222 -31.699  1.00  0.00     0.091 A 
HETATM   25  N   UNL     1      -0.416   4.663 -30.857  1.00  0.00    -0.175 NA
HETATM   26  N   UNL     1       0.528   5.595 -30.689  1.00  0.00    -0.288 N 
HETATM   27  H   UNL     1       1.311   5.378 -30.080  1.00  0.00     0.188 HD
HETATM   28  C   UNL     1       0.294   6.738 -31.390  1.00  0.00     0.126 A 
HETATM   29  C   UNL     1      -0.897   6.541 -32.062  1.00  0.00     0.049 A 
BRANCH  29  30
HETATM   30  C   UNL     1      -1.522   7.518 -32.929  1.00  0.00     0.273 C 
HETATM   31  O   UNL     1      -1.787   8.671 -32.605  1.00  0.00    -0.301 OA
ENDBRANCH  29  30
ENDBRANCH  23  24
ENDBRANCH   5  22
TORSDOF 9
ENDMDL
MODEL 7
REMARK VINA RESULT:      -7.4      2.584      4.686
REMARK  9 active torsions:
REMARK  status: ('A' for Active; 'I' for Inactive)
REMARK    1  A    between atoms: C_2  and  O_3 
REMARK    2  A    between atoms: O_3  and  C_4 
REMARK    3  A    between atoms: C_5  and  O_6 
REMARK    4  A    between atoms: O_6  and  C_7 
REMARK    5  A    between atoms: C_7  and  C_8 
REMARK       I    between atoms: C_8  and  N_9 
REMARK    6  A    between atoms: N_9  and  C_10 
REMARK    7  A    between atoms: C_19  and  C_20 
REMARK    8  A    between atoms: C_21  and  C_22 
REMARK    9  A    between atoms: C_27  and  C_28 
ROOT
HETATM    1  C   UNL     1      -5.892   2.324 -33.433  1.00  0.00     0.102 A 
HETATM    2  C   UNL     1      -5.771   0.919 -33.431  1.00  0.00     0.102 A 
HETATM    3  C   UNL     1      -4.641   0.322 -32.868  1.00  0.00     0.040 A 
HETATM    4  C   UNL     1      -3.653   1.111 -32.274  1.00  0.00     0.014 A 
HETATM    5  C   UNL     1      -3.781   2.503 -32.240  1.00  0.00    -0.033 A 
HETATM    6  C   UNL     1      -4.892   3.104 -32.843  1.00  0.00     0.051 A 
ENDROOT
BRANCH   2   7
HETATM    7  O   UNL     1      -6.816   0.228 -33.995  1.00  0.00    -0.339 OA
BRANCH   7   8
HETATM    8  C   UNL     1      -7.735  -0.422 -33.127  1.00  0.00     0.278 C 
BRANCH   8   9
HETATM    9  C   UNL     1      -9.082   0.285 -32.921  1.00  0.00     0.246 C 
HETATM   10  N   UNL     1      -9.603   0.791 -34.100  1.00  0.00    -0.325 N 
HETATM   11  H   UNL     1      -9.010   0.678 -34.918  1.00  0.00     0.169 HD
HETATM   12  O   UNL     1      -9.602   0.325 -31.809  1.00  0.00    -0.271 OA
BRANCH  10  13
HETATM   13  C   UNL     1     -10.793   1.519 -34.282  1.00  0.00     0.034 A 
HETATM   14  C   UNL     1     -12.066   1.013 -34.017  1.00  0.00     0.029 A 
HETATM   15  C   UNL     1     -13.200   1.807 -34.218  1.00  0.00     0.002 A 
HETATM   16  C   UNL     1     -13.070   3.112 -34.689  1.00  0.00     0.000 A 
HETATM   17  C   UNL     1     -11.804   3.625 -34.957  1.00  0.00     0.002 A 
HETATM   18  C   UNL     1     -10.671   2.832 -34.755  1.00  0.00     0.029 A 
ENDBRANCH  10  13
ENDBRANCH   8   9
ENDBRANCH   7   8
ENDBRANCH   2   7
BRANCH   1  19
HETATM   19  O   UNL     1      -7.044   2.824 -33.990  1.00  0.00    -0.349 OA
BRANCH  19  20
HETATM   20  C   UNL     1      -7.421   4.154 -33.639  1.00  0.00     0.171 C 
HETATM   21  C   UNL     1      -8.367   4.074 -32.455  1.00  0.00     0.034 C 
ENDBRANCH  19  20
ENDBRANCH   1  19
BRANCH   5  22
HETATM   22  C   UNL     1      -2.780   3.349 -31.585  1.00  0.00     0.014 C 
HETATM   23  C   UNL     1      -2.112   4.313 -32.242  1.00  0.00     0.035 C 
BRANCH  23  24
HETATM   24  C   UNL     1      -1.084   5.137 -31.673  1.00  0.00     0.091 A 
HETATM   25  N   UNL     1      -0.347   4.768 -30.612  1.00  0.00    -0.175 NA
HETATM   26  N   UNL     1       0.493   5.788 -30.409  1.00  0.00    -0.288 N 
HETATM   27  H   UNL     1       1.154   5.718 -29.642  1.00  0.00     0.188 HD
HETATM   28  C   UNL     1       0.335   6.806 -31.298  1.00  0.00     0.126 A 
HETATM   29  C   UNL     1      -0.690   6.426 -32.142  1.00  0.00     0.049 A 
BRANCH  29  30
HETATM   30  C   UNL     1      -1.190   7.226 -33.241  1.00  0.00     0.273 C 
HETATM   31  O   UNL     1      -1.814   8.274 -33.113  1.00  0.00    -0.301 OA
ENDBRANCH  29  30
ENDBRANCH  23  24
ENDBRANCH   5  22
TORSDOF 9
ENDMDL
MODEL 8
REMARK VINA RESULT:      -7.1      2.467      9.343
REMARK  9 active torsions:
REMARK  status: ('A' for Active; 'I' for Inactive)
REMARK    1  A    between atoms: C_2  and  O_3 
REMARK    2  A    between atoms: O_3  and  C_4 
REMARK    3  A    between atoms: C_5  and  O_6 
REMARK    4  A    between atoms: O_6  and  C_7 
REMARK    5  A    between atoms: C_7  and  C_8 
REMARK       I    between atoms: C_8  and  N_9 
REMARK    6  A    between atoms: N_9  and  C_10 
REMARK    7  A    between atoms: C_19  and  C_20 
REMARK    8  A    between atoms: C_21  and  C_22 
REMARK    9  A    between atoms: C_27  and  C_28 
ROOT
HETATM    1  C   UNL     1      -5.480   2.178 -30.807  1.00  0.00     0.102 A 
HETATM    2  C   UNL     1      -4.401   2.942 -31.296  1.00  0.00     0.102 A 
HETATM    3  C   UNL     1      -3.365   2.313 -31.990  1.00  0.00     0.040 A 
HETATM    4  C   UNL     1      -3.417   0.939 -32.234  1.00  0.00     0.014 A 
HETATM    5  C   UNL     1      -4.500   0.178 -31.784  1.00  0.00    -0.033 A 
HETATM    6  C   UNL     1      -5.517   0.800 -31.049  1.00  0.00     0.051 A 
ENDROOT
BRANCH   2   7
HETATM    7  O   UNL     1      -4.465   4.292 -31.050  1.00  0.00    -0.339 OA
BRANCH   7   8
HETATM    8  C   UNL     1      -4.021   5.181 -32.066  1.00  0.00     0.278 C 
BRANCH   8   9
HETATM    9  C   UNL     1      -2.978   6.224 -31.640  1.00  0.00     0.246 C 
HETATM   10  N   UNL     1      -2.435   5.955 -30.395  1.00  0.00    -0.325 N 
HETATM   11  H   UNL     1      -2.831   5.151 -29.915  1.00  0.00     0.169 HD
HETATM   12  O   UNL     1      -2.678   7.149 -32.390  1.00  0.00    -0.271 OA
BRANCH  10  13
HETATM   13  C   UNL     1      -1.483   6.706 -29.682  1.00  0.00     0.034 A 
HETATM   14  C   UNL     1      -0.125   6.390 -29.623  1.00  0.00     0.029 A 
HETATM   15  C   UNL     1       0.759   7.195 -28.896  1.00  0.00     0.002 A 
HETATM   16  C   UNL     1       0.291   8.321 -28.221  1.00  0.00     0.000 A 
HETATM   17  C   UNL     1      -1.062   8.643 -28.274  1.00  0.00     0.002 A 
HETATM   18  C   UNL     1      -1.944   7.839 -29.000  1.00  0.00     0.029 A 
ENDBRANCH  10  13
ENDBRANCH   8   9
ENDBRANCH   7   8
ENDBRANCH   2   7
BRANCH   1  19
HETATM   19  O   UNL     1      -6.464   2.880 -30.154  1.00  0.00    -0.349 OA
BRANCH  19  20
HETATM   20  C   UNL     1      -7.773   2.861 -30.719  1.00  0.00     0.171 C 
HETATM   21  C   UNL     1      -8.567   3.995 -30.096  1.00  0.00     0.034 C 
ENDBRANCH  19  20
ENDBRANCH   1  19
BRANCH   5  22
HETATM   22  C   UNL     1      -4.598  -1.257 -32.063  1.00  0.00     0.014 C 
HETATM   23  C   UNL     1      -4.049  -1.817 -33.156  1.00  0.00     0.035 C 
BRANCH  23  24
HETATM   24  C   UNL     1      -4.155  -3.203 -33.512  1.00  0.00     0.091 A 
HETATM   25  N   UNL     1      -3.290  -4.140 -33.090  1.00  0.00    -0.175 NA
HETATM   26  N   UNL     1      -3.740  -5.282 -33.619  1.00  0.00    -0.288 N 
HETATM   27  H   UNL     1      -3.226  -6.136 -33.423  1.00  0.00     0.188 HD
HETATM   28  C   UNL     1      -4.866  -5.127 -34.367  1.00  0.00     0.126 A 
HETATM   29  C   UNL     1      -5.173  -3.780 -34.329  1.00  0.00     0.049 A 
BRANCH  29  30
HETATM   30  C   UNL     1      -6.303  -3.175 -35.002  1.00  0.00     0.273 C 
HETATM   31  O   UNL     1      -6.918  -2.197 -34.590  1.00  0.00    -0.301 OA
ENDBRANCH  29  30
ENDBRANCH  23  24
ENDBRANCH   5  22
TORSDOF 9
ENDMDL
MODEL 9
REMARK VINA RESULT:      -7.1      4.953      8.540
REMARK  9 active torsions:
REMARK  status: ('A' for Active; 'I' for Inactive)
REMARK    1  A    between atoms: C_2  and  O_3 
REMARK    2  A    between atoms: O_3  and  C_4 
REMARK    3  A    between atoms: C_5  and  O_6 
REMARK    4  A    between atoms: O_6  and  C_7 
REMARK    5  A    between atoms: C_7  and  C_8 
REMARK       I    between atoms: C_8  and  N_9 
REMARK    6  A    between atoms: N_9  and  C_10 
REMARK    7  A    between atoms: C_19  and  C_20 
REMARK    8  A    between atoms: C_21  and  C_22 
REMARK    9  A    between atoms: C_27  and  C_28 
ROOT
HETATM    1  C   UNL     1      -9.003   2.972 -33.872  1.00  0.00     0.102 A 
HETATM    2  C   UNL     1      -8.306   1.747 -33.901  1.00  0.00     0.102 A 
HETATM    3  C   UNL     1      -9.001   0.550 -33.718  1.00  0.00     0.040 A 
HETATM    4  C   UNL     1     -10.387   0.563 -33.543  1.00  0.00     0.014 A 
HETATM    5  C   UNL     1     -11.092   1.770 -33.547  1.00  0.00    -0.033 A 
HETATM    6  C   UNL     1     -10.390   2.973 -33.687  1.00  0.00     0.051 A 
ENDROOT
BRANCH   2   7
HETATM    7  O   UNL     1      -6.954   1.834 -34.128  1.00  0.00    -0.339 OA
BRANCH   7   8
HETATM    8  C   UNL     1      -6.073   1.382 -33.109  1.00  0.00     0.278 C 
BRANCH   8   9
HETATM    9  C   UNL     1      -6.005  -0.139 -32.904  1.00  0.00     0.246 C 
HETATM   10  N   UNL     1      -5.729  -0.822 -34.076  1.00  0.00    -0.325 N 
HETATM   11  H   UNL     1      -5.664  -0.242 -34.909  1.00  0.00     0.169 HD
HETATM   12  O   UNL     1      -6.151  -0.624 -31.785  1.00  0.00    -0.271 OA
BRANCH  10  13
HETATM   13  C   UNL     1      -5.624  -2.211 -34.268  1.00  0.00     0.034 A 
HETATM   14  C   UNL     1      -6.673  -3.019 -34.710  1.00  0.00     0.029 A 
HETATM   15  C   UNL     1      -6.483  -4.395 -34.882  1.00  0.00     0.002 A 
HETATM   16  C   UNL     1      -5.245  -4.973 -34.612  1.00  0.00     0.000 A 
HETATM   17  C   UNL     1      -4.193  -4.175 -34.170  1.00  0.00     0.002 A 
HETATM   18  C   UNL     1      -4.383  -2.801 -33.999  1.00  0.00     0.029 A 
ENDBRANCH  10  13
ENDBRANCH   8   9
ENDBRANCH   7   8
ENDBRANCH   2   7
BRANCH   1  19
HETATM   19  O   UNL     1      -8.244   4.098 -34.081  1.00  0.00    -0.349 OA
BRANCH  19  20
HETATM   20  C   UNL     1      -8.354   5.152 -33.128  1.00  0.00     0.171 C 
HETATM   21  C   UNL     1      -6.965   5.721 -32.899  1.00  0.00     0.034 C 
ENDBRANCH  19  20
ENDBRANCH   1  19
BRANCH   5  22
HETATM   22  C   UNL     1     -12.550   1.807 -33.409  1.00  0.00     0.014 C 
HETATM   23  C   UNL     1     -13.191   2.829 -32.816  1.00  0.00     0.035 C 
BRANCH  23  24
HETATM   24  C   UNL     1     -14.608   2.900 -32.602  1.00  0.00     0.091 A 
HETATM   25  N   UNL     1     -15.456   1.917 -32.952  1.00  0.00    -0.175 NA
HETATM   26  N   UNL     1     -16.661   2.356 -32.575  1.00  0.00    -0.288 N 
HETATM   27  H   UNL     1     -17.463   1.758 -32.746  1.00  0.00     0.188 HD
HETATM   28  C   UNL     1     -16.632   3.584 -31.991  1.00  0.00     0.126 A 
HETATM   29  C   UNL     1     -15.309   3.982 -31.991  1.00  0.00     0.049 A 
BRANCH  29  30
HETATM   30  C   UNL     1     -14.829   5.241 -31.462  1.00  0.00     0.273 C 
HETATM   31  O   UNL     1     -14.415   6.173 -32.145  1.00  0.00    -0.301 OA
ENDBRANCH  29  30
ENDBRANCH  23  24
ENDBRANCH   5  22
TORSDOF 9
ENDMDL
MODEL 10
REMARK VINA RESULT:      -7.0      3.375      8.174
REMARK  9 active torsions:
REMARK  status: ('A' for Active; 'I' for Inactive)
REMARK    1  A    between atoms: C_2  and  O_3 
REMARK    2  A    between atoms: O_3  and  C_4 
REMARK    3  A    between atoms: C_5  and  O_6 
REMARK    4  A    between atoms: O_6  and  C_7 
REMARK    5  A    between atoms: C_7  and  C_8 
REMARK       I    between atoms: C_8  and  N_9 
REMARK    6  A    between atoms: N_9  and  C_10 
REMARK    7  A    between atoms: C_19  and  C_20 
REMARK    8  A    between atoms: C_21  and  C_22 
REMARK    9  A    between atoms: C_27  and  C_28 
ROOT
HETATM    1  C   UNL     1      -6.517  -0.924 -33.100  1.00  0.00     0.102 A 
HETATM    2  C   UNL     1      -6.111  -0.539 -31.806  1.00  0.00     0.102 A 
HETATM    3  C   UNL     1      -6.910   0.329 -31.059  1.00  0.00     0.040 A 
HETATM    4  C   UNL     1      -8.125   0.785 -31.577  1.00  0.00     0.014 A 
HETATM    5  C   UNL     1      -8.552   0.381 -32.845  1.00  0.00    -0.033 A 
HETATM    6  C   UNL     1      -7.731  -0.454 -33.612  1.00  0.00     0.051 A 
ENDROOT
BRANCH   2   7
HETATM    7  O   UNL     1      -4.926  -1.078 -31.366  1.00  0.00    -0.339 OA
BRANCH   7   8
HETATM    8  C   UNL     1      -3.838  -0.198 -31.124  1.00  0.00     0.278 C 
BRANCH   8   9
HETATM    9  C   UNL     1      -3.528   0.812 -32.240  1.00  0.00     0.246 C 
HETATM   10  N   UNL     1      -3.835   2.113 -31.879  1.00  0.00    -0.325 N 
HETATM   11  H   UNL     1      -4.267   2.218 -30.965  1.00  0.00     0.169 HD
HETATM   12  O   UNL     1      -3.026   0.439 -33.297  1.00  0.00    -0.271 OA
BRANCH  10  13
HETATM   13  C   UNL     1      -3.713   3.281 -32.654  1.00  0.00     0.034 A 
HETATM   14  C   UNL     1      -4.760   3.851 -33.378  1.00  0.00     0.029 A 
HETATM   15  C   UNL     1      -4.556   5.020 -34.119  1.00  0.00     0.002 A 
HETATM   16  C   UNL     1      -3.302   5.627 -34.142  1.00  0.00     0.000 A 
HETATM   17  C   UNL     1      -2.251   5.066 -33.423  1.00  0.00     0.002 A 
HETATM   18  C   UNL     1      -2.455   3.898 -32.683  1.00  0.00     0.029 A 
ENDBRANCH  10  13
ENDBRANCH   8   9
ENDBRANCH   7   8
ENDBRANCH   2   7
BRANCH   1  19
HETATM   19  O   UNL     1      -5.681  -1.795 -33.755  1.00  0.00    -0.349 OA
BRANCH  19  20
HETATM   20  C   UNL     1      -6.274  -2.713 -34.672  1.00  0.00     0.171 C 
HETATM   21  C   UNL     1      -5.380  -3.938 -34.750  1.00  0.00     0.034 C 
ENDBRANCH  19  20
ENDBRANCH   1  19
BRANCH   5  22
HETATM   22  C   UNL     1      -9.842   0.811 -33.392  1.00  0.00     0.014 C 
HETATM   23  C   UNL     1     -10.009   2.005 -33.989  1.00  0.00     0.035 C 
BRANCH  23  24
HETATM   24  C   UNL     1     -11.255   2.505 -34.496  1.00  0.00     0.091 A 
HETATM   25  N   UNL     1     -12.406   1.814 -34.432  1.00  0.00    -0.175 NA
HETATM   26  N   UNL     1     -13.317   2.620 -34.986  1.00  0.00    -0.288 N 
HETATM   27  H   UNL     1     -14.276   2.291 -35.041  1.00  0.00     0.188 HD
HETATM   28  C   UNL     1     -12.806   3.809 -35.407  1.00  0.00     0.126 A 
HETATM   29  C   UNL     1     -11.458   3.776 -35.110  1.00  0.00     0.049 A 
BRANCH  29  30
HETATM   30  C   UNL     1     -10.527   4.848 -35.396  1.00  0.00     0.273 C 
HETATM   31  O   UNL     1     -10.530   5.942 -34.841  1.00  0.00    -0.301 OA
ENDBRANCH  29  30
ENDBRANCH  23  24
ENDBRANCH   5  22
TORSDOF 9
ENDMDL
