MODEL 1
REMARK VINA RESULT:      -9.4      0.000      0.000
REMARK  6 active torsions:
REMARK  status: ('A' for Active; 'I' for Inactive)
REMARK    1  A    between atoms: O_2  and  C_3 
REMARK    2  A    between atoms: C_6  and  C_7 
REMARK    3  A    between atoms: C_13  and  C_14 
REMARK       I    between atoms: C_14  and  N_15 
REMARK    4  A    between atoms: N_15  and  C_16 
REMARK    5  A    between atoms: C_16  and  C_17 
REMARK    6  A    between atoms: C_24  and  C_25 
ROOT
HETATM    1  C   UNL     1      -6.767   0.761 -33.225  1.00  0.00     0.118 C 
HETATM    2  N   UNL     1      -6.042   1.928 -33.741  1.00  0.00    -0.365 N 
HETATM    3  C   UNL     1      -6.625   3.157 -33.663  1.00  0.00     0.138 A 
HETATM    4  N   UNL     1      -7.962   3.275 -33.339  1.00  0.00    -0.240 N 
HETATM    5  N   UNL     1      -8.385   4.539 -33.227  1.00  0.00    -0.181 NA
HETATM    6  C   UNL     1      -7.318   5.251 -33.598  1.00  0.00     0.160 A 
HETATM    7  C   UNL     1      -6.181   4.450 -33.879  1.00  0.00     0.096 A 
HETATM    8  C   UNL     1      -8.853   2.155 -33.090  1.00  0.00     0.221 C 
HETATM    9  C   UNL     1      -8.237   0.860 -33.649  1.00  0.00     0.066 C 
HETATM   10  H   UNL     1      -5.403   1.722 -34.512  1.00  0.00     0.161 HD
ENDROOT
BRANCH   7  11
HETATM   11  C   UNL     1      -4.881   4.971 -34.255  1.00  0.00     0.257 C 
HETATM   12  N   UNL     1      -4.160   5.571 -33.248  1.00  0.00    -0.352 N 
HETATM   13  H   UNL     1      -4.654   5.789 -32.391  1.00  0.00     0.163 HD
HETATM   14  O   UNL     1      -4.477   4.904 -35.411  1.00  0.00    -0.267 OA
BRANCH  12  15
HETATM   15  C   UNL     1      -2.942   6.285 -33.551  1.00  0.00     0.161 C 
BRANCH  15  16
HETATM   16  C   UNL     1      -1.867   6.107 -32.510  1.00  0.00    -0.041 A 
HETATM   17  C   UNL     1      -1.776   4.943 -31.734  1.00  0.00     0.009 A 
HETATM   18  C   UNL     1      -0.719   4.764 -30.840  1.00  0.00     0.001 A 
HETATM   19  C   UNL     1       0.271   5.736 -30.725  1.00  0.00     0.000 A 
HETATM   20  C   UNL     1       0.205   6.890 -31.501  1.00  0.00     0.001 A 
HETATM   21  C   UNL     1      -0.855   7.074 -32.390  1.00  0.00     0.009 A 
ENDBRANCH  15  16
ENDBRANCH  12  15
ENDBRANCH   7  11
BRANCH   1  22
HETATM   22  C   UNL     1      -6.050  -0.518 -33.617  1.00  0.00    -0.035 A 
HETATM   23  C   UNL     1      -4.814  -0.811 -33.014  1.00  0.00     0.012 A 
HETATM   24  C   UNL     1      -4.140  -2.010 -33.281  1.00  0.00     0.037 A 
HETATM   25  C   UNL     1      -4.690  -2.939 -34.161  1.00  0.00     0.068 A 
HETATM   26  C   UNL     1      -5.894  -2.640 -34.797  1.00  0.00     0.037 A 
HETATM   27  C   UNL     1      -6.569  -1.443 -34.533  1.00  0.00     0.012 A 
BRANCH  25  28
HETATM   28  O   UNL     1      -4.154  -4.153 -34.486  1.00  0.00    -0.356 OA
HETATM   29  C   UNL     1      -3.454  -4.836 -33.454  1.00  0.00     0.210 C 
ENDBRANCH  25  28
ENDBRANCH   1  22
BRANCH   8  30
HETATM   30  C   UNL     1     -10.225   2.360 -33.700  1.00  0.00     0.409 C 
HETATM   31  F   UNL     1     -10.167   2.932 -34.923  1.00  0.00    -0.169 F 
HETATM   32  F   UNL     1     -10.825   1.149 -33.872  1.00  0.00    -0.169 F 
HETATM   33  F   UNL     1     -11.061   3.081 -32.926  1.00  0.00    -0.169 F 
ENDBRANCH   8  30
TORSDOF 6
ENDMDL
MODEL 2
REMARK VINA RESULT:      -9.1      3.340      7.191
REMARK  6 active torsions:
REMARK  status: ('A' for Active; 'I' for Inactive)
REMARK    1  A    between atoms: O_2  and  C_3 
REMARK    2  A    between atoms: C_6  and  C_7 
REMARK    3  A    between atoms: C_13  and  C_14 
REMARK       I    between atoms: C_14  and  N_15 
REMARK    4  A    between atoms: N_15  and  C_16 
REMARK    5  A    between atoms: C_16  and  C_17 
REMARK    6  A    between atoms: C_24  and  C_25 
ROOT
HETATM    1  C   UNL     1      -7.554   2.979 -31.826  1.00  0.00     0.118 C 
HETATM    2  N   UNL     1      -6.376   2.133 -32.047  1.00  0.00    -0.365 N 
HETATM    3  C   UNL     1      -5.135   2.661 -31.851  1.00  0.00     0.138 A 
HETATM    4  N   UNL     1      -4.974   4.023 -31.692  1.00  0.00    -0.240 N 
HETATM    5  N   UNL     1      -3.716   4.395 -31.436  1.00  0.00    -0.181 NA
HETATM    6  C   UNL     1      -3.033   3.254 -31.543  1.00  0.00     0.160 A 
HETATM    7  C   UNL     1      -3.859   2.128 -31.795  1.00  0.00     0.096 A 
HETATM    8  C   UNL     1      -6.054   4.994 -31.747  1.00  0.00     0.221 C 
HETATM    9  C   UNL     1      -7.289   4.368 -32.420  1.00  0.00     0.066 C 
HETATM   10  H   UNL     1      -6.507   1.402 -32.749  1.00  0.00     0.161 HD
ENDROOT
BRANCH   7  11
HETATM   11  C   UNL     1      -3.380   0.765 -31.907  1.00  0.00     0.257 C 
HETATM   12  N   UNL     1      -3.766   0.083 -33.038  1.00  0.00    -0.352 N 
HETATM   13  H   UNL     1      -4.505   0.492 -33.597  1.00  0.00     0.163 HD
HETATM   14  O   UNL     1      -2.701   0.252 -31.023  1.00  0.00    -0.267 OA
BRANCH  12  15
HETATM   15  C   UNL     1      -3.503  -1.332 -33.161  1.00  0.00     0.161 C 
BRANCH  15  16
HETATM   16  C   UNL     1      -4.678  -2.118 -33.684  1.00  0.00    -0.041 A 
HETATM   17  C   UNL     1      -5.958  -1.553 -33.785  1.00  0.00     0.009 A 
HETATM   18  C   UNL     1      -7.009  -2.272 -34.357  1.00  0.00     0.001 A 
HETATM   19  C   UNL     1      -6.791  -3.555 -34.853  1.00  0.00     0.000 A 
HETATM   20  C   UNL     1      -5.522  -4.123 -34.776  1.00  0.00     0.001 A 
HETATM   21  C   UNL     1      -4.471  -3.408 -34.199  1.00  0.00     0.009 A 
ENDBRANCH  15  16
ENDBRANCH  12  15
ENDBRANCH   7  11
BRANCH   1  22
HETATM   22  C   UNL     1      -8.806   2.277 -32.320  1.00  0.00    -0.035 A 
HETATM   23  C   UNL     1      -9.926   3.055 -32.662  1.00  0.00     0.012 A 
HETATM   24  C   UNL     1     -11.084   2.470 -33.191  1.00  0.00     0.037 A 
HETATM   25  C   UNL     1     -11.144   1.093 -33.385  1.00  0.00     0.068 A 
HETATM   26  C   UNL     1     -10.056   0.307 -33.009  1.00  0.00     0.037 A 
HETATM   27  C   UNL     1      -8.898   0.888 -32.480  1.00  0.00     0.012 A 
BRANCH  25  28
HETATM   28  O   UNL     1     -12.197   0.401 -33.916  1.00  0.00    -0.356 OA
HETATM   29  C   UNL     1     -13.496   0.917 -33.650  1.00  0.00     0.210 C 
ENDBRANCH  25  28
ENDBRANCH   1  22
BRANCH   8  30
HETATM   30  C   UNL     1      -5.663   6.253 -32.493  1.00  0.00     0.409 C 
HETATM   31  F   UNL     1      -5.091   5.990 -33.689  1.00  0.00    -0.169 F 
HETATM   32  F   UNL     1      -6.781   6.985 -32.756  1.00  0.00    -0.169 F 
HETATM   33  F   UNL     1      -4.845   7.066 -31.794  1.00  0.00    -0.169 F 
ENDBRANCH   8  30
TORSDOF 6
ENDMDL
MODEL 3
REMARK VINA RESULT:      -9.0      1.737      2.455
REMARK  6 active torsions:
REMARK  status: ('A' for Active; 'I' for Inactive)
REMARK    1  A    between atoms: O_2  and  C_3 
REMARK    2  A    between atoms: C_6  and  C_7 
REMARK    3  A    between atoms: C_13  and  C_14 
REMARK       I    between atoms: C_14  and  N_15 
REMARK    4  A    between atoms: N_15  and  C_16 
REMARK    5  A    between atoms: C_16  and  C_17 
REMARK    6  A    between atoms: C_24  and  C_25 
ROOT
HETATM    1  C   UNL     1      -7.621   0.257 -32.550  1.00  0.00     0.118 C 
HETATM    2  N   UNL     1      -6.913   1.521 -32.321  1.00  0.00    -0.365 N 
HETATM    3  C   UNL     1      -7.635   2.642 -32.039  1.00  0.00     0.138 A 
HETATM    4  N   UNL     1      -9.004   2.651 -32.211  1.00  0.00    -0.240 N 
HETATM    5  N   UNL     1      -9.592   3.790 -31.829  1.00  0.00    -0.181 NA
HETATM    6  C   UNL     1      -8.560   4.573 -31.507  1.00  0.00     0.160 A 
HETATM    7  C   UNL     1      -7.306   3.916 -31.610  1.00  0.00     0.096 A 
HETATM    8  C   UNL     1      -9.780   1.532 -32.716  1.00  0.00     0.221 C 
HETATM    9  C   UNL     1      -8.853   0.526 -33.423  1.00  0.00     0.066 C 
HETATM   10  H   UNL     1      -6.026   1.605 -32.821  1.00  0.00     0.161 HD
ENDROOT
BRANCH   7  11
HETATM   11  C   UNL     1      -6.032   4.520 -31.273  1.00  0.00     0.257 C 
HETATM   12  N   UNL     1      -5.790   5.758 -31.825  1.00  0.00    -0.352 N 
HETATM   13  H   UNL     1      -6.404   6.062 -32.570  1.00  0.00     0.163 HD
HETATM   14  O   UNL     1      -5.216   3.937 -30.567  1.00  0.00    -0.267 OA
BRANCH  12  15
HETATM   15  C   UNL     1      -4.484   6.363 -31.708  1.00  0.00     0.161 C 
BRANCH  15  16
HETATM   16  C   UNL     1      -3.509   5.894 -32.758  1.00  0.00    -0.041 A 
HETATM   17  C   UNL     1      -3.916   5.615 -34.070  1.00  0.00     0.009 A 
HETATM   18  C   UNL     1      -2.980   5.270 -35.047  1.00  0.00     0.001 A 
HETATM   19  C   UNL     1      -1.625   5.219 -34.730  1.00  0.00     0.000 A 
HETATM   20  C   UNL     1      -1.203   5.512 -33.436  1.00  0.00     0.001 A 
HETATM   21  C   UNL     1      -2.138   5.850 -32.457  1.00  0.00     0.009 A 
ENDBRANCH  15  16
ENDBRANCH  12  15
ENDBRANCH   7  11
BRANCH   1  22
HETATM   22  C   UNL     1      -6.661  -0.797 -33.070  1.00  0.00    -0.035 A 
HETATM   23  C   UNL     1      -7.107  -1.686 -34.064  1.00  0.00     0.012 A 
HETATM   24  C   UNL     1      -6.246  -2.632 -34.634  1.00  0.00     0.037 A 
HETATM   25  C   UNL     1      -4.919  -2.710 -34.217  1.00  0.00     0.068 A 
HETATM   26  C   UNL     1      -4.477  -1.862 -33.203  1.00  0.00     0.037 A 
HETATM   27  C   UNL     1      -5.335  -0.916 -32.631  1.00  0.00     0.012 A 
BRANCH  25  28
HETATM   28  O   UNL     1      -3.971  -3.563 -34.708  1.00  0.00    -0.356 OA
HETATM   29  C   UNL     1      -3.592  -4.645 -33.866  1.00  0.00     0.210 C 
ENDBRANCH  25  28
ENDBRANCH   1  22
BRANCH   8  30
HETATM   30  C   UNL     1     -10.869   1.968 -33.675  1.00  0.00     0.409 C 
HETATM   31  F   UNL     1     -11.922   2.531 -33.042  1.00  0.00    -0.169 F 
HETATM   32  F   UNL     1     -10.373   2.919 -34.514  1.00  0.00    -0.169 F 
HETATM   33  F   UNL     1     -11.323   0.976 -34.468  1.00  0.00    -0.169 F 
ENDBRANCH   8  30
TORSDOF 6
ENDMDL
MODEL 4
REMARK VINA RESULT:      -8.9      3.380      5.916
REMARK  6 active torsions:
REMARK  status: ('A' for Active; 'I' for Inactive)
REMARK    1  A    between atoms: O_2  and  C_3 
REMARK    2  A    between atoms: C_6  and  C_7 
REMARK    3  A    between atoms: C_13  and  C_14 
REMARK       I    between atoms: C_14  and  N_15 
REMARK    4  A    between atoms: N_15  and  C_16 
REMARK    5  A    between atoms: C_16  and  C_17 
REMARK    6  A    between atoms: C_24  and  C_25 
ROOT
HETATM    1  C   UNL     1      -7.544   0.193 -34.288  1.00  0.00     0.118 C 
HETATM    2  N   UNL     1      -6.506   0.572 -33.322  1.00  0.00    -0.365 N 
HETATM    3  C   UNL     1      -5.318  -0.096 -33.331  1.00  0.00     0.138 A 
HETATM    4  N   UNL     1      -5.179  -1.262 -34.056  1.00  0.00    -0.240 N 
HETATM    5  N   UNL     1      -3.943  -1.772 -34.033  1.00  0.00    -0.181 NA
HETATM    6  C   UNL     1      -3.299  -0.972 -33.181  1.00  0.00     0.160 A 
HETATM    7  C   UNL     1      -4.098   0.101 -32.708  1.00  0.00     0.096 A 
HETATM    8  C   UNL     1      -6.242  -1.888 -34.823  1.00  0.00     0.221 C 
HETATM    9  C   UNL     1      -7.608  -1.336 -34.377  1.00  0.00     0.066 C 
HETATM   10  H   UNL     1      -6.865   0.950 -32.443  1.00  0.00     0.161 HD
ENDROOT
BRANCH   7  11
HETATM   11  C   UNL     1      -3.631   1.140 -31.812  1.00  0.00     0.257 C 
HETATM   12  N   UNL     1      -3.563   2.407 -32.346  1.00  0.00    -0.352 N 
HETATM   13  H   UNL     1      -3.640   2.491 -33.352  1.00  0.00     0.163 HD
HETATM   14  O   UNL     1      -3.289   0.886 -30.662  1.00  0.00    -0.267 OA
BRANCH  12  15
HETATM   15  C   UNL     1      -2.938   3.477 -31.603  1.00  0.00     0.161 C 
BRANCH  15  16
HETATM   16  C   UNL     1      -2.224   4.477 -32.477  1.00  0.00    -0.041 A 
HETATM   17  C   UNL     1      -2.340   4.451 -33.874  1.00  0.00     0.009 A 
HETATM   18  C   UNL     1      -1.742   5.442 -34.656  1.00  0.00     0.001 A 
HETATM   19  C   UNL     1      -1.039   6.481 -34.051  1.00  0.00     0.000 A 
HETATM   20  C   UNL     1      -0.930   6.530 -32.663  1.00  0.00     0.001 A 
HETATM   21  C   UNL     1      -1.521   5.536 -31.881  1.00  0.00     0.009 A 
ENDBRANCH  15  16
ENDBRANCH  12  15
ENDBRANCH   7  11
BRANCH   1  22
HETATM   22  C   UNL     1      -8.850   0.892 -33.957  1.00  0.00    -0.035 A 
HETATM   23  C   UNL     1      -8.985   2.256 -34.272  1.00  0.00     0.012 A 
HETATM   24  C   UNL     1     -10.191   2.936 -34.057  1.00  0.00     0.037 A 
HETATM   25  C   UNL     1     -11.285   2.265 -33.518  1.00  0.00     0.068 A 
HETATM   26  C   UNL     1     -11.149   0.924 -33.162  1.00  0.00     0.037 A 
HETATM   27  C   UNL     1      -9.946   0.241 -33.375  1.00  0.00     0.012 A 
BRANCH  25  28
HETATM   28  O   UNL     1     -12.521   2.800 -33.285  1.00  0.00    -0.356 OA
HETATM   29  C   UNL     1     -13.634   1.937 -33.481  1.00  0.00     0.210 C 
ENDBRANCH  25  28
ENDBRANCH   1  22
BRANCH   8  30
HETATM   30  C   UNL     1      -6.244  -3.397 -34.686  1.00  0.00     0.409 C 
HETATM   31  F   UNL     1      -7.423  -3.874 -34.229  1.00  0.00    -0.169 F 
HETATM   32  F   UNL     1      -6.053  -3.959 -35.912  1.00  0.00    -0.169 F 
HETATM   33  F   UNL     1      -5.254  -3.872 -33.903  1.00  0.00    -0.169 F 
ENDBRANCH   8  30
TORSDOF 6
ENDMDL
MODEL 5
REMARK VINA RESULT:      -8.8      2.893      4.090
REMARK  6 active torsions:
REMARK  status: ('A' for Active; 'I' for Inactive)
REMARK    1  A    between atoms: O_2  and  C_3 
REMARK    2  A    between atoms: C_6  and  C_7 
REMARK    3  A    between atoms: C_13  and  C_14 
REMARK       I    between atoms: C_14  and  N_15 
REMARK    4  A    between atoms: N_15  and  C_16 
REMARK    5  A    between atoms: C_16  and  C_17 
REMARK    6  A    between atoms: C_24  and  C_25 
ROOT
HETATM    1  C   UNL     1      -4.836   2.109 -31.713  1.00  0.00     0.118 C 
HETATM    2  N   UNL     1      -3.636   2.947 -31.613  1.00  0.00    -0.365 N 
HETATM    3  C   UNL     1      -3.773   4.303 -31.627  1.00  0.00     0.138 A 
HETATM    4  N   UNL     1      -4.977   4.879 -31.978  1.00  0.00    -0.240 N 
HETATM    5  N   UNL     1      -4.991   6.213 -31.880  1.00  0.00    -0.181 NA
HETATM    6  C   UNL     1      -3.728   6.508 -31.565  1.00  0.00     0.160 A 
HETATM    7  C   UNL     1      -2.913   5.360 -31.385  1.00  0.00     0.096 A 
HETATM    8  C   UNL     1      -6.160   4.138 -32.382  1.00  0.00     0.221 C 
HETATM    9  C   UNL     1      -5.771   2.701 -32.775  1.00  0.00     0.066 C 
HETATM   10  H   UNL     1      -2.791   2.522 -31.998  1.00  0.00     0.161 HD
ENDROOT
BRANCH   7  11
HETATM   11  C   UNL     1      -1.519   5.396 -30.991  1.00  0.00     0.257 C 
HETATM   12  N   UNL     1      -1.086   6.571 -30.419  1.00  0.00    -0.352 N 
HETATM   13  H   UNL     1      -1.694   7.377 -30.499  1.00  0.00     0.163 HD
HETATM   14  O   UNL     1      -0.773   4.443 -31.194  1.00  0.00    -0.267 OA
BRANCH  12  15
HETATM   15  C   UNL     1       0.320   6.781 -30.163  1.00  0.00     0.161 C 
BRANCH  15  16
HETATM   16  C   UNL     1       0.622   7.142 -28.731  1.00  0.00    -0.041 A 
HETATM   17  C   UNL     1       1.344   8.298 -28.398  1.00  0.00     0.009 A 
HETATM   18  C   UNL     1       1.533   8.658 -27.063  1.00  0.00     0.001 A 
HETATM   19  C   UNL     1       0.987   7.881 -26.045  1.00  0.00     0.000 A 
HETATM   20  C   UNL     1       0.252   6.740 -26.359  1.00  0.00     0.001 A 
HETATM   21  C   UNL     1       0.068   6.375 -27.694  1.00  0.00     0.009 A 
ENDBRANCH  15  16
ENDBRANCH  12  15
ENDBRANCH   7  11
BRANCH   1  22
HETATM   22  C   UNL     1      -4.447   0.656 -31.911  1.00  0.00    -0.035 A 
HETATM   23  C   UNL     1      -5.252  -0.153 -32.733  1.00  0.00     0.012 A 
HETATM   24  C   UNL     1      -4.905  -1.481 -33.011  1.00  0.00     0.037 A 
HETATM   25  C   UNL     1      -3.745  -2.028 -32.469  1.00  0.00     0.068 A 
HETATM   26  C   UNL     1      -2.961  -1.249 -31.619  1.00  0.00     0.037 A 
HETATM   27  C   UNL     1      -3.306   0.078 -31.339  1.00  0.00     0.012 A 
BRANCH  25  28
HETATM   28  O   UNL     1      -3.278  -3.295 -32.682  1.00  0.00    -0.356 OA
HETATM   29  C   UNL     1      -3.843  -4.006 -33.776  1.00  0.00     0.210 C 
ENDBRANCH  25  28
ENDBRANCH   1  22
BRANCH   8  30
HETATM   30  C   UNL     1      -6.888   4.793 -33.537  1.00  0.00     0.409 C 
HETATM   31  F   UNL     1      -6.047   5.207 -34.511  1.00  0.00    -0.169 F 
HETATM   32  F   UNL     1      -7.723   3.885 -34.114  1.00  0.00    -0.169 F 
HETATM   33  F   UNL     1      -7.666   5.831 -33.170  1.00  0.00    -0.169 F 
ENDBRANCH   8  30
TORSDOF 6
ENDMDL
MODEL 6
REMARK VINA RESULT:      -8.7      3.589      7.398
REMARK  6 active torsions:
REMARK  status: ('A' for Active; 'I' for Inactive)
REMARK    1  A    between atoms: O_2  and  C_3 
REMARK    2  A    between atoms: C_6  and  C_7 
REMARK    3  A    between atoms: C_13  and  C_14 
REMARK       I    between atoms: C_14  and  N_15 
REMARK    4  A    between atoms: N_15  and  C_16 
REMARK    5  A    between atoms: C_16  and  C_17 
REMARK    6  A    between atoms: C_24  and  C_25 
ROOT
HETATM    1  C   UNL     1      -6.011   0.617 -33.832  1.00  0.00     0.118 C 
HETATM    2  N   UNL     1      -7.434   0.955 -33.947  1.00  0.00    -0.365 N 
HETATM    3  C   UNL     1      -7.843   2.214 -33.622  1.00  0.00     0.138 A 
HETATM    4  N   UNL     1      -6.991   3.076 -32.963  1.00  0.00    -0.240 N 
HETATM    5  N   UNL     1      -7.497   4.299 -32.772  1.00  0.00    -0.181 NA
HETATM    6  C   UNL     1      -8.748   4.185 -33.221  1.00  0.00     0.160 A 
HETATM    7  C   UNL     1      -9.031   2.909 -33.772  1.00  0.00     0.096 A 
HETATM    8  C   UNL     1      -5.643   2.740 -32.538  1.00  0.00     0.221 C 
HETATM    9  C   UNL     1      -5.461   1.211 -32.529  1.00  0.00     0.066 C 
HETATM   10  H   UNL     1      -8.068   0.167 -33.806  1.00  0.00     0.161 HD
ENDROOT
BRANCH   7  11
HETATM   11  C   UNL     1     -10.296   2.535 -34.373  1.00  0.00     0.257 C 
HETATM   12  N   UNL     1     -11.147   3.573 -34.678  1.00  0.00    -0.352 N 
HETATM   13  H   UNL     1     -10.930   4.481 -34.285  1.00  0.00     0.163 HD
HETATM   14  O   UNL     1     -10.591   1.359 -34.561  1.00  0.00    -0.267 OA
BRANCH  12  15
HETATM   15  C   UNL     1     -12.500   3.304 -35.104  1.00  0.00     0.161 C 
BRANCH  15  16
HETATM   16  C   UNL     1     -13.417   2.908 -33.975  1.00  0.00    -0.041 A 
HETATM   17  C   UNL     1     -13.688   3.774 -32.906  1.00  0.00     0.009 A 
HETATM   18  C   UNL     1     -14.611   3.419 -31.920  1.00  0.00     0.001 A 
HETATM   19  C   UNL     1     -15.288   2.205 -32.000  1.00  0.00     0.000 A 
HETATM   20  C   UNL     1     -15.044   1.342 -33.065  1.00  0.00     0.001 A 
HETATM   21  C   UNL     1     -14.117   1.692 -34.048  1.00  0.00     0.009 A 
ENDBRANCH  15  16
ENDBRANCH  12  15
ENDBRANCH   7  11
BRANCH   1  22
HETATM   22  C   UNL     1      -5.809  -0.876 -34.014  1.00  0.00    -0.035 A 
HETATM   23  C   UNL     1      -6.894  -1.656 -34.452  1.00  0.00     0.012 A 
HETATM   24  C   UNL     1      -6.750  -3.025 -34.707  1.00  0.00     0.037 A 
HETATM   25  C   UNL     1      -5.515  -3.643 -34.526  1.00  0.00     0.068 A 
HETATM   26  C   UNL     1      -4.443  -2.889 -34.051  1.00  0.00     0.037 A 
HETATM   27  C   UNL     1      -4.584  -1.521 -33.795  1.00  0.00     0.012 A 
BRANCH  25  28
HETATM   28  O   UNL     1      -5.232  -4.959 -34.764  1.00  0.00    -0.356 OA
HETATM   29  C   UNL     1      -4.214  -5.546 -33.962  1.00  0.00     0.210 C 
ENDBRANCH  25  28
ENDBRANCH   1  22
BRANCH   8  30
HETATM   30  C   UNL     1      -5.315   3.290 -31.166  1.00  0.00     0.409 C 
HETATM   31  F   UNL     1      -6.323   3.117 -30.283  1.00  0.00    -0.169 F 
HETATM   32  F   UNL     1      -4.242   2.620 -30.658  1.00  0.00    -0.169 F 
HETATM   33  F   UNL     1      -4.967   4.593 -31.172  1.00  0.00    -0.169 F 
ENDBRANCH   8  30
TORSDOF 6
ENDMDL
MODEL 7
REMARK VINA RESULT:      -8.7     16.713     17.533
REMARK  6 active torsions:
REMARK  status: ('A' for Active; 'I' for Inactive)
REMARK    1  A    between atoms: O_2  and  C_3 
REMARK    2  A    between atoms: C_6  and  C_7 
REMARK    3  A    between atoms: C_13  and  C_14 
REMARK       I    between atoms: C_14  and  N_15 
REMARK    4  A    between atoms: N_15  and  C_16 
REMARK    5  A    between atoms: C_16  and  C_17 
REMARK    6  A    between atoms: C_24  and  C_25 
ROOT
HETATM    1  C   UNL     1      -7.113 -13.468 -36.827  1.00  0.00     0.118 C 
HETATM    2  N   UNL     1      -5.945 -13.782 -37.658  1.00  0.00    -0.365 N 
HETATM    3  C   UNL     1      -5.855 -13.238 -38.904  1.00  0.00     0.138 A 
HETATM    4  N   UNL     1      -6.945 -12.610 -39.472  1.00  0.00    -0.240 N 
HETATM    5  N   UNL     1      -6.695 -12.060 -40.665  1.00  0.00    -0.181 NA
HETATM    6  C   UNL     1      -5.441 -12.441 -40.919  1.00  0.00     0.160 A 
HETATM    7  C   UNL     1      -4.853 -13.175 -39.857  1.00  0.00     0.096 A 
HETATM    8  C   UNL     1      -8.251 -12.497 -38.845  1.00  0.00     0.221 C 
HETATM    9  C   UNL     1      -8.373 -13.516 -37.698  1.00  0.00     0.066 C 
HETATM   10  H   UNL     1      -5.533 -14.699 -37.478  1.00  0.00     0.161 HD
ENDROOT
BRANCH   7  11
HETATM   11  C   UNL     1      -3.489 -13.665 -39.853  1.00  0.00     0.257 C 
HETATM   12  N   UNL     1      -2.601 -12.964 -39.069  1.00  0.00    -0.352 N 
HETATM   13  H   UNL     1      -2.901 -12.060 -38.723  1.00  0.00     0.163 HD
HETATM   14  O   UNL     1      -3.153 -14.625 -40.539  1.00  0.00    -0.267 OA
BRANCH  12  15
HETATM   15  C   UNL     1      -1.187 -13.249 -39.137  1.00  0.00     0.161 C 
BRANCH  15  16
HETATM   16  C   UNL     1      -0.693 -14.111 -38.003  1.00  0.00    -0.041 A 
HETATM   17  C   UNL     1      -1.384 -14.195 -36.785  1.00  0.00     0.009 A 
HETATM   18  C   UNL     1      -0.956 -15.069 -35.784  1.00  0.00     0.001 A 
HETATM   19  C   UNL     1       0.154 -15.884 -35.994  1.00  0.00     0.000 A 
HETATM   20  C   UNL     1       0.839 -15.825 -37.204  1.00  0.00     0.001 A 
HETATM   21  C   UNL     1       0.417 -14.947 -38.204  1.00  0.00     0.009 A 
ENDBRANCH  15  16
ENDBRANCH  12  15
ENDBRANCH   7  11
BRANCH   1  22
HETATM   22  C   UNL     1      -7.130 -14.348 -35.591  1.00  0.00    -0.035 A 
HETATM   23  C   UNL     1      -7.205 -15.743 -35.755  1.00  0.00     0.012 A 
HETATM   24  C   UNL     1      -7.152 -16.609 -34.657  1.00  0.00     0.037 A 
HETATM   25  C   UNL     1      -7.026 -16.097 -33.368  1.00  0.00     0.068 A 
HETATM   26  C   UNL     1      -6.993 -14.714 -33.189  1.00  0.00     0.037 A 
HETATM   27  C   UNL     1      -7.046 -13.846 -34.285  1.00  0.00     0.012 A 
BRANCH  25  28
HETATM   28  O   UNL     1      -6.934 -16.828 -32.217  1.00  0.00    -0.356 OA
HETATM   29  C   UNL     1      -5.947 -16.417 -31.279  1.00  0.00     0.210 C 
ENDBRANCH  25  28
ENDBRANCH   1  22
BRANCH   8  30
HETATM   30  C   UNL     1      -9.385 -12.710 -39.827  1.00  0.00     0.409 C 
HETATM   31  F   UNL     1      -9.144 -13.729 -40.682  1.00  0.00    -0.169 F 
HETATM   32  F   UNL     1     -10.515 -13.043 -39.143  1.00  0.00    -0.169 F 
HETATM   33  F   UNL     1      -9.697 -11.611 -40.544  1.00  0.00    -0.169 F 
ENDBRANCH   8  30
TORSDOF 6
ENDMDL
MODEL 8
REMARK VINA RESULT:      -8.7      2.059      2.595
REMARK  6 active torsions:
REMARK  status: ('A' for Active; 'I' for Inactive)
REMARK    1  A    between atoms: O_2  and  C_3 
REMARK    2  A    between atoms: C_6  and  C_7 
REMARK    3  A    between atoms: C_13  and  C_14 
REMARK       I    between atoms: C_14  and  N_15 
REMARK    4  A    between atoms: N_15  and  C_16 
REMARK    5  A    between atoms: C_16  and  C_17 
REMARK    6  A    between atoms: C_24  and  C_25 
ROOT
HETATM    1  C   UNL     1      -6.007   0.709 -31.784  1.00  0.00     0.118 C 
HETATM    2  N   UNL     1      -5.004   1.773 -31.893  1.00  0.00    -0.365 N 
HETATM    3  C   UNL     1      -5.332   3.035 -31.494  1.00  0.00     0.138 A 
HETATM    4  N   UNL     1      -6.646   3.363 -31.229  1.00  0.00    -0.240 N 
HETATM    5  N   UNL     1      -6.814   4.611 -30.779  1.00  0.00    -0.181 NA
HETATM    6  C   UNL     1      -5.588   5.133 -30.862  1.00  0.00     0.160 A 
HETATM    7  C   UNL     1      -4.611   4.200 -31.297  1.00  0.00     0.096 A 
HETATM    8  C   UNL     1      -7.769   2.453 -31.372  1.00  0.00     0.221 C 
HETATM    9  C   UNL     1      -7.364   1.252 -32.247  1.00  0.00     0.066 C 
HETATM   10  H   UNL     1      -4.331   1.644 -32.651  1.00  0.00     0.161 HD
ENDROOT
BRANCH   7  11
HETATM   11  C   UNL     1      -3.197   4.492 -31.427  1.00  0.00     0.257 C 
HETATM   12  N   UNL     1      -2.851   5.823 -31.375  1.00  0.00    -0.352 N 
HETATM   13  H   UNL     1      -3.600   6.500 -31.458  1.00  0.00     0.163 HD
HETATM   14  O   UNL     1      -2.375   3.599 -31.606  1.00  0.00    -0.267 OA
BRANCH  12  15
HETATM   15  C   UNL     1      -1.501   6.236 -31.680  1.00  0.00     0.161 C 
BRANCH  15  16
HETATM   16  C   UNL     1      -0.663   6.501 -30.455  1.00  0.00    -0.041 A 
HETATM   17  C   UNL     1      -0.673   7.746 -29.810  1.00  0.00     0.009 A 
HETATM   18  C   UNL     1       0.041   7.939 -28.626  1.00  0.00     0.001 A 
HETATM   19  C   UNL     1       0.757   6.886 -28.061  1.00  0.00     0.000 A 
HETATM   20  C   UNL     1       0.762   5.639 -28.680  1.00  0.00     0.001 A 
HETATM   21  C   UNL     1       0.054   5.446 -29.868  1.00  0.00     0.009 A 
ENDBRANCH  15  16
ENDBRANCH  12  15
ENDBRANCH   7  11
BRANCH   1  22
HETATM   22  C   UNL     1      -5.522  -0.545 -32.488  1.00  0.00    -0.035 A 
HETATM   23  C   UNL     1      -6.294  -1.070 -33.540  1.00  0.00     0.012 A 
HETATM   24  C   UNL     1      -5.862  -2.181 -34.275  1.00  0.00     0.037 A 
HETATM   25  C   UNL     1      -4.649  -2.792 -33.969  1.00  0.00     0.068 A 
HETATM   26  C   UNL     1      -3.895  -2.307 -32.901  1.00  0.00     0.037 A 
HETATM   27  C   UNL     1      -4.325  -1.197 -32.165  1.00  0.00     0.012 A 
BRANCH  25  28
HETATM   28  O   UNL     1      -4.100  -3.860 -34.621  1.00  0.00    -0.356 OA
HETATM   29  C   UNL     1      -3.835  -5.017 -33.837  1.00  0.00     0.210 C 
ENDBRANCH  25  28
ENDBRANCH   1  22
BRANCH   8  30
HETATM   30  C   UNL     1      -8.985   3.124 -31.975  1.00  0.00     0.409 C 
HETATM   31  F   UNL     1      -8.665   3.975 -32.975  1.00  0.00    -0.169 F 
HETATM   32  F   UNL     1      -9.795   2.175 -32.524  1.00  0.00    -0.169 F 
HETATM   33  F   UNL     1      -9.744   3.782 -31.076  1.00  0.00    -0.169 F 
ENDBRANCH   8  30
TORSDOF 6
ENDMDL
MODEL 9
REMARK VINA RESULT:      -8.5      3.603      8.718
REMARK  6 active torsions:
REMARK  status: ('A' for Active; 'I' for Inactive)
REMARK    1  A    between atoms: O_2  and  C_3 
REMARK    2  A    between atoms: C_6  and  C_7 
REMARK    3  A    between atoms: C_13  and  C_14 
REMARK       I    between atoms: C_14  and  N_15 
REMARK    4  A    between atoms: N_15  and  C_16 
REMARK    5  A    between atoms: C_16  and  C_17 
REMARK    6  A    between atoms: C_24  and  C_25 
ROOT
HETATM    1  C   UNL     1      -5.910   1.924 -32.647  1.00  0.00     0.118 C 
HETATM    2  N   UNL     1      -7.242   2.507 -32.843  1.00  0.00    -0.365 N 
HETATM    3  C   UNL     1      -8.319   1.678 -32.938  1.00  0.00     0.138 A 
HETATM    4  N   UNL     1      -8.141   0.319 -33.099  1.00  0.00    -0.240 N 
HETATM    5  N   UNL     1      -9.280  -0.382 -33.106  1.00  0.00    -0.181 NA
HETATM    6  C   UNL     1     -10.220   0.565 -33.060  1.00  0.00     0.160 A 
HETATM    7  C   UNL     1      -9.689   1.876 -32.948  1.00  0.00     0.096 A 
HETATM    8  C   UNL     1      -6.850  -0.337 -33.211  1.00  0.00     0.221 C 
HETATM    9  C   UNL     1      -5.763   0.698 -33.556  1.00  0.00     0.066 C 
HETATM   10  H   UNL     1      -7.244   3.396 -33.347  1.00  0.00     0.161 HD
ENDROOT
BRANCH   7  11
HETATM   11  C   UNL     1     -10.488   3.079 -32.830  1.00  0.00     0.257 C 
HETATM   12  N   UNL     1     -11.705   2.934 -32.202  1.00  0.00    -0.352 N 
HETATM   13  H   UNL     1     -12.041   1.990 -32.056  1.00  0.00     0.163 HD
HETATM   14  O   UNL     1     -10.107   4.148 -33.297  1.00  0.00    -0.267 OA
BRANCH  12  15
HETATM   15  C   UNL     1     -12.656   4.020 -32.197  1.00  0.00     0.161 C 
BRANCH  15  16
HETATM   16  C   UNL     1     -14.091   3.562 -32.134  1.00  0.00    -0.041 A 
HETATM   17  C   UNL     1     -15.132   4.441 -31.802  1.00  0.00     0.009 A 
HETATM   18  C   UNL     1     -16.461   4.015 -31.838  1.00  0.00     0.001 A 
HETATM   19  C   UNL     1     -16.768   2.713 -32.227  1.00  0.00     0.000 A 
HETATM   20  C   UNL     1     -15.746   1.834 -32.577  1.00  0.00     0.001 A 
HETATM   21  C   UNL     1     -14.417   2.256 -32.535  1.00  0.00     0.009 A 
ENDBRANCH  15  16
ENDBRANCH  12  15
ENDBRANCH   7  11
BRANCH   1  22
HETATM   22  C   UNL     1      -4.842   2.991 -32.801  1.00  0.00    -0.035 A 
HETATM   23  C   UNL     1      -5.177   4.196 -33.444  1.00  0.00     0.012 A 
HETATM   24  C   UNL     1      -4.256   5.245 -33.551  1.00  0.00     0.037 A 
HETATM   25  C   UNL     1      -2.977   5.108 -33.019  1.00  0.00     0.068 A 
HETATM   26  C   UNL     1      -2.618   3.903 -32.417  1.00  0.00     0.037 A 
HETATM   27  C   UNL     1      -3.537   2.853 -32.308  1.00  0.00     0.012 A 
BRANCH  25  28
HETATM   28  O   UNL     1      -1.996   6.060 -33.030  1.00  0.00    -0.356 OA
HETATM   29  C   UNL     1      -1.273   6.214 -34.245  1.00  0.00     0.210 C 
ENDBRANCH  25  28
ENDBRANCH   1  22
BRANCH   8  30
HETATM   30  C   UNL     1      -6.845  -1.434 -34.256  1.00  0.00     0.409 C 
HETATM   31  F   UNL     1      -7.495  -2.545 -33.843  1.00  0.00    -0.169 F 
HETATM   32  F   UNL     1      -7.501  -0.998 -35.367  1.00  0.00    -0.169 F 
HETATM   33  F   UNL     1      -5.611  -1.785 -34.669  1.00  0.00    -0.169 F 
ENDBRANCH   8  30
TORSDOF 6
ENDMDL
MODEL 10
REMARK VINA RESULT:      -8.5      3.319      8.555
REMARK  6 active torsions:
REMARK  status: ('A' for Active; 'I' for Inactive)
REMARK    1  A    between atoms: O_2  and  C_3 
REMARK    2  A    between atoms: C_6  and  C_7 
REMARK    3  A    between atoms: C_13  and  C_14 
REMARK       I    between atoms: C_14  and  N_15 
REMARK    4  A    between atoms: N_15  and  C_16 
REMARK    5  A    between atoms: C_16  and  C_17 
REMARK    6  A    between atoms: C_24  and  C_25 
ROOT
HETATM    1  C   UNL     1      -3.594   5.529 -31.030  1.00  0.00     0.118 C 
HETATM    2  N   UNL     1      -3.483   4.070 -31.128  1.00  0.00    -0.365 N 
HETATM    3  C   UNL     1      -4.594   3.341 -31.432  1.00  0.00     0.138 A 
HETATM    4  N   UNL     1      -5.842   3.928 -31.404  1.00  0.00    -0.240 N 
HETATM    5  N   UNL     1      -6.833   3.118 -31.794  1.00  0.00    -0.181 NA
HETATM    6  C   UNL     1      -6.217   1.947 -31.970  1.00  0.00     0.160 A 
HETATM    7  C   UNL     1      -4.814   2.016 -31.767  1.00  0.00     0.096 A 
HETATM    8  C   UNL     1      -6.097   5.309 -31.034  1.00  0.00     0.221 C 
HETATM    9  C   UNL     1      -4.883   5.883 -30.280  1.00  0.00     0.066 C 
HETATM   10  H   UNL     1      -2.759   3.660 -30.534  1.00  0.00     0.161 HD
ENDROOT
BRANCH   7  11
HETATM   11  C   UNL     1      -3.903   0.902 -31.941  1.00  0.00     0.257 C 
HETATM   12  N   UNL     1      -4.334  -0.102 -32.778  1.00  0.00    -0.352 N 
HETATM   13  H   UNL     1      -5.312  -0.097 -33.043  1.00  0.00     0.163 HD
HETATM   14  O   UNL     1      -2.832   0.855 -31.346  1.00  0.00    -0.267 OA
BRANCH  12  15
HETATM   15  C   UNL     1      -3.592  -1.337 -32.876  1.00  0.00     0.161 C 
BRANCH  15  16
HETATM   16  C   UNL     1      -4.371  -2.456 -33.519  1.00  0.00    -0.041 A 
HETATM   17  C   UNL     1      -5.572  -2.221 -34.202  1.00  0.00     0.009 A 
HETATM   18  C   UNL     1      -6.228  -3.260 -34.866  1.00  0.00     0.001 A 
HETATM   19  C   UNL     1      -5.681  -4.541 -34.872  1.00  0.00     0.000 A 
HETATM   20  C   UNL     1      -4.479  -4.786 -34.213  1.00  0.00     0.001 A 
HETATM   21  C   UNL     1      -3.826  -3.750 -33.543  1.00  0.00     0.009 A 
ENDBRANCH  15  16
ENDBRANCH  12  15
ENDBRANCH   7  11
BRANCH   1  22
HETATM   22  C   UNL     1      -2.316   6.116 -30.461  1.00  0.00    -0.035 A 
HETATM   23  C   UNL     1      -1.083   5.684 -30.981  1.00  0.00     0.012 A 
HETATM   24  C   UNL     1       0.127   6.241 -30.547  1.00  0.00     0.037 A 
HETATM   25  C   UNL     1       0.127   7.241 -29.578  1.00  0.00     0.068 A 
HETATM   26  C   UNL     1      -1.086   7.648 -29.024  1.00  0.00     0.037 A 
HETATM   27  C   UNL     1      -2.296   7.093 -29.456  1.00  0.00     0.012 A 
BRANCH  25  28
HETATM   28  O   UNL     1       1.228   7.886 -29.089  1.00  0.00    -0.356 OA
HETATM   29  C   UNL     1       1.223   8.187 -27.699  1.00  0.00     0.210 C 
ENDBRANCH  25  28
ENDBRANCH   1  22
BRANCH   8  30
HETATM   30  C   UNL     1      -7.336   5.460 -30.175  1.00  0.00     0.409 C 
HETATM   31  F   UNL     1      -7.372   4.570 -29.158  1.00  0.00    -0.169 F 
HETATM   32  F   UNL     1      -7.337   6.696 -29.602  1.00  0.00    -0.169 F 
HETATM   33  F   UNL     1      -8.490   5.371 -30.866  1.00  0.00    -0.169 F 
ENDBRANCH   8  30
TORSDOF 6
ENDMDL
