MODEL 1
REMARK VINA RESULT:      -8.0      0.000      0.000
REMARK  5 active torsions:
REMARK  status: ('A' for Active; 'I' for Inactive)
REMARK    1  A    between atoms: C_6  and  N_7 
REMARK       I    between atoms: N_7  and  C_8 
REMARK    2  A    between atoms: C_8  and  C_9 
REMARK    3  A    between atoms: C_9  and  C_10 
REMARK    4  A    between atoms: C_12  and  O_13 
REMARK    5  A    between atoms: C_19  and  C_20 
ROOT
HETATM    1  C   UNL     1      -6.758  -4.188 -34.917  1.00  0.00     0.073 C 
HETATM    2  C   UNL     1      -5.667  -3.265 -34.515  1.00  0.00     0.065 A 
HETATM    3  N   UNL     1      -4.404  -3.704 -34.468  1.00  0.00    -0.177 NA
HETATM    4  N   UNL     1      -3.700  -2.625 -34.086  1.00  0.00    -0.262 N 
HETATM    5  H   UNL     1      -2.690  -2.689 -33.997  1.00  0.00     0.191 HD
HETATM    6  C   UNL     1      -4.471  -1.516 -33.844  1.00  0.00     0.137 A 
HETATM    7  C   UNL     1      -5.764  -1.891 -34.151  1.00  0.00     0.046 A 
ENDROOT
BRANCH   6   8
HETATM    8  N   UNL     1      -3.965  -0.310 -33.394  1.00  0.00    -0.311 N 
HETATM    9  C   UNL     1      -4.170   0.138 -32.098  1.00  0.00     0.227 C 
HETATM   10  O   UNL     1      -4.768  -0.501 -31.232  1.00  0.00    -0.273 OA
HETATM   11  H   UNL     1      -3.387   0.230 -34.027  1.00  0.00     0.170 HD
BRANCH   9  12
HETATM   12  C   UNL     1      -3.650   1.540 -31.852  1.00  0.00     0.141 C 
BRANCH  12  13
HETATM   13  C   UNL     1      -4.333   2.682 -32.575  1.00  0.00    -0.047 A 
HETATM   14  C   UNL     1      -3.667   3.831 -33.039  1.00  0.00     0.044 A 
HETATM   15  C   UNL     1      -4.341   4.795 -33.795  1.00  0.00     0.068 A 
HETATM   16  C   UNL     1      -5.700   4.634 -34.064  1.00  0.00     0.037 A 
HETATM   17  C   UNL     1      -6.380   3.509 -33.606  1.00  0.00     0.003 A 
HETATM   18  C   UNL     1      -5.699   2.536 -32.877  1.00  0.00     0.007 A 
BRANCH  15  19
HETATM   19  O   UNL     1      -3.787   5.931 -34.321  1.00  0.00    -0.356 OA
HETATM   20  C   UNL     1      -2.369   5.972 -34.416  1.00  0.00     0.210 C 
ENDBRANCH  15  19
ENDBRANCH  12  13
ENDBRANCH   9  12
ENDBRANCH   6   8
BRANCH   7  21
HETATM   21  C   UNL     1      -6.904  -0.996 -34.158  1.00  0.00    -0.020 A 
HETATM   22  C   UNL     1      -7.136  -0.185 -35.277  1.00  0.00     0.014 A 
HETATM   23  C   UNL     1      -8.211   0.706 -35.292  1.00  0.00     0.020 A 
HETATM   24  C   UNL     1      -9.054   0.786 -34.186  1.00  0.00     0.011 A 
HETATM   25 BR   UNL     1     -10.503   2.001 -34.200  1.00  0.00    -0.051 Br
HETATM   26  C   UNL     1      -8.839  -0.020 -33.070  1.00  0.00     0.020 A 
HETATM   27  C   UNL     1      -7.765  -0.916 -33.057  1.00  0.00     0.014 A 
ENDBRANCH   7  21
TORSDOF 5
ENDMDL
MODEL 2
REMARK VINA RESULT:      -7.9      1.628      2.308
REMARK  5 active torsions:
REMARK  status: ('A' for Active; 'I' for Inactive)
REMARK    1  A    between atoms: C_6  and  N_7 
REMARK       I    between atoms: N_7  and  C_8 
REMARK    2  A    between atoms: C_8  and  C_9 
REMARK    3  A    between atoms: C_9  and  C_10 
REMARK    4  A    between atoms: C_12  and  O_13 
REMARK    5  A    between atoms: C_19  and  C_20 
ROOT
HETATM    1  C   UNL     1      -7.078  -4.398 -35.482  1.00  0.00     0.073 C 
HETATM    2  C   UNL     1      -5.890  -3.767 -34.855  1.00  0.00     0.065 A 
HETATM    3  N   UNL     1      -4.737  -4.442 -34.779  1.00  0.00    -0.177 NA
HETATM    4  N   UNL     1      -3.898  -3.583 -34.176  1.00  0.00    -0.262 N 
HETATM    5  H   UNL     1      -2.930  -3.851 -34.019  1.00  0.00     0.191 HD
HETATM    6  C   UNL     1      -4.481  -2.393 -33.821  1.00  0.00     0.137 A 
HETATM    7  C   UNL     1      -5.780  -2.466 -34.285  1.00  0.00     0.046 A 
ENDROOT
BRANCH   6   8
HETATM    8  N   UNL     1      -3.821  -1.382 -33.147  1.00  0.00    -0.311 N 
HETATM    9  C   UNL     1      -3.068  -1.625 -32.009  1.00  0.00     0.227 C 
HETATM   10  O   UNL     1      -2.881  -2.743 -31.528  1.00  0.00    -0.273 OA
HETATM   11  H   UNL     1      -3.857  -0.447 -33.536  1.00  0.00     0.170 HD
BRANCH   9  12
HETATM   12  C   UNL     1      -2.542  -0.365 -31.350  1.00  0.00     0.141 C 
BRANCH  12  13
HETATM   13  C   UNL     1      -3.537   0.731 -31.030  1.00  0.00    -0.047 A 
HETATM   14  C   UNL     1      -3.342   2.087 -31.346  1.00  0.00     0.044 A 
HETATM   15  C   UNL     1      -4.351   3.030 -31.120  1.00  0.00     0.068 A 
HETATM   16  C   UNL     1      -5.554   2.625 -30.542  1.00  0.00     0.037 A 
HETATM   17  C   UNL     1      -5.764   1.289 -30.213  1.00  0.00     0.003 A 
HETATM   18  C   UNL     1      -4.767   0.348 -30.465  1.00  0.00     0.007 A 
BRANCH  15  19
HETATM   19  O   UNL     1      -4.281   4.363 -31.416  1.00  0.00    -0.356 OA
HETATM   20  C   UNL     1      -3.296   4.764 -32.360  1.00  0.00     0.210 C 
ENDBRANCH  15  19
ENDBRANCH  12  13
ENDBRANCH   9  12
ENDBRANCH   6   8
BRANCH   7  21
HETATM   21  C   UNL     1      -6.736  -1.378 -34.239  1.00  0.00    -0.020 A 
HETATM   22  C   UNL     1      -7.367  -1.064 -33.028  1.00  0.00     0.014 A 
HETATM   23  C   UNL     1      -8.314  -0.040 -32.969  1.00  0.00     0.020 A 
HETATM   24  C   UNL     1      -8.630   0.672 -34.124  1.00  0.00     0.011 A 
HETATM   25 BR   UNL     1      -9.920   2.052 -34.048  1.00  0.00    -0.051 Br
HETATM   26  C   UNL     1      -8.004   0.376 -35.334  1.00  0.00     0.020 A 
HETATM   27  C   UNL     1      -7.053  -0.647 -35.391  1.00  0.00     0.014 A 
ENDBRANCH   7  21
TORSDOF 5
ENDMDL
MODEL 3
REMARK VINA RESULT:      -7.8      3.584      6.413
REMARK  5 active torsions:
REMARK  status: ('A' for Active; 'I' for Inactive)
REMARK    1  A    between atoms: C_6  and  N_7 
REMARK       I    between atoms: N_7  and  C_8 
REMARK    2  A    between atoms: C_8  and  C_9 
REMARK    3  A    between atoms: C_9  and  C_10 
REMARK    4  A    between atoms: C_12  and  O_13 
REMARK    5  A    between atoms: C_19  and  C_20 
ROOT
HETATM    1  C   UNL     1      -3.001   0.237 -31.205  1.00  0.00     0.073 C 
HETATM    2  C   UNL     1      -3.989   1.131 -31.860  1.00  0.00     0.065 A 
HETATM    3  N   UNL     1      -3.953   2.449 -31.630  1.00  0.00    -0.177 NA
HETATM    4  N   UNL     1      -4.959   2.936 -32.375  1.00  0.00    -0.262 N 
HETATM    5  H   UNL     1      -5.132   3.937 -32.395  1.00  0.00     0.191 HD
HETATM    6  C   UNL     1      -5.671   1.972 -33.044  1.00  0.00     0.137 A 
HETATM    7  C   UNL     1      -5.038   0.779 -32.757  1.00  0.00     0.046 A 
ENDROOT
BRANCH   6   8
HETATM    8  N   UNL     1      -6.778   2.239 -33.830  1.00  0.00    -0.311 N 
HETATM    9  C   UNL     1      -7.915   2.847 -33.320  1.00  0.00     0.227 C 
HETATM   10  O   UNL     1      -8.027   3.240 -32.159  1.00  0.00    -0.273 OA
HETATM   11  H   UNL     1      -6.724   2.023 -34.818  1.00  0.00     0.170 HD
BRANCH   9  12
HETATM   12  C   UNL     1      -9.058   2.923 -34.312  1.00  0.00     0.141 C 
BRANCH  12  13
HETATM   13  C   UNL     1     -10.277   2.063 -34.051  1.00  0.00    -0.047 A 
HETATM   14  C   UNL     1     -11.564   2.355 -34.535  1.00  0.00     0.044 A 
HETATM   15  C   UNL     1     -12.622   1.460 -34.348  1.00  0.00     0.068 A 
HETATM   16  C   UNL     1     -12.406   0.276 -33.642  1.00  0.00     0.037 A 
HETATM   17  C   UNL     1     -11.141  -0.028 -33.146  1.00  0.00     0.003 A 
HETATM   18  C   UNL     1     -10.083   0.854 -33.359  1.00  0.00     0.007 A 
BRANCH  15  19
HETATM   19  O   UNL     1     -13.903   1.627 -34.800  1.00  0.00    -0.356 OA
HETATM   20  C   UNL     1     -14.879   0.706 -34.329  1.00  0.00     0.210 C 
ENDBRANCH  15  19
ENDBRANCH  12  13
ENDBRANCH   9  12
ENDBRANCH   6   8
BRANCH   7  21
HETATM   21  C   UNL     1      -5.377  -0.499 -33.350  1.00  0.00    -0.020 A 
HETATM   22  C   UNL     1      -4.352  -1.357 -33.771  1.00  0.00     0.014 A 
HETATM   23  C   UNL     1      -4.658  -2.580 -34.372  1.00  0.00     0.020 A 
HETATM   24  C   UNL     1      -5.989  -2.944 -34.553  1.00  0.00     0.011 A 
HETATM   25 BR   UNL     1      -6.404  -4.594 -35.378  1.00  0.00    -0.051 Br
HETATM   26  C   UNL     1      -7.018  -2.103 -34.133  1.00  0.00     0.020 A 
HETATM   27  C   UNL     1      -6.713  -0.881 -33.526  1.00  0.00     0.014 A 
ENDBRANCH   7  21
TORSDOF 5
ENDMDL
MODEL 4
REMARK VINA RESULT:      -7.6      3.282      5.076
REMARK  5 active torsions:
REMARK  status: ('A' for Active; 'I' for Inactive)
REMARK    1  A    between atoms: C_6  and  N_7 
REMARK       I    between atoms: N_7  and  C_8 
REMARK    2  A    between atoms: C_8  and  C_9 
REMARK    3  A    between atoms: C_9  and  C_10 
REMARK    4  A    between atoms: C_12  and  O_13 
REMARK    5  A    between atoms: C_19  and  C_20 
ROOT
HETATM    1  C   UNL     1      -9.930   0.619 -32.824  1.00  0.00     0.073 C 
HETATM    2  C   UNL     1      -8.971   1.692 -33.190  1.00  0.00     0.065 A 
HETATM    3  N   UNL     1      -9.349   2.975 -33.128  1.00  0.00    -0.177 NA
HETATM    4  N   UNL     1      -8.254   3.654 -33.509  1.00  0.00    -0.262 N 
HETATM    5  H   UNL     1      -8.271   4.670 -33.524  1.00  0.00     0.191 HD
HETATM    6  C   UNL     1      -7.195   2.851 -33.855  1.00  0.00     0.137 A 
HETATM    7  C   UNL     1      -7.621   1.558 -33.623  1.00  0.00     0.046 A 
ENDROOT
BRANCH   6   8
HETATM    8  N   UNL     1      -5.986   3.332 -34.324  1.00  0.00    -0.311 N 
HETATM    9  C   UNL     1      -5.417   4.498 -33.837  1.00  0.00     0.227 C 
HETATM   10  O   UNL     1      -5.900   5.177 -32.930  1.00  0.00    -0.273 OA
HETATM   11  H   UNL     1      -5.486   2.776 -35.009  1.00  0.00     0.170 HD
BRANCH   9  12
HETATM   12  C   UNL     1      -4.163   4.917 -34.578  1.00  0.00     0.141 C 
BRANCH  12  13
HETATM   13  C   UNL     1      -2.989   5.405 -33.757  1.00  0.00    -0.047 A 
HETATM   14  C   UNL     1      -2.378   4.657 -32.735  1.00  0.00     0.044 A 
HETATM   15  C   UNL     1      -1.228   5.125 -32.091  1.00  0.00     0.068 A 
HETATM   16  C   UNL     1      -0.697   6.366 -32.445  1.00  0.00     0.037 A 
HETATM   17  C   UNL     1      -1.291   7.126 -33.449  1.00  0.00     0.003 A 
HETATM   18  C   UNL     1      -2.421   6.644 -34.107  1.00  0.00     0.007 A 
BRANCH  15  19
HETATM   19  O   UNL     1      -0.537   4.470 -31.109  1.00  0.00    -0.356 OA
HETATM   20  C   UNL     1       0.007   5.265 -30.063  1.00  0.00     0.210 C 
ENDBRANCH  15  19
ENDBRANCH  12  13
ENDBRANCH   9  12
ENDBRANCH   6   8
BRANCH   7  21
HETATM   21  C   UNL     1      -6.784   0.381 -33.736  1.00  0.00    -0.020 A 
HETATM   22  C   UNL     1      -7.048  -0.559 -34.741  1.00  0.00     0.014 A 
HETATM   23  C   UNL     1      -6.273  -1.715 -34.848  1.00  0.00     0.020 A 
HETATM   24  C   UNL     1      -5.233  -1.932 -33.948  1.00  0.00     0.011 A 
HETATM   25 BR   UNL     1      -4.190  -3.504 -34.084  1.00  0.00    -0.051 Br
HETATM   26  C   UNL     1      -4.955  -1.002 -32.948  1.00  0.00     0.020 A 
HETATM   27  C   UNL     1      -5.728   0.158 -32.844  1.00  0.00     0.014 A 
ENDBRANCH   7  21
TORSDOF 5
ENDMDL
MODEL 5
REMARK VINA RESULT:      -7.5      3.422      6.872
REMARK  5 active torsions:
REMARK  status: ('A' for Active; 'I' for Inactive)
REMARK    1  A    between atoms: C_6  and  N_7 
REMARK       I    between atoms: N_7  and  C_8 
REMARK    2  A    between atoms: C_8  and  C_9 
REMARK    3  A    between atoms: C_9  and  C_10 
REMARK    4  A    between atoms: C_12  and  O_13 
REMARK    5  A    between atoms: C_19  and  C_20 
ROOT
HETATM    1  C   UNL     1      -5.893   5.166 -28.960  1.00  0.00     0.073 C 
HETATM    2  C   UNL     1      -6.566   4.147 -29.805  1.00  0.00     0.065 A 
HETATM    3  N   UNL     1      -7.711   3.589 -29.394  1.00  0.00    -0.177 NA
HETATM    4  N   UNL     1      -8.033   2.742 -30.387  1.00  0.00    -0.262 N 
HETATM    5  H   UNL     1      -8.892   2.202 -30.328  1.00  0.00     0.191 HD
HETATM    6  C   UNL     1      -7.113   2.703 -31.404  1.00  0.00     0.137 A 
HETATM    7  C   UNL     1      -6.155   3.641 -31.072  1.00  0.00     0.046 A 
ENDROOT
BRANCH   6   8
HETATM    8  N   UNL     1      -7.214   1.869 -32.503  1.00  0.00    -0.311 N 
HETATM    9  C   UNL     1      -7.805   0.617 -32.426  1.00  0.00     0.227 C 
HETATM   10  O   UNL     1      -8.325   0.159 -31.408  1.00  0.00    -0.273 OA
HETATM   11  H   UNL     1      -6.887   2.217 -33.396  1.00  0.00     0.170 HD
BRANCH   9  12
HETATM   12  C   UNL     1      -7.690  -0.186 -33.706  1.00  0.00     0.141 C 
BRANCH  12  13
HETATM   13  C   UNL     1      -6.496  -1.105 -33.857  1.00  0.00    -0.047 A 
HETATM   14  C   UNL     1      -5.367  -1.072 -33.020  1.00  0.00     0.044 A 
HETATM   15  C   UNL     1      -4.349  -2.023 -33.149  1.00  0.00     0.068 A 
HETATM   16  C   UNL     1      -4.439  -2.997 -34.143  1.00  0.00     0.037 A 
HETATM   17  C   UNL     1      -5.544  -3.042 -34.989  1.00  0.00     0.003 A 
HETATM   18  C   UNL     1      -6.570  -2.110 -34.839  1.00  0.00     0.007 A 
BRANCH  15  19
HETATM   19  O   UNL     1      -3.225  -2.104 -32.373  1.00  0.00    -0.356 OA
HETATM   20  C   UNL     1      -2.709  -0.883 -31.857  1.00  0.00     0.210 C 
ENDBRANCH  15  19
ENDBRANCH  12  13
ENDBRANCH   9  12
ENDBRANCH   6   8
BRANCH   7  21
HETATM   21  C   UNL     1      -5.048   4.028 -31.922  1.00  0.00    -0.020 A 
HETATM   22  C   UNL     1      -5.205   5.097 -32.815  1.00  0.00     0.014 A 
HETATM   23  C   UNL     1      -4.161   5.466 -33.665  1.00  0.00     0.020 A 
HETATM   24  C   UNL     1      -2.958   4.765 -33.623  1.00  0.00     0.011 A 
HETATM   25 BR   UNL     1      -1.548   5.257 -34.782  1.00  0.00    -0.051 Br
HETATM   26  C   UNL     1      -2.786   3.705 -32.735  1.00  0.00     0.020 A 
HETATM   27  C   UNL     1      -3.830   3.338 -31.880  1.00  0.00     0.014 A 
ENDBRANCH   7  21
TORSDOF 5
ENDMDL
MODEL 6
REMARK VINA RESULT:      -7.4      1.885      2.737
REMARK  5 active torsions:
REMARK  status: ('A' for Active; 'I' for Inactive)
REMARK    1  A    between atoms: C_6  and  N_7 
REMARK       I    between atoms: N_7  and  C_8 
REMARK    2  A    between atoms: C_8  and  C_9 
REMARK    3  A    between atoms: C_9  and  C_10 
REMARK    4  A    between atoms: C_12  and  O_13 
REMARK    5  A    between atoms: C_19  and  C_20 
ROOT
HETATM    1  C   UNL     1      -6.612  -3.005 -34.494  1.00  0.00     0.073 C 
HETATM    2  C   UNL     1      -5.768  -1.883 -34.012  1.00  0.00     0.065 A 
HETATM    3  N   UNL     1      -4.439  -2.029 -33.943  1.00  0.00    -0.177 NA
HETATM    4  N   UNL     1      -4.007  -0.841 -33.486  1.00  0.00    -0.262 N 
HETATM    5  H   UNL     1      -3.010  -0.681 -33.365  1.00  0.00     0.191 HD
HETATM    6  C   UNL     1      -5.014   0.051 -33.216  1.00  0.00     0.137 A 
HETATM    7  C   UNL     1      -6.182  -0.588 -33.585  1.00  0.00     0.046 A 
ENDROOT
BRANCH   6   8
HETATM    8  N   UNL     1      -4.805   1.314 -32.692  1.00  0.00    -0.311 N 
HETATM    9  C   UNL     1      -3.756   1.589 -31.829  1.00  0.00     0.227 C 
HETATM   10  O   UNL     1      -2.903   0.767 -31.492  1.00  0.00    -0.273 OA
HETATM   11  H   UNL     1      -5.417   2.062 -32.996  1.00  0.00     0.170 HD
BRANCH   9  12
HETATM   12  C   UNL     1      -3.788   2.996 -31.266  1.00  0.00     0.141 C 
BRANCH  12  13
HETATM   13  C   UNL     1      -2.928   4.044 -31.938  1.00  0.00    -0.047 A 
HETATM   14  C   UNL     1      -2.224   5.046 -31.247  1.00  0.00     0.044 A 
HETATM   15  C   UNL     1      -1.361   5.915 -31.923  1.00  0.00     0.068 A 
HETATM   16  C   UNL     1      -1.221   5.808 -33.307  1.00  0.00     0.037 A 
HETATM   17  C   UNL     1      -1.916   4.829 -34.012  1.00  0.00     0.003 A 
HETATM   18  C   UNL     1      -2.754   3.947 -33.331  1.00  0.00     0.007 A 
BRANCH  15  19
HETATM   19  O   UNL     1      -0.606   6.901 -31.350  1.00  0.00    -0.356 OA
HETATM   20  C   UNL     1       0.390   6.494 -30.421  1.00  0.00     0.210 C 
ENDBRANCH  15  19
ENDBRANCH  12  13
ENDBRANCH   9  12
ENDBRANCH   6   8
BRANCH   7  21
HETATM   21  C   UNL     1      -7.494   0.026 -33.588  1.00  0.00    -0.020 A 
HETATM   22  C   UNL     1      -8.243   0.060 -32.405  1.00  0.00     0.014 A 
HETATM   23  C   UNL     1      -9.521   0.620 -32.394  1.00  0.00     0.020 A 
HETATM   24  C   UNL     1     -10.053   1.146 -33.568  1.00  0.00     0.011 A 
HETATM   25 BR   UNL     1     -11.790   1.894 -33.558  1.00  0.00    -0.051 Br
HETATM   26  C   UNL     1      -9.316   1.125 -34.752  1.00  0.00     0.020 A 
HETATM   27  C   UNL     1      -8.034   0.569 -34.761  1.00  0.00     0.014 A 
ENDBRANCH   7  21
TORSDOF 5
ENDMDL
MODEL 7
REMARK VINA RESULT:      -7.4      3.110      4.700
REMARK  5 active torsions:
REMARK  status: ('A' for Active; 'I' for Inactive)
REMARK    1  A    between atoms: C_6  and  N_7 
REMARK       I    between atoms: N_7  and  C_8 
REMARK    2  A    between atoms: C_8  and  C_9 
REMARK    3  A    between atoms: C_9  and  C_10 
REMARK    4  A    between atoms: C_12  and  O_13 
REMARK    5  A    between atoms: C_19  and  C_20 
ROOT
HETATM    1  C   UNL     1     -10.010   1.801 -33.025  1.00  0.00     0.073 C 
HETATM    2  C   UNL     1      -8.717   2.469 -32.726  1.00  0.00     0.065 A 
HETATM    3  N   UNL     1      -8.708   3.690 -32.178  1.00  0.00    -0.177 NA
HETATM    4  N   UNL     1      -7.401   3.973 -32.041  1.00  0.00    -0.262 N 
HETATM    5  H   UNL     1      -7.118   4.853 -31.617  1.00  0.00     0.191 HD
HETATM    6  C   UNL     1      -6.567   2.994 -32.521  1.00  0.00     0.137 A 
HETATM    7  C   UNL     1      -7.399   1.976 -32.945  1.00  0.00     0.046 A 
ENDROOT
BRANCH   6   8
HETATM    8  N   UNL     1      -5.188   3.093 -32.529  1.00  0.00    -0.311 N 
HETATM    9  C   UNL     1      -4.472   3.509 -31.417  1.00  0.00     0.227 C 
HETATM   10  O   UNL     1      -4.980   3.779 -30.329  1.00  0.00    -0.273 OA
HETATM   11  H   UNL     1      -4.695   2.801 -33.365  1.00  0.00     0.170 HD
BRANCH   9  12
HETATM   12  C   UNL     1      -2.989   3.677 -31.680  1.00  0.00     0.141 C 
BRANCH  12  13
HETATM   13  C   UNL     1      -2.553   4.845 -32.540  1.00  0.00    -0.047 A 
HETATM   14  C   UNL     1      -2.541   6.182 -32.104  1.00  0.00     0.044 A 
HETATM   15  C   UNL     1      -2.022   7.197 -32.914  1.00  0.00     0.068 A 
HETATM   16  C   UNL     1      -1.541   6.885 -34.186  1.00  0.00     0.037 A 
HETATM   17  C   UNL     1      -1.552   5.569 -34.641  1.00  0.00     0.003 A 
HETATM   18  C   UNL     1      -2.045   4.556 -33.819  1.00  0.00     0.007 A 
BRANCH  15  19
HETATM   19  O   UNL     1      -1.932   8.521 -32.581  1.00  0.00    -0.356 OA
HETATM   20  C   UNL     1      -2.387   8.892 -31.285  1.00  0.00     0.210 C 
ENDBRANCH  15  19
ENDBRANCH  12  13
ENDBRANCH   9  12
ENDBRANCH   6   8
BRANCH   7  21
HETATM   21  C   UNL     1      -6.947   0.684 -33.418  1.00  0.00    -0.020 A 
HETATM   22  C   UNL     1      -7.252   0.282 -34.725  1.00  0.00     0.014 A 
HETATM   23  C   UNL     1      -6.852  -0.972 -35.190  1.00  0.00     0.020 A 
HETATM   24  C   UNL     1      -6.147  -1.827 -34.346  1.00  0.00     0.011 A 
HETATM   25 BR   UNL     1      -5.615  -3.530 -34.970  1.00  0.00    -0.051 Br
HETATM   26  C   UNL     1      -5.831  -1.437 -33.046  1.00  0.00     0.020 A 
HETATM   27  C   UNL     1      -6.227  -0.179 -32.582  1.00  0.00     0.014 A 
ENDBRANCH   7  21
TORSDOF 5
ENDMDL
MODEL 8
REMARK VINA RESULT:      -7.3      1.970      2.690
REMARK  5 active torsions:
REMARK  status: ('A' for Active; 'I' for Inactive)
REMARK    1  A    between atoms: C_6  and  N_7 
REMARK       I    between atoms: N_7  and  C_8 
REMARK    2  A    between atoms: C_8  and  C_9 
REMARK    3  A    between atoms: C_9  and  C_10 
REMARK    4  A    between atoms: C_12  and  O_13 
REMARK    5  A    between atoms: C_19  and  C_20 
ROOT
HETATM    1  C   UNL     1      -6.756  -3.627 -34.893  1.00  0.00     0.073 C 
HETATM    2  C   UNL     1      -5.754  -2.651 -34.395  1.00  0.00     0.065 A 
HETATM    3  N   UNL     1      -4.454  -2.968 -34.397  1.00  0.00    -0.177 NA
HETATM    4  N   UNL     1      -3.853  -1.873 -33.901  1.00  0.00    -0.262 N 
HETATM    5  H   UNL     1      -2.840  -1.848 -33.821  1.00  0.00     0.191 HD
HETATM    6  C   UNL     1      -4.724  -0.876 -33.540  1.00  0.00     0.137 A 
HETATM    7  C   UNL     1      -5.979  -1.340 -33.885  1.00  0.00     0.046 A 
ENDROOT
BRANCH   6   8
HETATM    8  N   UNL     1      -4.332   0.318 -32.963  1.00  0.00    -0.311 N 
HETATM    9  C   UNL     1      -3.536   0.363 -31.829  1.00  0.00     0.227 C 
HETATM   10  O   UNL     1      -3.074  -0.632 -31.269  1.00  0.00    -0.273 OA
HETATM   11  H   UNL     1      -4.602   1.180 -33.423  1.00  0.00     0.170 HD
BRANCH   9  12
HETATM   12  C   UNL     1      -3.336   1.762 -31.284  1.00  0.00     0.141 C 
BRANCH  12  13
HETATM   13  C   UNL     1      -4.544   2.672 -31.218  1.00  0.00    -0.047 A 
HETATM   14  C   UNL     1      -5.722   2.368 -30.513  1.00  0.00     0.044 A 
HETATM   15  C   UNL     1      -6.757   3.302 -30.405  1.00  0.00     0.068 A 
HETATM   16  C   UNL     1      -6.634   4.542 -31.033  1.00  0.00     0.037 A 
HETATM   17  C   UNL     1      -5.480   4.861 -31.744  1.00  0.00     0.003 A 
HETATM   18  C   UNL     1      -4.439   3.937 -31.826  1.00  0.00     0.007 A 
BRANCH  15  19
HETATM   19  O   UNL     1      -7.928   3.125 -29.721  1.00  0.00    -0.356 OA
HETATM   20  C   UNL     1      -9.132   3.444 -30.408  1.00  0.00     0.210 C 
ENDBRANCH  15  19
ENDBRANCH  12  13
ENDBRANCH   9  12
ENDBRANCH   6   8
BRANCH   7  21
HETATM   21  C   UNL     1      -7.199  -0.565 -33.794  1.00  0.00    -0.020 A 
HETATM   22  C   UNL     1      -7.746  -0.001 -34.955  1.00  0.00     0.014 A 
HETATM   23  C   UNL     1      -8.904   0.775 -34.885  1.00  0.00     0.020 A 
HETATM   24  C   UNL     1      -9.517   0.988 -33.653  1.00  0.00     0.011 A 
HETATM   25 BR   UNL     1     -11.079   2.049 -33.555  1.00  0.00    -0.051 Br
HETATM   26  C   UNL     1      -8.988   0.428 -32.491  1.00  0.00     0.020 A 
HETATM   27  C   UNL     1      -7.830  -0.353 -32.562  1.00  0.00     0.014 A 
ENDBRANCH   7  21
TORSDOF 5
ENDMDL
MODEL 9
REMARK VINA RESULT:      -7.3      3.023      6.210
REMARK  5 active torsions:
REMARK  status: ('A' for Active; 'I' for Inactive)
REMARK    1  A    between atoms: C_6  and  N_7 
REMARK       I    between atoms: N_7  and  C_8 
REMARK    2  A    between atoms: C_8  and  C_9 
REMARK    3  A    between atoms: C_9  and  C_10 
REMARK    4  A    between atoms: C_12  and  O_13 
REMARK    5  A    between atoms: C_19  and  C_20 
ROOT
HETATM    1  C   UNL     1      -8.025   5.824 -29.773  1.00  0.00     0.073 C 
HETATM    2  C   UNL     1      -6.984   4.765 -29.799  1.00  0.00     0.065 A 
HETATM    3  N   UNL     1      -5.920   4.855 -28.991  1.00  0.00    -0.177 NA
HETATM    4  N   UNL     1      -5.210   3.748 -29.267  1.00  0.00    -0.262 N 
HETATM    5  H   UNL     1      -4.349   3.563 -28.759  1.00  0.00     0.191 HD
HETATM    6  C   UNL     1      -5.757   2.969 -30.256  1.00  0.00     0.137 A 
HETATM    7  C   UNL     1      -6.942   3.589 -30.601  1.00  0.00     0.046 A 
ENDROOT
BRANCH   6   8
HETATM    8  N   UNL     1      -5.173   1.811 -30.736  1.00  0.00    -0.311 N 
HETATM    9  C   UNL     1      -4.523   1.766 -31.960  1.00  0.00     0.227 C 
HETATM   10  O   UNL     1      -4.368   2.740 -32.697  1.00  0.00    -0.273 OA
HETATM   11  H   UNL     1      -5.184   0.990 -30.142  1.00  0.00     0.170 HD
BRANCH   9  12
HETATM   12  C   UNL     1      -4.075   0.374 -32.356  1.00  0.00     0.141 C 
BRANCH  12  13
HETATM   13  C   UNL     1      -5.017  -0.457 -33.202  1.00  0.00    -0.047 A 
HETATM   14  C   UNL     1      -4.653  -1.656 -33.839  1.00  0.00     0.044 A 
HETATM   15  C   UNL     1      -5.604  -2.428 -34.514  1.00  0.00     0.068 A 
HETATM   16  C   UNL     1      -6.925  -1.986 -34.586  1.00  0.00     0.037 A 
HETATM   17  C   UNL     1      -7.305  -0.797 -33.970  1.00  0.00     0.003 A 
HETATM   18  C   UNL     1      -6.360  -0.044 -33.274  1.00  0.00     0.007 A 
BRANCH  15  19
HETATM   19  O   UNL     1      -5.369  -3.622 -35.140  1.00  0.00    -0.356 OA
HETATM   20  C   UNL     1      -6.473  -4.507 -35.278  1.00  0.00     0.210 C 
ENDBRANCH  15  19
ENDBRANCH  12  13
ENDBRANCH   9  12
ENDBRANCH   6   8
BRANCH   7  21
HETATM   21  C   UNL     1      -7.917   3.050 -31.527  1.00  0.00    -0.020 A 
HETATM   22  C   UNL     1      -8.041   3.613 -32.804  1.00  0.00     0.014 A 
HETATM   23  C   UNL     1      -8.995   3.128 -33.700  1.00  0.00     0.020 A 
HETATM   24  C   UNL     1      -9.827   2.078 -33.319  1.00  0.00     0.011 A 
HETATM   25 BR   UNL     1     -11.128   1.428 -34.528  1.00  0.00    -0.051 Br
HETATM   26  C   UNL     1      -9.709   1.504 -32.055  1.00  0.00     0.020 A 
HETATM   27  C   UNL     1      -8.750   1.986 -31.159  1.00  0.00     0.014 A 
ENDBRANCH   7  21
TORSDOF 5
ENDMDL
MODEL 10
REMARK VINA RESULT:      -7.0      3.707      6.800
REMARK  5 active torsions:
REMARK  status: ('A' for Active; 'I' for Inactive)
REMARK    1  A    between atoms: C_6  and  N_7 
REMARK       I    between atoms: N_7  and  C_8 
REMARK    2  A    between atoms: C_8  and  C_9 
REMARK    3  A    between atoms: C_9  and  C_10 
REMARK    4  A    between atoms: C_12  and  O_13 
REMARK    5  A    between atoms: C_19  and  C_20 
ROOT
HETATM    1  C   UNL     1     -10.333   6.098 -35.237  1.00  0.00     0.073 C 
HETATM    2  C   UNL     1      -9.442   5.151 -34.520  1.00  0.00     0.065 A 
HETATM    3  N   UNL     1      -8.179   5.501 -34.245  1.00  0.00    -0.177 NA
HETATM    4  N   UNL     1      -7.682   4.434 -33.597  1.00  0.00    -0.262 N 
HETATM    5  H   UNL     1      -6.726   4.455 -33.252  1.00  0.00     0.191 HD
HETATM    6  C   UNL     1      -8.567   3.391 -33.482  1.00  0.00     0.137 A 
HETATM    7  C   UNL     1      -9.744   3.843 -34.046  1.00  0.00     0.046 A 
ENDROOT
BRANCH   6   8
HETATM    8  N   UNL     1      -8.255   2.177 -32.897  1.00  0.00    -0.311 N 
HETATM    9  C   UNL     1      -7.347   1.297 -33.464  1.00  0.00     0.227 C 
HETATM   10  O   UNL     1      -6.711   1.527 -34.494  1.00  0.00    -0.273 OA
HETATM   11  H   UNL     1      -8.674   1.959 -32.001  1.00  0.00     0.170 HD
BRANCH   9  12
HETATM   12  C   UNL     1      -7.253  -0.029 -32.737  1.00  0.00     0.141 C 
BRANCH  12  13
HETATM   13  C   UNL     1      -6.539  -1.167 -33.435  1.00  0.00    -0.047 A 
HETATM   14  C   UNL     1      -5.257  -1.625 -33.086  1.00  0.00     0.044 A 
HETATM   15  C   UNL     1      -4.703  -2.752 -33.702  1.00  0.00     0.068 A 
HETATM   16  C   UNL     1      -5.419  -3.412 -34.700  1.00  0.00     0.037 A 
HETATM   17  C   UNL     1      -6.687  -2.971 -35.068  1.00  0.00     0.003 A 
HETATM   18  C   UNL     1      -7.247  -1.863 -34.433  1.00  0.00     0.007 A 
BRANCH  15  19
HETATM   19  O   UNL     1      -3.482  -3.300 -33.419  1.00  0.00    -0.356 OA
HETATM   20  C   UNL     1      -3.356  -4.709 -33.573  1.00  0.00     0.210 C 
ENDBRANCH  15  19
ENDBRANCH  12  13
ENDBRANCH   9  12
ENDBRANCH   6   8
BRANCH   7  21
HETATM   21  C   UNL     1     -10.996   3.114 -34.038  1.00  0.00    -0.020 A 
HETATM   22  C   UNL     1     -11.241   2.153 -35.029  1.00  0.00     0.014 A 
HETATM   23  C   UNL     1     -12.453   1.462 -35.057  1.00  0.00     0.020 A 
HETATM   24  C   UNL     1     -13.423   1.731 -34.094  1.00  0.00     0.011 A 
HETATM   25 BR   UNL     1     -15.070   0.804 -34.138  1.00  0.00    -0.051 Br
HETATM   26  C   UNL     1     -13.189   2.679 -33.098  1.00  0.00     0.020 A 
HETATM   27  C   UNL     1     -11.973   3.368 -33.067  1.00  0.00     0.014 A 
ENDBRANCH   7  21
TORSDOF 5
ENDMDL
