MODEL 1
REMARK VINA RESULT:      -8.3      0.000      0.000
REMARK  6 active torsions:
REMARK  status: ('A' for Active; 'I' for Inactive)
REMARK    1  A    between atoms: C_8  and  N_9 
REMARK       I    between atoms: N_9  and  C_10 
REMARK    2  A    between atoms: C_10  and  C_11 
REMARK    3  A    between atoms: C_11  and  N_12 
REMARK    4  A    between atoms: N_12  and  C_15 
REMARK    5  A    between atoms: C_15  and  C_16 
REMARK    6  A    between atoms: C_16  and  C_17 
ROOT
HETATM    1  N   UNL     1      -4.897   2.021 -31.410  1.00  0.00    -0.062 N 
HETATM    2  H   UNL     1      -5.169   1.468 -30.585  1.00  0.00     0.278 HD
HETATM    3  H   UNL     1      -5.396   2.920 -31.323  1.00  0.00     0.278 HD
ENDROOT
BRANCH   1   4
HETATM    4  C   UNL     1      -3.442   2.418 -31.335  1.00  0.00     0.335 C 
BRANCH   4   5
HETATM    5  C   UNL     1      -3.246   3.908 -31.614  1.00  0.00     0.248 C 
HETATM    6  N   UNL     1      -2.287   4.181 -32.562  1.00  0.00    -0.322 N 
HETATM    7  H   UNL     1      -1.713   3.427 -32.922  1.00  0.00     0.169 HD
HETATM    8  O   UNL     1      -3.962   4.705 -31.013  1.00  0.00    -0.271 OA
BRANCH   6   9
HETATM    9  C   UNL     1      -1.974   5.425 -33.092  1.00  0.00     0.085 A 
HETATM   10  C   UNL     1      -2.592   5.890 -34.241  1.00  0.00     0.052 A 
HETATM   11  C   UNL     1      -3.616   5.313 -35.143  1.00  0.00     0.072 C 
HETATM   12  N   UNL     1      -2.064   7.130 -34.475  1.00  0.00    -0.280 N 
HETATM   13  H   UNL     1      -2.274   7.773 -35.233  1.00  0.00     0.189 HD
HETATM   14  N   UNL     1      -1.169   7.508 -33.563  1.00  0.00    -0.177 NA
HETATM   15  C   UNL     1      -1.090   6.478 -32.710  1.00  0.00     0.079 A 
HETATM   16  C   UNL     1      -0.153   6.608 -31.567  1.00  0.00     0.075 C 
ENDBRANCH   6   9
ENDBRANCH   4   5
ENDBRANCH   1   4
BRANCH   1  17
HETATM   17  C   UNL     1      -5.425   1.360 -32.683  1.00  0.00     0.194 C 
HETATM   18  C   UNL     1      -6.040   2.501 -33.508  1.00  0.00     0.041 C 
BRANCH  17  19
HETATM   19  C   UNL     1      -6.388   0.132 -32.397  1.00  0.00     0.007 C 
HETATM   20  C   UNL     1      -6.327  -0.276 -30.898  1.00  0.00     0.022 C 
HETATM   21  C   UNL     1      -7.862   0.596 -32.578  1.00  0.00     0.022 C 
BRANCH  19  22
HETATM   22  C   UNL     1      -6.037  -1.078 -33.288  1.00  0.00    -0.048 A 
HETATM   23  C   UNL     1      -7.045  -1.797 -33.960  1.00  0.00     0.008 A 
HETATM   24  C   UNL     1      -6.748  -2.919 -34.739  1.00  0.00     0.001 A 
HETATM   25  C   UNL     1      -5.437  -3.355 -34.866  1.00  0.00     0.000 A 
HETATM   26  C   UNL     1      -4.420  -2.662 -34.221  1.00  0.00     0.001 A 
HETATM   27  C   UNL     1      -4.714  -1.536 -33.445  1.00  0.00     0.008 A 
ENDBRANCH  19  22
ENDBRANCH  17  19
ENDBRANCH   1  17
TORSDOF 6
ENDMDL
MODEL 2
REMARK VINA RESULT:      -8.3      4.746      7.421
REMARK  6 active torsions:
REMARK  status: ('A' for Active; 'I' for Inactive)
REMARK    1  A    between atoms: C_8  and  N_9 
REMARK       I    between atoms: N_9  and  C_10 
REMARK    2  A    between atoms: C_10  and  C_11 
REMARK    3  A    between atoms: C_11  and  N_12 
REMARK    4  A    between atoms: N_12  and  C_15 
REMARK    5  A    between atoms: C_15  and  C_16 
REMARK    6  A    between atoms: C_16  and  C_17 
ROOT
HETATM    1  N   UNL     1      -7.359   0.991 -32.009  1.00  0.00    -0.062 N 
HETATM    2  H   UNL     1      -7.323   1.495 -32.907  1.00  0.00     0.278 HD
HETATM    3  H   UNL     1      -6.915   1.615 -31.318  1.00  0.00     0.278 HD
ENDROOT
BRANCH   1   4
HETATM    4  C   UNL     1      -8.782   0.875 -31.516  1.00  0.00     0.335 C 
BRANCH   4   5
HETATM    5  C   UNL     1      -9.765   0.666 -32.669  1.00  0.00     0.248 C 
HETATM    6  N   UNL     1     -10.675   1.686 -32.822  1.00  0.00    -0.322 N 
HETATM    7  H   UNL     1     -10.716   2.426 -32.131  1.00  0.00     0.169 HD
HETATM    8  O   UNL     1      -9.639  -0.344 -33.356  1.00  0.00    -0.271 OA
BRANCH   6   9
HETATM    9  C   UNL     1     -11.609   1.819 -33.842  1.00  0.00     0.085 A 
HETATM   10  C   UNL     1     -11.509   2.838 -34.774  1.00  0.00     0.052 A 
HETATM   11  C   UNL     1     -10.543   3.946 -34.963  1.00  0.00     0.072 C 
HETATM   12  N   UNL     1     -12.568   2.672 -35.625  1.00  0.00    -0.280 N 
HETATM   13  H   UNL     1     -12.824   3.234 -36.431  1.00  0.00     0.189 HD
HETATM   14  N   UNL     1     -13.331   1.621 -35.325  1.00  0.00    -0.177 NA
HETATM   15  C   UNL     1     -12.769   1.088 -34.233  1.00  0.00     0.079 A 
HETATM   16  C   UNL     1     -13.412  -0.118 -33.655  1.00  0.00     0.075 C 
ENDBRANCH   6   9
ENDBRANCH   4   5
ENDBRANCH   1   4
BRANCH   1  17
HETATM   17  C   UNL     1      -6.489  -0.264 -32.076  1.00  0.00     0.194 C 
HETATM   18  C   UNL     1      -5.582  -0.195 -30.838  1.00  0.00     0.041 C 
BRANCH  17  19
HETATM   19  C   UNL     1      -5.736  -0.429 -33.463  1.00  0.00     0.007 C 
HETATM   20  C   UNL     1      -6.389   0.466 -34.554  1.00  0.00     0.022 C 
HETATM   21  C   UNL     1      -4.303   0.164 -33.331  1.00  0.00     0.022 C 
BRANCH  19  22
HETATM   22  C   UNL     1      -5.724  -1.902 -33.925  1.00  0.00    -0.048 A 
HETATM   23  C   UNL     1      -4.532  -2.652 -33.913  1.00  0.00     0.008 A 
HETATM   24  C   UNL     1      -4.496  -3.975 -34.366  1.00  0.00     0.001 A 
HETATM   25  C   UNL     1      -5.649  -4.582 -34.844  1.00  0.00     0.000 A 
HETATM   26  C   UNL     1      -6.841  -3.868 -34.862  1.00  0.00     0.001 A 
HETATM   27  C   UNL     1      -6.880  -2.547 -34.405  1.00  0.00     0.008 A 
ENDBRANCH  19  22
ENDBRANCH  17  19
ENDBRANCH   1  17
TORSDOF 6
ENDMDL
MODEL 3
REMARK VINA RESULT:      -7.9      4.588      7.335
REMARK  6 active torsions:
REMARK  status: ('A' for Active; 'I' for Inactive)
REMARK    1  A    between atoms: C_8  and  N_9 
REMARK       I    between atoms: N_9  and  C_10 
REMARK    2  A    between atoms: C_10  and  C_11 
REMARK    3  A    between atoms: C_11  and  N_12 
REMARK    4  A    between atoms: N_12  and  C_15 
REMARK    5  A    between atoms: C_15  and  C_16 
REMARK    6  A    between atoms: C_16  and  C_17 
ROOT
HETATM    1  N   UNL     1      -7.703   0.921 -31.562  1.00  0.00    -0.062 N 
HETATM    2  H   UNL     1      -7.540   1.626 -32.296  1.00  0.00     0.278 HD
HETATM    3  H   UNL     1      -7.797   1.449 -30.681  1.00  0.00     0.278 HD
ENDROOT
BRANCH   1   4
HETATM    4  C   UNL     1      -9.056   0.273 -31.732  1.00  0.00     0.335 C 
BRANCH   4   5
HETATM    5  C   UNL     1      -9.774   0.781 -32.983  1.00  0.00     0.248 C 
HETATM    6  N   UNL     1     -10.999   1.353 -32.733  1.00  0.00    -0.322 N 
HETATM    7  H   UNL     1     -11.391   1.308 -31.799  1.00  0.00     0.169 HD
HETATM    8  O   UNL     1      -9.198   0.669 -34.062  1.00  0.00    -0.271 OA
BRANCH   6   9
HETATM    9  C   UNL     1     -11.820   1.993 -33.653  1.00  0.00     0.085 A 
HETATM   10  C   UNL     1     -13.031   1.441 -34.037  1.00  0.00     0.052 A 
HETATM   11  C   UNL     1     -13.737   0.192 -33.666  1.00  0.00     0.072 C 
HETATM   12  N   UNL     1     -13.577   2.320 -34.932  1.00  0.00    -0.280 N 
HETATM   13  H   UNL     1     -14.459   2.248 -35.430  1.00  0.00     0.189 HD
HETATM   14  N   UNL     1     -12.824   3.399 -35.144  1.00  0.00    -0.177 NA
HETATM   15  C   UNL     1     -11.739   3.218 -34.379  1.00  0.00     0.079 A 
HETATM   16  C   UNL     1     -10.700   4.276 -34.407  1.00  0.00     0.075 C 
ENDBRANCH   6   9
ENDBRANCH   4   5
ENDBRANCH   1   4
BRANCH   1  17
HETATM   17  C   UNL     1      -6.467   0.036 -31.401  1.00  0.00     0.194 C 
HETATM   18  C   UNL     1      -5.833   0.463 -30.068  1.00  0.00     0.041 C 
BRANCH  17  19
HETATM   19  C   UNL     1      -5.501   0.076 -32.658  1.00  0.00     0.007 C 
HETATM   20  C   UNL     1      -5.846   1.281 -33.579  1.00  0.00     0.022 C 
HETATM   21  C   UNL     1      -4.059   0.403 -32.173  1.00  0.00     0.022 C 
BRANCH  19  22
HETATM   22  C   UNL     1      -5.568  -1.240 -33.462  1.00  0.00    -0.048 A 
HETATM   23  C   UNL     1      -4.394  -1.944 -33.795  1.00  0.00     0.008 A 
HETATM   24  C   UNL     1      -4.435  -3.116 -34.556  1.00  0.00     0.001 A 
HETATM   25  C   UNL     1      -5.649  -3.614 -35.008  1.00  0.00     0.000 A 
HETATM   26  C   UNL     1      -6.824  -2.945 -34.691  1.00  0.00     0.001 A 
HETATM   27  C   UNL     1      -6.786  -1.775 -33.925  1.00  0.00     0.008 A 
ENDBRANCH  19  22
ENDBRANCH  17  19
ENDBRANCH   1  17
TORSDOF 6
ENDMDL
MODEL 4
REMARK VINA RESULT:      -7.8      0.649      1.790
REMARK  6 active torsions:
REMARK  status: ('A' for Active; 'I' for Inactive)
REMARK    1  A    between atoms: C_8  and  N_9 
REMARK       I    between atoms: N_9  and  C_10 
REMARK    2  A    between atoms: C_10  and  C_11 
REMARK    3  A    between atoms: C_11  and  N_12 
REMARK    4  A    between atoms: N_12  and  C_15 
REMARK    5  A    between atoms: C_15  and  C_16 
REMARK    6  A    between atoms: C_16  and  C_17 
ROOT
HETATM    1  N   UNL     1      -5.841   2.447 -31.471  1.00  0.00    -0.062 N 
HETATM    2  H   UNL     1      -6.549   2.173 -30.774  1.00  0.00     0.278 HD
HETATM    3  H   UNL     1      -6.168   3.344 -31.865  1.00  0.00     0.278 HD
ENDROOT
BRANCH   1   4
HETATM    4  C   UNL     1      -4.539   2.812 -30.798  1.00  0.00     0.335 C 
BRANCH   4   5
HETATM    5  C   UNL     1      -3.981   4.134 -31.325  1.00  0.00     0.248 C 
HETATM    6  N   UNL     1      -2.928   3.990 -32.198  1.00  0.00    -0.322 N 
HETATM    7  H   UNL     1      -2.526   3.071 -32.349  1.00  0.00     0.169 HD
HETATM    8  O   UNL     1      -4.524   5.174 -30.962  1.00  0.00    -0.271 OA
BRANCH   6   9
HETATM    9  C   UNL     1      -2.297   5.000 -32.913  1.00  0.00     0.085 A 
HETATM   10  C   UNL     1      -1.166   5.627 -32.419  1.00  0.00     0.052 A 
HETATM   11  C   UNL     1      -0.383   5.467 -31.170  1.00  0.00     0.072 C 
HETATM   12  N   UNL     1      -0.806   6.549 -33.363  1.00  0.00    -0.280 N 
HETATM   13  H   UNL     1      -0.026   7.200 -33.345  1.00  0.00     0.189 HD
HETATM   14  N   UNL     1      -1.603   6.556 -34.431  1.00  0.00    -0.177 NA
HETATM   15  C   UNL     1      -2.529   5.622 -34.175  1.00  0.00     0.079 A 
HETATM   16  C   UNL     1      -3.575   5.398 -35.204  1.00  0.00     0.075 C 
ENDBRANCH   6   9
ENDBRANCH   4   5
ENDBRANCH   1   4
BRANCH   1  17
HETATM   17  C   UNL     1      -5.829   1.449 -32.628  1.00  0.00     0.194 C 
HETATM   18  C   UNL     1      -6.331   2.237 -33.848  1.00  0.00     0.041 C 
BRANCH  17  19
HETATM   19  C   UNL     1      -6.620   0.112 -32.309  1.00  0.00     0.007 C 
HETATM   20  C   UNL     1      -6.444  -0.288 -30.816  1.00  0.00     0.022 C 
HETATM   21  C   UNL     1      -8.147   0.391 -32.422  1.00  0.00     0.022 C 
BRANCH  19  22
HETATM   22  C   UNL     1      -6.162  -1.045 -33.223  1.00  0.00    -0.048 A 
HETATM   23  C   UNL     1      -7.098  -1.794 -33.962  1.00  0.00     0.008 A 
HETATM   24  C   UNL     1      -6.704  -2.870 -34.764  1.00  0.00     0.001 A 
HETATM   25  C   UNL     1      -5.365  -3.227 -34.846  1.00  0.00     0.000 A 
HETATM   26  C   UNL     1      -4.418  -2.502 -34.133  1.00  0.00     0.001 A 
HETATM   27  C   UNL     1      -4.810  -1.423 -33.334  1.00  0.00     0.008 A 
ENDBRANCH  19  22
ENDBRANCH  17  19
ENDBRANCH   1  17
TORSDOF 6
ENDMDL
MODEL 5
REMARK VINA RESULT:      -7.7      5.382      7.390
REMARK  6 active torsions:
REMARK  status: ('A' for Active; 'I' for Inactive)
REMARK    1  A    between atoms: C_8  and  N_9 
REMARK       I    between atoms: N_9  and  C_10 
REMARK    2  A    between atoms: C_10  and  C_11 
REMARK    3  A    between atoms: C_11  and  N_12 
REMARK    4  A    between atoms: N_12  and  C_15 
REMARK    5  A    between atoms: C_15  and  C_16 
REMARK    6  A    between atoms: C_16  and  C_17 
ROOT
HETATM    1  N   UNL     1      -8.853  -0.358 -33.077  1.00  0.00    -0.062 N 
HETATM    2  H   UNL     1      -9.402  -1.229 -33.104  1.00  0.00     0.278 HD
HETATM    3  H   UNL     1      -8.818  -0.017 -34.050  1.00  0.00     0.278 HD
ENDROOT
BRANCH   1   4
HETATM    4  C   UNL     1      -9.608   0.729 -32.350  1.00  0.00     0.335 C 
BRANCH   4   5
HETATM    5  C   UNL     1     -10.506   1.525 -33.297  1.00  0.00     0.248 C 
HETATM    6  N   UNL     1     -11.325   2.431 -32.664  1.00  0.00    -0.322 N 
HETATM    7  H   UNL     1     -11.370   2.442 -31.652  1.00  0.00     0.169 HD
HETATM    8  O   UNL     1     -10.397   1.319 -34.503  1.00  0.00    -0.271 OA
BRANCH   6   9
HETATM    9  C   UNL     1     -12.161   3.360 -33.271  1.00  0.00     0.085 A 
HETATM   10  C   UNL     1     -13.511   3.414 -32.968  1.00  0.00     0.052 A 
HETATM   11  C   UNL     1     -14.375   2.627 -32.057  1.00  0.00     0.072 C 
HETATM   12  N   UNL     1     -14.024   4.431 -33.724  1.00  0.00    -0.280 N 
HETATM   13  H   UNL     1     -14.984   4.762 -33.771  1.00  0.00     0.189 HD
HETATM   14  N   UNL     1     -13.113   5.047 -34.477  1.00  0.00    -0.177 NA
HETATM   15  C   UNL     1     -11.965   4.404 -34.223  1.00  0.00     0.079 A 
HETATM   16  C   UNL     1     -10.749   4.874 -34.931  1.00  0.00     0.075 C 
ENDBRANCH   6   9
ENDBRANCH   4   5
ENDBRANCH   1   4
BRANCH   1  17
HETATM   17  C   UNL     1      -7.409  -0.659 -32.677  1.00  0.00     0.194 C 
HETATM   18  C   UNL     1      -7.060   0.381 -31.601  1.00  0.00     0.041 C 
BRANCH  17  19
HETATM   19  C   UNL     1      -6.417  -0.718 -33.914  1.00  0.00     0.007 C 
HETATM   20  C   UNL     1      -7.077  -0.099 -35.178  1.00  0.00     0.022 C 
HETATM   21  C   UNL     1      -5.216   0.233 -33.640  1.00  0.00     0.022 C 
BRANCH  19  22
HETATM   22  C   UNL     1      -5.968  -2.166 -34.207  1.00  0.00    -0.048 A 
HETATM   23  C   UNL     1      -6.880  -3.117 -34.704  1.00  0.00     0.008 A 
HETATM   24  C   UNL     1      -6.500  -4.442 -34.937  1.00  0.00     0.001 A 
HETATM   25  C   UNL     1      -5.199  -4.852 -34.678  1.00  0.00     0.000 A 
HETATM   26  C   UNL     1      -4.276  -3.934 -34.194  1.00  0.00     0.001 A 
HETATM   27  C   UNL     1      -4.653  -2.607 -33.965  1.00  0.00     0.008 A 
ENDBRANCH  19  22
ENDBRANCH  17  19
ENDBRANCH   1  17
TORSDOF 6
ENDMDL
MODEL 6
REMARK VINA RESULT:      -7.7      4.833      7.287
REMARK  6 active torsions:
REMARK  status: ('A' for Active; 'I' for Inactive)
REMARK    1  A    between atoms: C_8  and  N_9 
REMARK       I    between atoms: N_9  and  C_10 
REMARK    2  A    between atoms: C_10  and  C_11 
REMARK    3  A    between atoms: C_11  and  N_12 
REMARK    4  A    between atoms: N_12  and  C_15 
REMARK    5  A    between atoms: C_15  and  C_16 
REMARK    6  A    between atoms: C_16  and  C_17 
ROOT
HETATM    1  N   UNL     1      -8.398   0.849 -32.792  1.00  0.00    -0.062 N 
HETATM    2  H   UNL     1      -9.320   0.437 -32.999  1.00  0.00     0.278 HD
HETATM    3  H   UNL     1      -8.114   1.348 -33.649  1.00  0.00     0.278 HD
ENDROOT
BRANCH   1   4
HETATM    4  C   UNL     1      -8.522   1.951 -31.767  1.00  0.00     0.335 C 
BRANCH   4   5
HETATM    5  C   UNL     1      -9.668   2.907 -32.100  1.00  0.00     0.248 C 
HETATM    6  N   UNL     1     -10.811   2.281 -32.542  1.00  0.00    -0.322 N 
HETATM    7  H   UNL     1     -10.796   1.284 -32.721  1.00  0.00     0.169 HD
HETATM    8  O   UNL     1      -9.487   4.108 -31.919  1.00  0.00    -0.271 OA
BRANCH   6   9
HETATM    9  C   UNL     1     -12.034   2.880 -32.811  1.00  0.00     0.085 A 
HETATM   10  C   UNL     1     -12.656   2.719 -34.038  1.00  0.00     0.052 A 
HETATM   11  C   UNL     1     -12.285   1.985 -35.271  1.00  0.00     0.072 C 
HETATM   12  N   UNL     1     -13.826   3.423 -33.962  1.00  0.00    -0.280 N 
HETATM   13  H   UNL     1     -14.541   3.539 -34.674  1.00  0.00     0.189 HD
HETATM   14  N   UNL     1     -14.016   4.012 -32.781  1.00  0.00    -0.177 NA
HETATM   15  C   UNL     1     -12.929   3.701 -32.062  1.00  0.00     0.079 A 
HETATM   16  C   UNL     1     -12.854   4.227 -30.677  1.00  0.00     0.075 C 
ENDBRANCH   6   9
ENDBRANCH   4   5
ENDBRANCH   1   4
BRANCH   1  17
HETATM   17  C   UNL     1      -7.365  -0.257 -32.577  1.00  0.00     0.194 C 
HETATM   18  C   UNL     1      -6.749   0.026 -31.199  1.00  0.00     0.041 C 
BRANCH  17  19
HETATM   19  C   UNL     1      -6.330  -0.385 -33.772  1.00  0.00     0.007 C 
HETATM   20  C   UNL     1      -6.864   0.335 -35.043  1.00  0.00     0.022 C 
HETATM   21  C   UNL     1      -5.050   0.426 -33.418  1.00  0.00     0.022 C 
BRANCH  19  22
HETATM   22  C   UNL     1      -6.021  -1.863 -34.093  1.00  0.00    -0.048 A 
HETATM   23  C   UNL     1      -4.712  -2.370 -33.970  1.00  0.00     0.008 A 
HETATM   24  C   UNL     1      -4.408  -3.696 -34.295  1.00  0.00     0.001 A 
HETATM   25  C   UNL     1      -5.402  -4.549 -34.753  1.00  0.00     0.000 A 
HETATM   26  C   UNL     1      -6.704  -4.079 -34.878  1.00  0.00     0.001 A 
HETATM   27  C   UNL     1      -7.011  -2.755 -34.549  1.00  0.00     0.008 A 
ENDBRANCH  19  22
ENDBRANCH  17  19
ENDBRANCH   1  17
TORSDOF 6
ENDMDL
MODEL 7
REMARK VINA RESULT:      -7.4      1.558      2.296
REMARK  6 active torsions:
REMARK  status: ('A' for Active; 'I' for Inactive)
REMARK    1  A    between atoms: C_8  and  N_9 
REMARK       I    between atoms: N_9  and  C_10 
REMARK    2  A    between atoms: C_10  and  C_11 
REMARK    3  A    between atoms: C_11  and  N_12 
REMARK    4  A    between atoms: N_12  and  C_15 
REMARK    5  A    between atoms: C_15  and  C_16 
REMARK    6  A    between atoms: C_16  and  C_17 
ROOT
HETATM    1  N   UNL     1      -4.866   2.099 -31.289  1.00  0.00    -0.062 N 
HETATM    2  H   UNL     1      -5.168   1.602 -30.439  1.00  0.00     0.278 HD
HETATM    3  H   UNL     1      -5.192   3.072 -31.177  1.00  0.00     0.278 HD
ENDROOT
BRANCH   1   4
HETATM    4  C   UNL     1      -3.362   2.234 -31.324  1.00  0.00     0.335 C 
BRANCH   4   5
HETATM    5  C   UNL     1      -2.929   3.580 -31.906  1.00  0.00     0.248 C 
HETATM    6  N   UNL     1      -2.834   4.589 -30.976  1.00  0.00    -0.322 N 
HETATM    7  H   UNL     1      -3.150   4.424 -30.026  1.00  0.00     0.169 HD
HETATM    8  O   UNL     1      -2.677   3.634 -33.107  1.00  0.00    -0.271 OA
BRANCH   6   9
HETATM    9  C   UNL     1      -2.363   5.878 -31.193  1.00  0.00     0.085 A 
HETATM   10  C   UNL     1      -1.005   6.144 -31.243  1.00  0.00     0.052 A 
HETATM   11  C   UNL     1       0.199   5.292 -31.099  1.00  0.00     0.072 C 
HETATM   12  N   UNL     1      -0.895   7.487 -31.477  1.00  0.00    -0.280 N 
HETATM   13  H   UNL     1      -0.052   8.045 -31.571  1.00  0.00     0.189 HD
HETATM   14  N   UNL     1      -2.071   8.105 -31.596  1.00  0.00    -0.177 NA
HETATM   15  C   UNL     1      -2.985   7.142 -31.418  1.00  0.00     0.079 A 
HETATM   16  C   UNL     1      -4.413   7.534 -31.495  1.00  0.00     0.075 C 
ENDBRANCH   6   9
ENDBRANCH   4   5
ENDBRANCH   1   4
BRANCH   1  17
HETATM   17  C   UNL     1      -5.593   1.540 -32.511  1.00  0.00     0.194 C 
HETATM   18  C   UNL     1      -6.354   2.733 -33.111  1.00  0.00     0.041 C 
BRANCH  17  19
HETATM   19  C   UNL     1      -6.477   0.264 -32.184  1.00  0.00     0.007 C 
HETATM   20  C   UNL     1      -6.320  -0.145 -30.692  1.00  0.00     0.022 C 
HETATM   21  C   UNL     1      -7.980   0.653 -32.288  1.00  0.00     0.022 C 
BRANCH  19  22
HETATM   22  C   UNL     1      -6.110  -0.924 -33.099  1.00  0.00    -0.048 A 
HETATM   23  C   UNL     1      -4.776  -1.359 -33.217  1.00  0.00     0.008 A 
HETATM   24  C   UNL     1      -4.421  -2.408 -34.071  1.00  0.00     0.001 A 
HETATM   25  C   UNL     1      -5.390  -3.047 -34.832  1.00  0.00     0.000 A 
HETATM   26  C   UNL     1      -6.716  -2.644 -34.733  1.00  0.00     0.001 A 
HETATM   27  C   UNL     1      -7.073  -1.599 -33.875  1.00  0.00     0.008 A 
ENDBRANCH  19  22
ENDBRANCH  17  19
ENDBRANCH   1  17
TORSDOF 6
ENDMDL
MODEL 8
REMARK VINA RESULT:      -7.3      3.454      6.447
REMARK  6 active torsions:
REMARK  status: ('A' for Active; 'I' for Inactive)
REMARK    1  A    between atoms: C_8  and  N_9 
REMARK       I    between atoms: N_9  and  C_10 
REMARK    2  A    between atoms: C_10  and  C_11 
REMARK    3  A    between atoms: C_11  and  N_12 
REMARK    4  A    between atoms: N_12  and  C_15 
REMARK    5  A    between atoms: C_15  and  C_16 
REMARK    6  A    between atoms: C_16  and  C_17 
ROOT
HETATM    1  N   UNL     1      -5.782   2.066 -33.532  1.00  0.00    -0.062 N 
HETATM    2  H   UNL     1      -6.249   1.202 -33.842  1.00  0.00     0.278 HD
HETATM    3  H   UNL     1      -5.048   2.256 -34.232  1.00  0.00     0.278 HD
ENDROOT
BRANCH   1   4
HETATM    4  C   UNL     1      -6.708   3.252 -33.662  1.00  0.00     0.335 C 
BRANCH   4   5
HETATM    5  C   UNL     1      -8.132   2.908 -33.224  1.00  0.00     0.248 C 
HETATM    6  N   UNL     1      -8.940   2.462 -34.244  1.00  0.00    -0.322 N 
HETATM    7  H   UNL     1      -8.601   2.491 -35.199  1.00  0.00     0.169 HD
HETATM    8  O   UNL     1      -8.412   3.024 -32.034  1.00  0.00    -0.271 OA
BRANCH   6   9
HETATM    9  C   UNL     1     -10.237   1.979 -34.125  1.00  0.00     0.085 A 
HETATM   10  C   UNL     1     -11.304   2.639 -34.710  1.00  0.00     0.052 A 
HETATM   11  C   UNL     1     -11.407   3.879 -35.516  1.00  0.00     0.072 C 
HETATM   12  N   UNL     1     -12.414   1.900 -34.408  1.00  0.00    -0.280 N 
HETATM   13  H   UNL     1     -13.380   2.078 -34.665  1.00  0.00     0.189 HD
HETATM   14  N   UNL     1     -12.147   0.808 -33.691  1.00  0.00    -0.177 NA
HETATM   15  C   UNL     1     -10.822   0.839 -33.497  1.00  0.00     0.079 A 
HETATM   16  C   UNL     1     -10.221  -0.269 -32.714  1.00  0.00     0.075 C 
ENDBRANCH   6   9
ENDBRANCH   4   5
ENDBRANCH   1   4
BRANCH   1  17
HETATM   17  C   UNL     1      -5.059   1.826 -32.207  1.00  0.00     0.194 C 
HETATM   18  C   UNL     1      -3.604   2.252 -32.455  1.00  0.00     0.041 C 
BRANCH  17  19
HETATM   19  C   UNL     1      -5.251   0.354 -31.647  1.00  0.00     0.007 C 
HETATM   20  C   UNL     1      -4.044  -0.058 -30.757  1.00  0.00     0.022 C 
HETATM   21  C   UNL     1      -6.445   0.347 -30.649  1.00  0.00     0.022 C 
BRANCH  19  22
HETATM   22  C   UNL     1      -5.433  -0.665 -32.793  1.00  0.00    -0.048 A 
HETATM   23  C   UNL     1      -6.715  -0.963 -33.296  1.00  0.00     0.008 A 
HETATM   24  C   UNL     1      -6.902  -1.912 -34.306  1.00  0.00     0.001 A 
HETATM   25  C   UNL     1      -5.814  -2.589 -34.838  1.00  0.00     0.000 A 
HETATM   26  C   UNL     1      -4.537  -2.312 -34.367  1.00  0.00     0.001 A 
HETATM   27  C   UNL     1      -4.348  -1.359 -33.360  1.00  0.00     0.008 A 
ENDBRANCH  19  22
ENDBRANCH  17  19
ENDBRANCH   1  17
TORSDOF 6
ENDMDL
MODEL 9
REMARK VINA RESULT:      -7.2      3.525      4.777
REMARK  6 active torsions:
REMARK  status: ('A' for Active; 'I' for Inactive)
REMARK    1  A    between atoms: C_8  and  N_9 
REMARK       I    between atoms: N_9  and  C_10 
REMARK    2  A    between atoms: C_10  and  C_11 
REMARK    3  A    between atoms: C_11  and  N_12 
REMARK    4  A    between atoms: N_12  and  C_15 
REMARK    5  A    between atoms: C_15  and  C_16 
REMARK    6  A    between atoms: C_16  and  C_17 
ROOT
HETATM    1  N   UNL     1      -7.078   0.391 -30.761  1.00  0.00    -0.062 N 
HETATM    2  H   UNL     1      -7.598  -0.194 -30.092  1.00  0.00     0.278 HD
HETATM    3  H   UNL     1      -7.782   0.757 -31.421  1.00  0.00     0.278 HD
ENDROOT
BRANCH   1   4
HETATM    4  C   UNL     1      -6.549   1.634 -30.086  1.00  0.00     0.335 C 
BRANCH   4   5
HETATM    5  C   UNL     1      -7.308   2.885 -30.529  1.00  0.00     0.248 C 
HETATM    6  N   UNL     1      -7.337   3.071 -31.892  1.00  0.00    -0.322 N 
HETATM    7  H   UNL     1      -6.788   2.465 -32.490  1.00  0.00     0.169 HD
HETATM    8  O   UNL     1      -7.837   3.575 -29.661  1.00  0.00    -0.271 OA
BRANCH   6   9
HETATM    9  C   UNL     1      -8.039   4.051 -32.581  1.00  0.00     0.085 A 
HETATM   10  C   UNL     1      -7.388   4.947 -33.412  1.00  0.00     0.052 A 
HETATM   11  C   UNL     1      -5.964   5.137 -33.778  1.00  0.00     0.072 C 
HETATM   12  N   UNL     1      -8.362   5.755 -33.930  1.00  0.00    -0.280 N 
HETATM   13  H   UNL     1      -8.261   6.532 -34.577  1.00  0.00     0.189 HD
HETATM   14  N   UNL     1      -9.589   5.443 -33.514  1.00  0.00    -0.177 NA
HETATM   15  C   UNL     1      -9.417   4.408 -32.680  1.00  0.00     0.079 A 
HETATM   16  C   UNL     1     -10.629   3.834 -32.047  1.00  0.00     0.075 C 
ENDBRANCH   6   9
ENDBRANCH   4   5
ENDBRANCH   1   4
BRANCH   1  17
HETATM   17  C   UNL     1      -6.125  -0.473 -31.586  1.00  0.00     0.194 C 
HETATM   18  C   UNL     1      -4.717   0.037 -31.246  1.00  0.00     0.041 C 
BRANCH  17  19
HETATM   19  C   UNL     1      -6.484  -0.501 -33.131  1.00  0.00     0.007 C 
HETATM   20  C   UNL     1      -7.992  -0.187 -33.350  1.00  0.00     0.022 C 
HETATM   21  C   UNL     1      -5.769   0.688 -33.835  1.00  0.00     0.022 C 
BRANCH  19  22
HETATM   22  C   UNL     1      -6.130  -1.862 -33.767  1.00  0.00    -0.048 A 
HETATM   23  C   UNL     1      -4.790  -2.281 -33.875  1.00  0.00     0.008 A 
HETATM   24  C   UNL     1      -4.449  -3.493 -34.484  1.00  0.00     0.001 A 
HETATM   25  C   UNL     1      -5.438  -4.317 -35.003  1.00  0.00     0.000 A 
HETATM   26  C   UNL     1      -6.770  -3.933 -34.905  1.00  0.00     0.001 A 
HETATM   27  C   UNL     1      -7.113  -2.724 -34.292  1.00  0.00     0.008 A 
ENDBRANCH  19  22
ENDBRANCH  17  19
ENDBRANCH   1  17
TORSDOF 6
ENDMDL
MODEL 10
REMARK VINA RESULT:      -7.2      2.848      4.110
REMARK  6 active torsions:
REMARK  status: ('A' for Active; 'I' for Inactive)
REMARK    1  A    between atoms: C_8  and  N_9 
REMARK       I    between atoms: N_9  and  C_10 
REMARK    2  A    between atoms: C_10  and  C_11 
REMARK    3  A    between atoms: C_11  and  N_12 
REMARK    4  A    between atoms: N_12  and  C_15 
REMARK    5  A    between atoms: C_15  and  C_16 
REMARK    6  A    between atoms: C_16  and  C_17 
ROOT
HETATM    1  N   UNL     1      -8.821   0.268 -32.622  1.00  0.00    -0.062 N 
HETATM    2  H   UNL     1      -9.656  -0.321 -32.490  1.00  0.00     0.278 HD
HETATM    3  H   UNL     1      -8.876   0.620 -33.590  1.00  0.00     0.278 HD
ENDROOT
BRANCH   1   4
HETATM    4  C   UNL     1      -8.911   1.522 -31.785  1.00  0.00     0.335 C 
BRANCH   4   5
HETATM    5  C   UNL     1      -8.424   2.751 -32.553  1.00  0.00     0.248 C 
HETATM    6  N   UNL     1      -7.592   3.572 -31.828  1.00  0.00    -0.322 N 
HETATM    7  H   UNL     1      -7.445   3.389 -30.842  1.00  0.00     0.169 HD
HETATM    8  O   UNL     1      -8.779   2.876 -33.722  1.00  0.00    -0.271 OA
BRANCH   6   9
HETATM    9  C   UNL     1      -6.917   4.692 -32.296  1.00  0.00     0.085 A 
HETATM   10  C   UNL     1      -7.511   5.942 -32.287  1.00  0.00     0.052 A 
HETATM   11  C   UNL     1      -8.845   6.425 -31.856  1.00  0.00     0.072 C 
HETATM   12  N   UNL     1      -6.581   6.804 -32.800  1.00  0.00    -0.280 N 
HETATM   13  H   UNL     1      -6.662   7.805 -32.950  1.00  0.00     0.189 HD
HETATM   14  N   UNL     1      -5.431   6.213 -33.124  1.00  0.00    -0.177 NA
HETATM   15  C   UNL     1      -5.615   4.919 -32.833  1.00  0.00     0.079 A 
HETATM   16  C   UNL     1      -4.484   3.994 -33.093  1.00  0.00     0.075 C 
ENDBRANCH   6   9
ENDBRANCH   4   5
ENDBRANCH   1   4
BRANCH   1  17
HETATM   17  C   UNL     1      -7.558  -0.589 -32.549  1.00  0.00     0.194 C 
HETATM   18  C   UNL     1      -6.793  -0.080 -31.318  1.00  0.00     0.041 C 
BRANCH  17  19
HETATM   19  C   UNL     1      -6.734  -0.604 -33.905  1.00  0.00     0.007 C 
HETATM   20  C   UNL     1      -7.623  -0.145 -35.094  1.00  0.00     0.022 C 
HETATM   21  C   UNL     1      -5.636   0.497 -33.838  1.00  0.00     0.022 C 
BRANCH  19  22
HETATM   22  C   UNL     1      -6.149  -2.004 -34.192  1.00  0.00    -0.048 A 
HETATM   23  C   UNL     1      -6.971  -3.047 -34.661  1.00  0.00     0.008 A 
HETATM   24  C   UNL     1      -6.466  -4.331 -34.889  1.00  0.00     0.001 A 
HETATM   25  C   UNL     1      -5.126  -4.606 -34.652  1.00  0.00     0.000 A 
HETATM   26  C   UNL     1      -4.289  -3.595 -34.196  1.00  0.00     0.001 A 
HETATM   27  C   UNL     1      -4.792  -2.310 -33.972  1.00  0.00     0.008 A 
ENDBRANCH  19  22
ENDBRANCH  17  19
ENDBRANCH   1  17
TORSDOF 6
ENDMDL
