MODEL 1
REMARK VINA RESULT:     -10.3      0.000      0.000
REMARK  6 active torsions:
REMARK  status: ('A' for Active; 'I' for Inactive)
REMARK    1  A    between atoms: N_4  and  C_5 
REMARK    2  A    between atoms: C_13  and  C_14 
REMARK    3  A    between atoms: C_18  and  C_19 
REMARK       I    between atoms: C_19  and  N_20 
REMARK    4  A    between atoms: N_20  and  N_21 
REMARK    5  A    between atoms: C_22  and  C_23 
REMARK    6  A    between atoms: C_24  and  O_25 
ROOT
HETATM    1  C   UNL     1      -4.719   2.297 -32.134  1.00  0.00     0.093 A 
HETATM    2  N   UNL     1      -5.048   2.453 -30.848  1.00  0.00    -0.173 NA
HETATM    3  N   UNL     1      -4.401   3.570 -30.483  1.00  0.00    -0.272 N 
HETATM    4  H   UNL     1      -4.493   3.907 -29.528  1.00  0.00     0.189 HD
HETATM    5  C   UNL     1      -3.651   4.135 -31.481  1.00  0.00     0.121 A 
HETATM    6  C   UNL     1      -3.846   3.317 -32.578  1.00  0.00     0.071 A 
ENDROOT
BRANCH   5   7
HETATM    7  C   UNL     1      -2.873   5.323 -31.237  1.00  0.00     0.289 C 
HETATM    8  N   UNL     1      -3.210   6.021 -30.085  1.00  0.00    -0.242 N 
HETATM    9  H   UNL     1      -3.950   5.692 -29.480  1.00  0.00     0.192 HD
HETATM   10  O   UNL     1      -1.985   5.674 -32.010  1.00  0.00    -0.264 OA
BRANCH   8  11
HETATM   11  N   UNL     1      -2.566   7.186 -29.792  1.00  0.00    -0.183 NA
HETATM   12  C   UNL     1      -2.335   7.414 -28.536  1.00  0.00     0.153 C 
BRANCH  12  13
HETATM   13  C   UNL     1      -1.669   8.667 -28.094  1.00  0.00     0.027 A 
HETATM   14  C   UNL     1      -2.316   9.899 -28.308  1.00  0.00     0.078 A 
HETATM   15  C   UNL     1      -1.749  11.085 -27.864  1.00  0.00     0.038 A 
HETATM   16  C   UNL     1      -0.525  11.061 -27.204  1.00  0.00     0.015 A 
HETATM   17  C   UNL     1       0.154   9.855 -26.985  1.00  0.00    -0.025 A 
HETATM   18  C   UNL     1      -0.404   8.625 -27.430  1.00  0.00    -0.012 A 
HETATM   19  C   UNL     1       1.391   9.876 -26.321  1.00  0.00     0.012 A 
HETATM   20  C   UNL     1       0.360   7.452 -27.184  1.00  0.00     0.013 A 
HETATM   21  C   UNL     1       1.592   7.493 -26.526  1.00  0.00     0.001 A 
HETATM   22  C   UNL     1       2.106   8.705 -26.090  1.00  0.00     0.001 A 
BRANCH  14  23
HETATM   23  O   UNL     1      -3.523  10.032 -28.942  1.00  0.00    -0.360 OA
HETATM   24  H   UNL     1      -3.482   9.559 -29.805  1.00  0.00     0.217 HD
ENDBRANCH  14  23
ENDBRANCH  12  13
ENDBRANCH   8  11
ENDBRANCH   5   7
BRANCH   1  25
HETATM   25  C   UNL     1      -5.189   1.169 -32.937  1.00  0.00     0.045 C 
HETATM   26  C   UNL     1      -6.313   1.144 -33.787  1.00  0.00     0.066 C 
HETATM   27  C   UNL     1      -7.320   2.199 -34.061  1.00  0.00     0.073 C 
HETATM   28  N   UNL     1      -6.419  -0.029 -34.415  1.00  0.00    -0.171 NA
HETATM   29  N   UNL     1      -5.464  -0.828 -33.860  1.00  0.00    -0.237 N 
HETATM   30  C   UNL     1      -4.614  -0.088 -33.046  1.00  0.00     0.047 C 
HETATM   31  C   UNL     1      -3.323  -0.563 -32.481  1.00  0.00     0.071 C 
BRANCH  29  32
HETATM   32  C   UNL     1      -5.470  -2.222 -34.176  1.00  0.00     0.058 A 
HETATM   33  C   UNL     1      -6.667  -2.814 -34.617  1.00  0.00     0.031 A 
HETATM   34  C   UNL     1      -6.717  -4.174 -34.934  1.00  0.00     0.002 A 
HETATM   35  C   UNL     1      -5.578  -4.962 -34.800  1.00  0.00     0.000 A 
HETATM   36  C   UNL     1      -4.393  -4.394 -34.337  1.00  0.00     0.002 A 
HETATM   37  C   UNL     1      -4.338  -3.032 -34.021  1.00  0.00     0.031 A 
ENDBRANCH  29  32
ENDBRANCH   1  25
TORSDOF 6
ENDMDL
MODEL 2
REMARK VINA RESULT:     -10.3      2.438     11.630
REMARK  6 active torsions:
REMARK  status: ('A' for Active; 'I' for Inactive)
REMARK    1  A    between atoms: N_4  and  C_5 
REMARK    2  A    between atoms: C_13  and  C_14 
REMARK    3  A    between atoms: C_18  and  C_19 
REMARK       I    between atoms: C_19  and  N_20 
REMARK    4  A    between atoms: N_20  and  N_21 
REMARK    5  A    between atoms: C_22  and  C_23 
REMARK    6  A    between atoms: C_24  and  O_25 
ROOT
HETATM    1  C   UNL     1      -2.140   7.799 -31.424  1.00  0.00     0.093 A 
HETATM    2  N   UNL     1      -1.572   8.091 -32.597  1.00  0.00    -0.173 NA
HETATM    3  N   UNL     1      -2.209   7.298 -33.472  1.00  0.00    -0.272 N 
HETATM    4  H   UNL     1      -1.951   7.335 -34.454  1.00  0.00     0.189 HD
HETATM    5  C   UNL     1      -3.159   6.489 -32.905  1.00  0.00     0.121 A 
HETATM    6  C   UNL     1      -3.135   6.802 -31.559  1.00  0.00     0.071 A 
ENDROOT
BRANCH   5   7
HETATM    7  C   UNL     1      -3.910   5.559 -33.709  1.00  0.00     0.289 C 
HETATM    8  N   UNL     1      -4.616   4.600 -32.995  1.00  0.00    -0.242 N 
HETATM    9  H   UNL     1      -4.588   4.585 -31.984  1.00  0.00     0.192 HD
HETATM   10  O   UNL     1      -3.906   5.627 -34.935  1.00  0.00    -0.264 OA
BRANCH   8  11
HETATM   11  N   UNL     1      -5.318   3.644 -33.665  1.00  0.00    -0.183 NA
HETATM   12  C   UNL     1      -5.564   2.549 -33.014  1.00  0.00     0.153 C 
BRANCH  12  13
HETATM   13  C   UNL     1      -6.292   1.423 -33.654  1.00  0.00     0.027 A 
HETATM   14  C   UNL     1      -7.567   1.656 -34.203  1.00  0.00     0.078 A 
HETATM   15  C   UNL     1      -8.256   0.641 -34.852  1.00  0.00     0.038 A 
HETATM   16  C   UNL     1      -7.687  -0.623 -34.958  1.00  0.00     0.015 A 
HETATM   17  C   UNL     1      -6.425  -0.895 -34.411  1.00  0.00    -0.025 A 
HETATM   18  C   UNL     1      -5.698   0.126 -33.739  1.00  0.00    -0.012 A 
HETATM   19  C   UNL     1      -5.890  -2.188 -34.533  1.00  0.00     0.012 A 
HETATM   20  C   UNL     1      -4.436  -0.241 -33.198  1.00  0.00     0.013 A 
HETATM   21  C   UNL     1      -3.921  -1.534 -33.326  1.00  0.00     0.001 A 
HETATM   22  C   UNL     1      -4.646  -2.507 -33.997  1.00  0.00     0.001 A 
BRANCH  14  23
HETATM   23  O   UNL     1      -8.214   2.862 -34.158  1.00  0.00    -0.360 OA
HETATM   24  H   UNL     1      -8.225   3.251 -35.062  1.00  0.00     0.217 HD
ENDBRANCH  14  23
ENDBRANCH  12  13
ENDBRANCH   8  11
ENDBRANCH   5   7
BRANCH   1  25
HETATM   25  C   UNL     1      -1.724   8.422 -30.169  1.00  0.00     0.045 C 
HETATM   26  C   UNL     1      -2.135   9.673 -29.667  1.00  0.00     0.066 C 
HETATM   27  C   UNL     1      -3.036  10.688 -30.269  1.00  0.00     0.073 C 
HETATM   28  N   UNL     1      -1.608   9.910 -28.464  1.00  0.00    -0.171 NA
HETATM   29  N   UNL     1      -0.726   8.893 -28.246  1.00  0.00    -0.237 N 
HETATM   30  C   UNL     1      -0.868   7.902 -29.210  1.00  0.00     0.047 C 
HETATM   31  C   UNL     1      -0.261   6.545 -29.155  1.00  0.00     0.071 C 
BRANCH  29  32
HETATM   32  C   UNL     1       0.159   8.984 -27.127  1.00  0.00     0.058 A 
HETATM   33  C   UNL     1      -0.320   9.529 -25.923  1.00  0.00     0.031 A 
HETATM   34  C   UNL     1       0.513   9.638 -24.807  1.00  0.00     0.002 A 
HETATM   35  C   UNL     1       1.837   9.219 -24.883  1.00  0.00     0.000 A 
HETATM   36  C   UNL     1       2.332   8.702 -26.078  1.00  0.00     0.002 A 
HETATM   37  C   UNL     1       1.501   8.588 -27.198  1.00  0.00     0.031 A 
ENDBRANCH  29  32
ENDBRANCH   1  25
TORSDOF 6
ENDMDL
MODEL 3
REMARK VINA RESULT:     -10.1      2.377      2.726
REMARK  6 active torsions:
REMARK  status: ('A' for Active; 'I' for Inactive)
REMARK    1  A    between atoms: N_4  and  C_5 
REMARK    2  A    between atoms: C_13  and  C_14 
REMARK    3  A    between atoms: C_18  and  C_19 
REMARK       I    between atoms: C_19  and  N_20 
REMARK    4  A    between atoms: N_20  and  N_21 
REMARK    5  A    between atoms: C_22  and  C_23 
REMARK    6  A    between atoms: C_24  and  O_25 
ROOT
HETATM    1  C   UNL     1      -6.455   3.043 -30.740  1.00  0.00     0.093 A 
HETATM    2  N   UNL     1      -7.469   2.952 -29.875  1.00  0.00    -0.173 NA
HETATM    3  N   UNL     1      -7.226   3.929 -28.988  1.00  0.00    -0.272 N 
HETATM    4  H   UNL     1      -7.869   4.068 -28.214  1.00  0.00     0.189 HD
HETATM    5  C   UNL     1      -6.082   4.641 -29.239  1.00  0.00     0.121 A 
HETATM    6  C   UNL     1      -5.559   4.079 -30.389  1.00  0.00     0.071 A 
ENDROOT
BRANCH   5   7
HETATM    7  C   UNL     1      -5.668   5.705 -28.361  1.00  0.00     0.289 C 
HETATM    8  N   UNL     1      -4.402   6.216 -28.610  1.00  0.00    -0.242 N 
HETATM    9  H   UNL     1      -3.836   5.848 -29.364  1.00  0.00     0.192 HD
HETATM   10  O   UNL     1      -6.399   6.110 -27.461  1.00  0.00    -0.264 OA
BRANCH   8  11
HETATM   11  N   UNL     1      -3.898   7.192 -27.803  1.00  0.00    -0.183 NA
HETATM   12  C   UNL     1      -2.927   6.844 -27.017  1.00  0.00     0.153 C 
BRANCH  12  13
HETATM   13  C   UNL     1      -2.321   7.814 -26.069  1.00  0.00     0.027 A 
HETATM   14  C   UNL     1      -3.087   8.281 -24.984  1.00  0.00     0.078 A 
HETATM   15  C   UNL     1      -2.540   9.148 -24.050  1.00  0.00     0.038 A 
HETATM   16  C   UNL     1      -1.221   9.568 -24.186  1.00  0.00     0.015 A 
HETATM   17  C   UNL     1      -0.433   9.135 -25.261  1.00  0.00    -0.025 A 
HETATM   18  C   UNL     1      -0.969   8.247 -26.233  1.00  0.00    -0.012 A 
HETATM   19  C   UNL     1       0.892   9.589 -25.365  1.00  0.00     0.012 A 
HETATM   20  C   UNL     1      -0.108   7.873 -27.300  1.00  0.00     0.013 A 
HETATM   21  C   UNL     1       1.208   8.339 -27.390  1.00  0.00     0.001 A 
HETATM   22  C   UNL     1       1.708   9.194 -26.421  1.00  0.00     0.001 A 
BRANCH  14  23
HETATM   23  O   UNL     1      -4.391   7.926 -24.756  1.00  0.00    -0.360 OA
HETATM   24  H   UNL     1      -4.823   8.631 -24.223  1.00  0.00     0.217 HD
ENDBRANCH  14  23
ENDBRANCH  12  13
ENDBRANCH   8  11
ENDBRANCH   5   7
BRANCH   1  25
HETATM   25  C   UNL     1      -6.303   2.134 -31.875  1.00  0.00     0.045 C 
HETATM   26  C   UNL     1      -6.492   2.441 -33.238  1.00  0.00     0.066 C 
HETATM   27  C   UNL     1      -6.922   3.711 -33.875  1.00  0.00     0.073 C 
HETATM   28  N   UNL     1      -6.211   1.392 -34.014  1.00  0.00    -0.171 NA
HETATM   29  N   UNL     1      -5.996   0.352 -33.158  1.00  0.00    -0.237 N 
HETATM   30  C   UNL     1      -5.919   0.802 -31.845  1.00  0.00     0.047 C 
HETATM   31  C   UNL     1      -5.451   0.004 -30.680  1.00  0.00     0.071 C 
BRANCH  29  32
HETATM   32  C   UNL     1      -5.884  -0.967 -33.699  1.00  0.00     0.058 A 
HETATM   33  C   UNL     1      -4.605  -1.533 -33.851  1.00  0.00     0.031 A 
HETATM   34  C   UNL     1      -4.451  -2.817 -34.377  1.00  0.00     0.002 A 
HETATM   35  C   UNL     1      -5.569  -3.546 -34.772  1.00  0.00     0.000 A 
HETATM   36  C   UNL     1      -6.839  -2.986 -34.653  1.00  0.00     0.002 A 
HETATM   37  C   UNL     1      -6.998  -1.701 -34.123  1.00  0.00     0.031 A 
ENDBRANCH  29  32
ENDBRANCH   1  25
TORSDOF 6
ENDMDL
MODEL 4
REMARK VINA RESULT:     -10.0      2.431     12.029
REMARK  6 active torsions:
REMARK  status: ('A' for Active; 'I' for Inactive)
REMARK    1  A    between atoms: N_4  and  C_5 
REMARK    2  A    between atoms: C_13  and  C_14 
REMARK    3  A    between atoms: C_18  and  C_19 
REMARK       I    between atoms: C_19  and  N_20 
REMARK    4  A    between atoms: N_20  and  N_21 
REMARK    5  A    between atoms: C_22  and  C_23 
REMARK    6  A    between atoms: C_24  and  O_25 
ROOT
HETATM    1  C   UNL     1      -0.937   7.221 -29.623  1.00  0.00     0.093 A 
HETATM    2  N   UNL     1       0.188   7.086 -30.330  1.00  0.00    -0.173 NA
HETATM    3  N   UNL     1      -0.120   6.168 -31.258  1.00  0.00    -0.272 N 
HETATM    4  H   UNL     1       0.587   5.887 -31.932  1.00  0.00     0.189 HD
HETATM    5  C   UNL     1      -1.401   5.690 -31.168  1.00  0.00     0.121 A 
HETATM    6  C   UNL     1      -1.960   6.369 -30.102  1.00  0.00     0.071 A 
ENDROOT
BRANCH   5   7
HETATM    7  C   UNL     1      -1.875   4.676 -32.076  1.00  0.00     0.289 C 
HETATM    8  N   UNL     1      -2.542   3.615 -31.479  1.00  0.00    -0.242 N 
HETATM    9  H   UNL     1      -2.672   3.587 -30.476  1.00  0.00     0.192 HD
HETATM   10  O   UNL     1      -1.686   4.766 -33.287  1.00  0.00    -0.264 OA
BRANCH   8  11
HETATM   11  N   UNL     1      -2.986   2.581 -32.246  1.00  0.00    -0.183 NA
HETATM   12  C   UNL     1      -3.588   1.618 -31.621  1.00  0.00     0.153 C 
BRANCH  12  13
HETATM   13  C   UNL     1      -4.086   0.422 -32.349  1.00  0.00     0.027 A 
HETATM   14  C   UNL     1      -3.424  -0.809 -32.177  1.00  0.00     0.078 A 
HETATM   15  C   UNL     1      -3.889  -1.958 -32.801  1.00  0.00     0.038 A 
HETATM   16  C   UNL     1      -5.018  -1.896 -33.611  1.00  0.00     0.015 A 
HETATM   17  C   UNL     1      -5.693  -0.685 -33.816  1.00  0.00    -0.025 A 
HETATM   18  C   UNL     1      -5.238   0.508 -33.191  1.00  0.00    -0.012 A 
HETATM   19  C   UNL     1      -6.824  -0.665 -34.649  1.00  0.00     0.012 A 
HETATM   20  C   UNL     1      -5.970   1.694 -33.468  1.00  0.00     0.013 A 
HETATM   21  C   UNL     1      -7.091   1.696 -34.303  1.00  0.00     0.001 A 
HETATM   22  C   UNL     1      -7.521   0.516 -34.890  1.00  0.00     0.001 A 
BRANCH  14  23
HETATM   23  O   UNL     1      -2.310  -0.979 -31.398  1.00  0.00    -0.360 OA
HETATM   24  H   UNL     1      -2.128  -1.942 -31.312  1.00  0.00     0.217 HD
ENDBRANCH  14  23
ENDBRANCH  12  13
ENDBRANCH   8  11
ENDBRANCH   5   7
BRANCH   1  25
HETATM   25  C   UNL     1      -1.045   8.117 -28.473  1.00  0.00     0.045 C 
HETATM   26  C   UNL     1      -1.619   9.404 -28.452  1.00  0.00     0.066 C 
HETATM   27  C   UNL     1      -2.214  10.196 -29.557  1.00  0.00     0.073 C 
HETATM   28  N   UNL     1      -1.604   9.921 -27.221  1.00  0.00    -0.171 NA
HETATM   29  N   UNL     1      -0.877   9.048 -26.468  1.00  0.00    -0.237 N 
HETATM   30  C   UNL     1      -0.630   7.874 -27.172  1.00  0.00     0.047 C 
HETATM   31  C   UNL     1      -0.093   6.613 -26.595  1.00  0.00     0.071 C 
BRANCH  29  32
HETATM   32  C   UNL     1      -0.498   9.436 -25.145  1.00  0.00     0.058 A 
HETATM   33  C   UNL     1      -1.503   9.637 -24.181  1.00  0.00     0.031 A 
HETATM   34  C   UNL     1      -1.177  10.019 -22.878  1.00  0.00     0.002 A 
HETATM   35  C   UNL     1       0.153  10.222 -22.525  1.00  0.00     0.000 A 
HETATM   36  C   UNL     1       1.156  10.054 -23.477  1.00  0.00     0.002 A 
HETATM   37  C   UNL     1       0.835   9.668 -24.783  1.00  0.00     0.031 A 
ENDBRANCH  29  32
ENDBRANCH   1  25
TORSDOF 6
ENDMDL
MODEL 5
REMARK VINA RESULT:      -9.6      2.305     11.806
REMARK  6 active torsions:
REMARK  status: ('A' for Active; 'I' for Inactive)
REMARK    1  A    between atoms: N_4  and  C_5 
REMARK    2  A    between atoms: C_13  and  C_14 
REMARK    3  A    between atoms: C_18  and  C_19 
REMARK       I    between atoms: C_19  and  N_20 
REMARK    4  A    between atoms: N_20  and  N_21 
REMARK    5  A    between atoms: C_22  and  C_23 
REMARK    6  A    between atoms: C_24  and  O_25 
ROOT
HETATM    1  C   UNL     1      -1.476   6.712 -30.054  1.00  0.00     0.093 A 
HETATM    2  N   UNL     1      -0.306   6.323 -30.567  1.00  0.00    -0.173 NA
HETATM    3  N   UNL     1      -0.645   5.429 -31.508  1.00  0.00    -0.272 N 
HETATM    4  H   UNL     1       0.086   4.979 -32.052  1.00  0.00     0.189 HD
HETATM    5  C   UNL     1      -1.994   5.212 -31.613  1.00  0.00     0.121 A 
HETATM    6  C   UNL     1      -2.563   6.047 -30.669  1.00  0.00     0.071 A 
ENDROOT
BRANCH   5   7
HETATM    7  C   UNL     1      -2.517   4.258 -32.558  1.00  0.00     0.289 C 
HETATM    8  N   UNL     1      -3.341   3.282 -32.015  1.00  0.00    -0.242 N 
HETATM    9  H   UNL     1      -3.543   3.270 -31.024  1.00  0.00     0.192 HD
HETATM   10  O   UNL     1      -2.235   4.323 -33.751  1.00  0.00    -0.264 OA
BRANCH   8  11
HETATM   11  N   UNL     1      -3.845   2.304 -32.818  1.00  0.00    -0.183 NA
HETATM   12  C   UNL     1      -4.359   1.275 -32.218  1.00  0.00     0.153 C 
BRANCH  12  13
HETATM   13  C   UNL     1      -4.909   0.131 -32.991  1.00  0.00     0.027 A 
HETATM   14  C   UNL     1      -5.972   0.357 -33.886  1.00  0.00     0.078 A 
HETATM   15  C   UNL     1      -6.478  -0.675 -34.662  1.00  0.00     0.038 A 
HETATM   16  C   UNL     1      -5.937  -1.952 -34.552  1.00  0.00     0.015 A 
HETATM   17  C   UNL     1      -4.888  -2.217 -33.661  1.00  0.00    -0.025 A 
HETATM   18  C   UNL     1      -4.350  -1.177 -32.853  1.00  0.00    -0.012 A 
HETATM   19  C   UNL     1      -4.375  -3.522 -33.575  1.00  0.00     0.012 A 
HETATM   20  C   UNL     1      -3.302  -1.537 -31.965  1.00  0.00     0.013 A 
HETATM   21  C   UNL     1      -2.807  -2.842 -31.889  1.00  0.00     0.001 A 
HETATM   22  C   UNL     1      -3.341  -3.834 -32.698  1.00  0.00     0.001 A 
BRANCH  14  23
HETATM   23  O   UNL     1      -6.572   1.574 -34.073  1.00  0.00    -0.360 OA
HETATM   24  H   UNL     1      -6.511   2.090 -33.237  1.00  0.00     0.217 HD
ENDBRANCH  14  23
ENDBRANCH  12  13
ENDBRANCH   8  11
ENDBRANCH   5   7
BRANCH   1  25
HETATM   25  C   UNL     1      -1.577   7.677 -28.960  1.00  0.00     0.045 C 
HETATM   26  C   UNL     1      -2.081   8.991 -29.033  1.00  0.00     0.066 C 
HETATM   27  C   UNL     1      -2.591   9.749 -30.203  1.00  0.00     0.073 C 
HETATM   28  N   UNL     1      -2.083   9.576 -27.833  1.00  0.00    -0.171 NA
HETATM   29  N   UNL     1      -1.433   8.711 -27.005  1.00  0.00    -0.237 N 
HETATM   30  C   UNL     1      -1.225   7.488 -27.632  1.00  0.00     0.047 C 
HETATM   31  C   UNL     1      -0.779   6.235 -26.966  1.00  0.00     0.071 C 
BRANCH  29  32
HETATM   32  C   UNL     1      -1.083   9.154 -25.691  1.00  0.00     0.058 A 
HETATM   33  C   UNL     1       0.260   9.468 -25.414  1.00  0.00     0.031 A 
HETATM   34  C   UNL     1       0.644   9.902 -24.143  1.00  0.00     0.002 A 
HETATM   35  C   UNL     1      -0.302  10.013 -23.130  1.00  0.00     0.000 A 
HETATM   36  C   UNL     1      -1.631   9.678 -23.383  1.00  0.00     0.002 A 
HETATM   37  C   UNL     1      -2.021   9.246 -24.655  1.00  0.00     0.031 A 
ENDBRANCH  29  32
ENDBRANCH   1  25
TORSDOF 6
ENDMDL
MODEL 6
REMARK VINA RESULT:      -9.6      2.372     12.011
REMARK  6 active torsions:
REMARK  status: ('A' for Active; 'I' for Inactive)
REMARK    1  A    between atoms: N_4  and  C_5 
REMARK    2  A    between atoms: C_13  and  C_14 
REMARK    3  A    between atoms: C_18  and  C_19 
REMARK       I    between atoms: C_19  and  N_20 
REMARK    4  A    between atoms: N_20  and  N_21 
REMARK    5  A    between atoms: C_22  and  C_23 
REMARK    6  A    between atoms: C_24  and  O_25 
ROOT
HETATM    1  C   UNL     1      -1.966   7.101 -29.263  1.00  0.00     0.093 A 
HETATM    2  N   UNL     1      -1.249   6.278 -30.034  1.00  0.00    -0.173 NA
HETATM    3  N   UNL     1      -2.173   5.607 -30.738  1.00  0.00    -0.272 N 
HETATM    4  H   UNL     1      -1.874   4.907 -31.410  1.00  0.00     0.189 HD
HETATM    5  C   UNL     1      -3.465   5.954 -30.438  1.00  0.00     0.121 A 
HETATM    6  C   UNL     1      -3.355   6.937 -29.472  1.00  0.00     0.071 A 
ENDROOT
BRANCH   5   7
HETATM    7  C   UNL     1      -4.574   5.301 -31.088  1.00  0.00     0.289 C 
HETATM    8  N   UNL     1      -4.785   3.983 -30.710  1.00  0.00    -0.242 N 
HETATM    9  H   UNL     1      -4.188   3.541 -30.023  1.00  0.00     0.192 HD
HETATM   10  O   UNL     1      -5.264   5.891 -31.916  1.00  0.00    -0.264 OA
BRANCH   8  11
HETATM   11  N   UNL     1      -5.778   3.263 -31.304  1.00  0.00    -0.183 NA
HETATM   12  C   UNL     1      -5.735   1.978 -31.138  1.00  0.00     0.153 C 
BRANCH  12  13
HETATM   13  C   UNL     1      -6.745   1.088 -31.767  1.00  0.00     0.027 A 
HETATM   14  C   UNL     1      -8.110   1.304 -31.498  1.00  0.00     0.078 A 
HETATM   15  C   UNL     1      -9.085   0.526 -32.105  1.00  0.00     0.038 A 
HETATM   16  C   UNL     1      -8.714  -0.484 -32.986  1.00  0.00     0.015 A 
HETATM   17  C   UNL     1      -7.364  -0.736 -33.267  1.00  0.00    -0.025 A 
HETATM   18  C   UNL     1      -6.344   0.045 -32.658  1.00  0.00    -0.012 A 
HETATM   19  C   UNL     1      -7.032  -1.771 -34.157  1.00  0.00     0.012 A 
HETATM   20  C   UNL     1      -5.003  -0.291 -32.984  1.00  0.00     0.013 A 
HETATM   21  C   UNL     1      -4.691  -1.328 -33.868  1.00  0.00     0.001 A 
HETATM   22  C   UNL     1      -5.706  -2.065 -34.458  1.00  0.00     0.001 A 
BRANCH  14  23
HETATM   23  O   UNL     1      -8.581   2.273 -30.651  1.00  0.00    -0.360 OA
HETATM   24  H   UNL     1      -8.930   3.021 -31.187  1.00  0.00     0.217 HD
ENDBRANCH  14  23
ENDBRANCH  12  13
ENDBRANCH   8  11
ENDBRANCH   5   7
BRANCH   1  25
HETATM   25  C   UNL     1      -1.352   8.012 -28.298  1.00  0.00     0.045 C 
HETATM   26  C   UNL     1      -1.399   9.421 -28.315  1.00  0.00     0.066 C 
HETATM   27  C   UNL     1      -2.024  10.338 -29.300  1.00  0.00     0.073 C 
HETATM   28  N   UNL     1      -0.782   9.939 -27.250  1.00  0.00    -0.171 NA
HETATM   29  N   UNL     1      -0.191   8.883 -26.622  1.00  0.00    -0.237 N 
HETATM   30  C   UNL     1      -0.626   7.679 -27.165  1.00  0.00     0.047 C 
HETATM   31  C   UNL     1      -0.396   6.331 -26.580  1.00  0.00     0.071 C 
BRANCH  29  32
HETATM   32  C   UNL     1       0.730   9.147 -25.560  1.00  0.00     0.058 A 
HETATM   33  C   UNL     1       2.060   8.709 -25.689  1.00  0.00     0.031 A 
HETATM   34  C   UNL     1       2.990   8.944 -24.675  1.00  0.00     0.002 A 
HETATM   35  C   UNL     1       2.602   9.605 -23.513  1.00  0.00     0.000 A 
HETATM   36  C   UNL     1       1.281  10.019 -23.361  1.00  0.00     0.002 A 
HETATM   37  C   UNL     1       0.346   9.789 -24.377  1.00  0.00     0.031 A 
ENDBRANCH  29  32
ENDBRANCH   1  25
TORSDOF 6
ENDMDL
MODEL 7
REMARK VINA RESULT:      -9.5      2.214     11.691
REMARK  6 active torsions:
REMARK  status: ('A' for Active; 'I' for Inactive)
REMARK    1  A    between atoms: N_4  and  C_5 
REMARK    2  A    between atoms: C_13  and  C_14 
REMARK    3  A    between atoms: C_18  and  C_19 
REMARK       I    between atoms: C_19  and  N_20 
REMARK    4  A    between atoms: N_20  and  N_21 
REMARK    5  A    between atoms: C_22  and  C_23 
REMARK    6  A    between atoms: C_24  and  O_25 
ROOT
HETATM    1  C   UNL     1      -3.794   6.731 -29.458  1.00  0.00     0.093 A 
HETATM    2  N   UNL     1      -5.076   6.817 -29.090  1.00  0.00    -0.173 NA
HETATM    3  N   UNL     1      -5.692   5.897 -29.848  1.00  0.00    -0.272 N 
HETATM    4  H   UNL     1      -6.695   5.767 -29.753  1.00  0.00     0.189 HD
HETATM    5  C   UNL     1      -4.857   5.229 -30.706  1.00  0.00     0.121 A 
HETATM    6  C   UNL     1      -3.603   5.758 -30.466  1.00  0.00     0.071 A 
ENDROOT
BRANCH   5   7
HETATM    7  C   UNL     1      -5.373   4.230 -31.608  1.00  0.00     0.289 C 
HETATM    8  N   UNL     1      -4.513   3.172 -31.869  1.00  0.00    -0.242 N 
HETATM    9  H   UNL     1      -3.599   3.132 -31.439  1.00  0.00     0.192 HD
HETATM   10  O   UNL     1      -6.494   4.333 -32.101  1.00  0.00    -0.264 OA
BRANCH   8  11
HETATM   11  N   UNL     1      -4.888   2.200 -32.747  1.00  0.00    -0.183 NA
HETATM   12  C   UNL     1      -4.915   0.988 -32.288  1.00  0.00     0.153 C 
BRANCH  12  13
HETATM   13  C   UNL     1      -5.276  -0.157 -33.162  1.00  0.00     0.027 A 
HETATM   14  C   UNL     1      -6.262   0.020 -34.151  1.00  0.00     0.078 A 
HETATM   15  C   UNL     1      -6.591  -1.011 -35.019  1.00  0.00     0.038 A 
HETATM   16  C   UNL     1      -5.944  -2.238 -34.911  1.00  0.00     0.015 A 
HETATM   17  C   UNL     1      -4.967  -2.455 -33.930  1.00  0.00    -0.025 A 
HETATM   18  C   UNL     1      -4.611  -1.416 -33.027  1.00  0.00    -0.012 A 
HETATM   19  C   UNL     1      -4.343  -3.711 -33.851  1.00  0.00     0.012 A 
HETATM   20  C   UNL     1      -3.626  -1.727 -32.052  1.00  0.00     0.013 A 
HETATM   21  C   UNL     1      -3.019  -2.985 -31.985  1.00  0.00     0.001 A 
HETATM   22  C   UNL     1      -3.375  -3.976 -32.887  1.00  0.00     0.001 A 
BRANCH  14  23
HETATM   23  O   UNL     1      -6.954   1.187 -34.344  1.00  0.00    -0.360 OA
HETATM   24  H   UNL     1      -6.861   1.459 -35.285  1.00  0.00     0.217 HD
ENDBRANCH  14  23
ENDBRANCH  12  13
ENDBRANCH   8  11
ENDBRANCH   5   7
BRANCH   1  25
HETATM   25  C   UNL     1      -2.753   7.589 -28.894  1.00  0.00     0.045 C 
HETATM   26  C   UNL     1      -2.180   8.730 -29.492  1.00  0.00     0.066 C 
HETATM   27  C   UNL     1      -2.431   9.331 -30.825  1.00  0.00     0.073 C 
HETATM   28  N   UNL     1      -1.299   9.313 -28.676  1.00  0.00    -0.171 NA
HETATM   29  N   UNL     1      -1.173   8.469 -27.613  1.00  0.00    -0.237 N 
HETATM   30  C   UNL     1      -2.141   7.473 -27.655  1.00  0.00     0.047 C 
HETATM   31  C   UNL     1      -2.470   6.534 -26.549  1.00  0.00     0.071 C 
BRANCH  29  32
HETATM   32  C   UNL     1      -0.132   8.715 -26.664  1.00  0.00     0.058 A 
HETATM   33  C   UNL     1       1.103   8.060 -26.823  1.00  0.00     0.031 A 
HETATM   34  C   UNL     1       2.144   8.270 -25.917  1.00  0.00     0.002 A 
HETATM   35  C   UNL     1       1.963   9.124 -24.833  1.00  0.00     0.000 A 
HETATM   36  C   UNL     1       0.736   9.757 -24.649  1.00  0.00     0.002 A 
HETATM   37  C   UNL     1      -0.310   9.552 -25.555  1.00  0.00     0.031 A 
ENDBRANCH  29  32
ENDBRANCH   1  25
TORSDOF 6
ENDMDL
MODEL 8
REMARK VINA RESULT:      -9.5      2.617     11.787
REMARK  6 active torsions:
REMARK  status: ('A' for Active; 'I' for Inactive)
REMARK    1  A    between atoms: N_4  and  C_5 
REMARK    2  A    between atoms: C_13  and  C_14 
REMARK    3  A    between atoms: C_18  and  C_19 
REMARK       I    between atoms: C_19  and  N_20 
REMARK    4  A    between atoms: N_20  and  N_21 
REMARK    5  A    between atoms: C_22  and  C_23 
REMARK    6  A    between atoms: C_24  and  O_25 
ROOT
HETATM    1  C   UNL     1      -4.397   6.576 -27.681  1.00  0.00     0.093 A 
HETATM    2  N   UNL     1      -5.285   6.057 -26.829  1.00  0.00    -0.173 NA
HETATM    3  N   UNL     1      -6.052   5.271 -27.600  1.00  0.00    -0.272 N 
HETATM    4  H   UNL     1      -6.817   4.754 -27.176  1.00  0.00     0.189 HD
HETATM    5  C   UNL     1      -5.702   5.274 -28.925  1.00  0.00     0.121 A 
HETATM    6  C   UNL     1      -4.614   6.123 -29.003  1.00  0.00     0.071 A 
ENDROOT
BRANCH   5   7
HETATM    7  C   UNL     1      -6.448   4.503 -29.887  1.00  0.00     0.289 C 
HETATM    8  N   UNL     1      -6.020   3.193 -30.051  1.00  0.00    -0.242 N 
HETATM    9  H   UNL     1      -5.240   2.834 -29.517  1.00  0.00     0.192 HD
HETATM   10  O   UNL     1      -7.388   4.994 -30.508  1.00  0.00    -0.264 OA
BRANCH   8  11
HETATM   11  N   UNL     1      -6.629   2.396 -30.974  1.00  0.00    -0.183 NA
HETATM   12  C   UNL     1      -5.885   1.971 -31.947  1.00  0.00     0.153 C 
BRANCH  12  13
HETATM   13  C   UNL     1      -6.447   1.123 -33.030  1.00  0.00     0.027 A 
HETATM   14  C   UNL     1      -7.568   1.582 -33.746  1.00  0.00     0.078 A 
HETATM   15  C   UNL     1      -8.091   0.842 -34.797  1.00  0.00     0.038 A 
HETATM   16  C   UNL     1      -7.506  -0.371 -35.146  1.00  0.00     0.015 A 
HETATM   17  C   UNL     1      -6.398  -0.866 -34.446  1.00  0.00    -0.025 A 
HETATM   18  C   UNL     1      -5.843  -0.128 -33.364  1.00  0.00    -0.012 A 
HETATM   19  C   UNL     1      -5.843  -2.099 -34.826  1.00  0.00     0.012 A 
HETATM   20  C   UNL     1      -4.732  -0.712 -32.698  1.00  0.00     0.013 A 
HETATM   21  C   UNL     1      -4.195  -1.943 -33.087  1.00  0.00     0.001 A 
HETATM   22  C   UNL     1      -4.748  -2.634 -34.153  1.00  0.00     0.001 A 
BRANCH  14  23
HETATM   23  O   UNL     1      -8.215   2.762 -33.487  1.00  0.00    -0.360 OA
HETATM   24  H   UNL     1      -7.624   3.335 -32.948  1.00  0.00     0.217 HD
ENDBRANCH  14  23
ENDBRANCH  12  13
ENDBRANCH   8  11
ENDBRANCH   5   7
BRANCH   1  25
HETATM   25  C   UNL     1      -3.369   7.529 -27.265  1.00  0.00     0.045 C 
HETATM   26  C   UNL     1      -3.337   8.912 -27.534  1.00  0.00     0.066 C 
HETATM   27  C   UNL     1      -4.279   9.749 -28.319  1.00  0.00     0.073 C 
HETATM   28  N   UNL     1      -2.285   9.494 -26.954  1.00  0.00    -0.171 NA
HETATM   29  N   UNL     1      -1.540   8.474 -26.443  1.00  0.00    -0.237 N 
HETATM   30  C   UNL     1      -2.238   7.273 -26.505  1.00  0.00     0.047 C 
HETATM   31  C   UNL     1      -1.852   6.008 -25.823  1.00  0.00     0.071 C 
BRANCH  29  32
HETATM   32  C   UNL     1      -0.231   8.765 -25.945  1.00  0.00     0.058 A 
HETATM   33  C   UNL     1      -0.103   9.588 -24.812  1.00  0.00     0.031 A 
HETATM   34  C   UNL     1       1.157   9.899 -24.295  1.00  0.00     0.002 A 
HETATM   35  C   UNL     1       2.303   9.406 -24.910  1.00  0.00     0.000 A 
HETATM   36  C   UNL     1       2.191   8.613 -26.050  1.00  0.00     0.002 A 
HETATM   37  C   UNL     1       0.931   8.296 -26.570  1.00  0.00     0.031 A 
ENDBRANCH  29  32
ENDBRANCH   1  25
TORSDOF 6
ENDMDL
MODEL 9
REMARK VINA RESULT:      -9.3      7.683     12.396
REMARK  6 active torsions:
REMARK  status: ('A' for Active; 'I' for Inactive)
REMARK    1  A    between atoms: N_4  and  C_5 
REMARK    2  A    between atoms: C_13  and  C_14 
REMARK    3  A    between atoms: C_18  and  C_19 
REMARK       I    between atoms: C_19  and  N_20 
REMARK    4  A    between atoms: N_20  and  N_21 
REMARK    5  A    between atoms: C_22  and  C_23 
REMARK    6  A    between atoms: C_24  and  O_25 
ROOT
HETATM    1  C   UNL     1     -12.415   4.034 -33.995  1.00  0.00     0.093 A 
HETATM    2  N   UNL     1     -12.453   3.412 -35.177  1.00  0.00    -0.173 NA
HETATM    3  N   UNL     1     -11.230   2.874 -35.299  1.00  0.00    -0.272 N 
HETATM    4  H   UNL     1     -11.004   2.339 -36.132  1.00  0.00     0.189 HD
HETATM    5  C   UNL     1     -10.395   3.139 -34.245  1.00  0.00     0.121 A 
HETATM    6  C   UNL     1     -11.153   3.898 -33.373  1.00  0.00     0.071 A 
ENDROOT
BRANCH   5   7
HETATM    7  C   UNL     1      -9.037   2.656 -34.240  1.00  0.00     0.289 C 
HETATM    8  N   UNL     1      -8.862   1.386 -34.772  1.00  0.00    -0.242 N 
HETATM    9  H   UNL     1      -9.650   0.864 -35.132  1.00  0.00     0.192 HD
HETATM   10  O   UNL     1      -8.120   3.337 -33.788  1.00  0.00    -0.264 OA
BRANCH   8  11
HETATM   11  N   UNL     1      -7.623   0.820 -34.767  1.00  0.00    -0.183 NA
HETATM   12  C   UNL     1      -7.413  -0.099 -33.876  1.00  0.00     0.153 C 
BRANCH  12  13
HETATM   13  C   UNL     1      -6.090  -0.763 -33.754  1.00  0.00     0.027 A 
HETATM   14  C   UNL     1      -5.000  -0.032 -33.245  1.00  0.00     0.078 A 
HETATM   15  C   UNL     1      -3.762  -0.632 -33.070  1.00  0.00     0.038 A 
HETATM   16  C   UNL     1      -3.590  -1.971 -33.405  1.00  0.00     0.015 A 
HETATM   17  C   UNL     1      -4.648  -2.727 -33.927  1.00  0.00    -0.025 A 
HETATM   18  C   UNL     1      -5.928  -2.136 -34.118  1.00  0.00    -0.012 A 
HETATM   19  C   UNL     1      -4.429  -4.073 -34.259  1.00  0.00     0.012 A 
HETATM   20  C   UNL     1      -6.939  -2.968 -34.669  1.00  0.00     0.013 A 
HETATM   21  C   UNL     1      -6.701  -4.306 -34.999  1.00  0.00     0.001 A 
HETATM   22  C   UNL     1      -5.448  -4.860 -34.790  1.00  0.00     0.001 A 
BRANCH  14  23
HETATM   23  O   UNL     1      -5.065   1.287 -32.882  1.00  0.00    -0.360 OA
HETATM   24  H   UNL     1      -4.484   1.430 -32.100  1.00  0.00     0.217 HD
ENDBRANCH  14  23
ENDBRANCH  12  13
ENDBRANCH   8  11
ENDBRANCH   5   7
BRANCH   1  25
HETATM   25  C   UNL     1     -13.549   4.790 -33.466  1.00  0.00     0.045 C 
HETATM   26  C   UNL     1     -13.989   6.062 -33.885  1.00  0.00     0.066 C 
HETATM   27  C   UNL     1     -13.421   6.973 -34.910  1.00  0.00     0.073 C 
HETATM   28  N   UNL     1     -15.090   6.434 -33.229  1.00  0.00    -0.171 NA
HETATM   29  N   UNL     1     -15.282   5.485 -32.270  1.00  0.00    -0.237 N 
HETATM   30  C   UNL     1     -14.432   4.402 -32.470  1.00  0.00     0.047 C 
HETATM   31  C   UNL     1     -14.527   3.086 -31.783  1.00  0.00     0.071 C 
BRANCH  29  32
HETATM   32  C   UNL     1     -16.267   5.721 -31.261  1.00  0.00     0.058 A 
HETATM   33  C   UNL     1     -15.886   6.385 -30.081  1.00  0.00     0.031 A 
HETATM   34  C   UNL     1     -16.817   6.633 -29.069  1.00  0.00     0.002 A 
HETATM   35  C   UNL     1     -18.134   6.208 -29.215  1.00  0.00     0.000 A 
HETATM   36  C   UNL     1     -18.517   5.524 -30.367  1.00  0.00     0.002 A 
HETATM   37  C   UNL     1     -17.589   5.276 -31.385  1.00  0.00     0.031 A 
ENDBRANCH  29  32
ENDBRANCH   1  25
TORSDOF 6
ENDMDL
MODEL 10
REMARK VINA RESULT:      -9.2      2.252      2.570
REMARK  6 active torsions:
REMARK  status: ('A' for Active; 'I' for Inactive)
REMARK    1  A    between atoms: N_4  and  C_5 
REMARK    2  A    between atoms: C_13  and  C_14 
REMARK    3  A    between atoms: C_18  and  C_19 
REMARK       I    between atoms: C_19  and  N_20 
REMARK    4  A    between atoms: N_20  and  N_21 
REMARK    5  A    between atoms: C_22  and  C_23 
REMARK    6  A    between atoms: C_24  and  O_25 
ROOT
HETATM    1  C   UNL     1      -7.443   2.032 -31.495  1.00  0.00     0.093 A 
HETATM    2  N   UNL     1      -8.539   2.116 -30.736  1.00  0.00    -0.173 NA
HETATM    3  N   UNL     1      -8.290   3.155 -29.924  1.00  0.00    -0.272 N 
HETATM    4  H   UNL     1      -8.988   3.426 -29.237  1.00  0.00     0.189 HD
HETATM    5  C   UNL     1      -7.065   3.737 -30.119  1.00  0.00     0.121 A 
HETATM    6  C   UNL     1      -6.490   3.017 -31.150  1.00  0.00     0.071 A 
ENDROOT
BRANCH   5   7
HETATM    7  C   UNL     1      -6.637   4.846 -29.305  1.00  0.00     0.289 C 
HETATM    8  N   UNL     1      -5.509   5.512 -29.763  1.00  0.00    -0.242 N 
HETATM    9  H   UNL     1      -5.045   5.218 -30.612  1.00  0.00     0.192 HD
HETATM   10  O   UNL     1      -7.242   5.157 -28.282  1.00  0.00    -0.264 OA
BRANCH   8  11
HETATM   11  N   UNL     1      -4.996   6.545 -29.037  1.00  0.00    -0.183 NA
HETATM   12  C   UNL     1      -3.780   6.399 -28.609  1.00  0.00     0.153 C 
BRANCH  12  13
HETATM   13  C   UNL     1      -3.127   7.444 -27.779  1.00  0.00     0.027 A 
HETATM   14  C   UNL     1      -3.888   8.121 -26.808  1.00  0.00     0.078 A 
HETATM   15  C   UNL     1      -3.302   9.068 -25.980  1.00  0.00     0.038 A 
HETATM   16  C   UNL     1      -1.948   9.357 -26.112  1.00  0.00     0.015 A 
HETATM   17  C   UNL     1      -1.163   8.713 -27.077  1.00  0.00    -0.025 A 
HETATM   18  C   UNL     1      -1.738   7.740 -27.939  1.00  0.00    -0.012 A 
HETATM   19  C   UNL     1       0.199   9.041 -27.182  1.00  0.00     0.012 A 
HETATM   20  C   UNL     1      -0.875   7.149 -28.901  1.00  0.00     0.013 A 
HETATM   21  C   UNL     1       0.478   7.491 -28.994  1.00  0.00     0.001 A 
HETATM   22  C   UNL     1       1.015   8.434 -28.132  1.00  0.00     0.001 A 
BRANCH  14  23
HETATM   23  O   UNL     1      -5.224   7.908 -26.594  1.00  0.00    -0.360 OA
HETATM   24  H   UNL     1      -5.703   8.762 -26.698  1.00  0.00     0.217 HD
ENDBRANCH  14  23
ENDBRANCH  12  13
ENDBRANCH   8  11
ENDBRANCH   5   7
BRANCH   1  25
HETATM   25  C   UNL     1      -7.271   1.001 -32.519  1.00  0.00     0.045 C 
HETATM   26  C   UNL     1      -7.952   0.906 -33.749  1.00  0.00     0.066 C 
HETATM   27  C   UNL     1      -9.024   1.766 -34.310  1.00  0.00     0.073 C 
HETATM   28  N   UNL     1      -7.507  -0.125 -34.470  1.00  0.00    -0.171 NA
HETATM   29  N   UNL     1      -6.653  -0.802 -33.651  1.00  0.00    -0.237 N 
HETATM   30  C   UNL     1      -6.389  -0.069 -32.499  1.00  0.00     0.047 C 
HETATM   31  C   UNL     1      -5.323  -0.367 -31.506  1.00  0.00     0.071 C 
BRANCH  29  32
HETATM   32  C   UNL     1      -6.177  -2.084 -34.068  1.00  0.00     0.058 A 
HETATM   33  C   UNL     1      -7.105  -3.041 -34.516  1.00  0.00     0.031 A 
HETATM   34  C   UNL     1      -6.683  -4.306 -34.929  1.00  0.00     0.002 A 
HETATM   35  C   UNL     1      -5.332  -4.638 -34.886  1.00  0.00     0.000 A 
HETATM   36  C   UNL     1      -4.406  -3.709 -34.418  1.00  0.00     0.002 A 
HETATM   37  C   UNL     1      -4.824  -2.438 -34.006  1.00  0.00     0.031 A 
ENDBRANCH  29  32
ENDBRANCH   1  25
TORSDOF 6
ENDMDL
