MODEL 1
REMARK VINA RESULT:      -8.1      0.000      0.000
REMARK  4 active torsions:
REMARK  status: ('A' for Active; 'I' for Inactive)
REMARK    1  A    between atoms: C_3  and  N_4 
REMARK       I    between atoms: N_4  and  C_5 
REMARK    2  A    between atoms: C_5  and  C_6 
REMARK    3  A    between atoms: C_14  and  C_15 
REMARK       I    between atoms: C_15  and  N_16 
REMARK    4  A    between atoms: N_16  and  C_17 
ROOT
HETATM    1  C   UNL     1      -5.897   4.910 -33.176  1.00  0.00     0.003 A 
HETATM    2  C   UNL     1      -4.744   5.271 -32.472  1.00  0.00     0.029 A 
HETATM    3  C   UNL     1      -3.961   4.300 -31.844  1.00  0.00     0.036 A 
HETATM    4  C   UNL     1      -4.345   2.957 -31.929  1.00  0.00     0.046 A 
HETATM    5  C   UNL     1      -5.512   2.595 -32.616  1.00  0.00     0.034 A 
HETATM    6  C   UNL     1      -6.285   3.573 -33.251  1.00  0.00     0.017 A 
ENDROOT
BRANCH   5   7
HETATM    7  C   UNL     1      -5.886   1.157 -32.672  1.00  0.00     0.257 C 
HETATM    8  N   UNL     1      -5.391   0.479 -33.759  1.00  0.00    -0.307 N 
HETATM    9  H   UNL     1      -4.924   0.989 -34.497  1.00  0.00     0.170 HD
HETATM   10  O   UNL     1      -6.616   0.706 -31.798  1.00  0.00    -0.267 OA
BRANCH   8  11
HETATM   11  C   UNL     1      -5.537  -0.871 -34.071  1.00  0.00     0.130 A 
HETATM   12  N   UNL     1      -4.402  -1.585 -33.901  1.00  0.00    -0.242 NA
HETATM   13  C   UNL     1      -4.453  -2.912 -34.182  1.00  0.00     0.142 A 
HETATM   14  C   UNL     1      -5.595  -3.566 -34.613  1.00  0.00     0.051 A 
HETATM   15 CL   UNL     1      -5.580  -5.249 -34.941  1.00  0.00    -0.083 Cl
HETATM   16  C   UNL     1      -6.754  -2.820 -34.769  1.00  0.00     0.029 A 
HETATM   17  C   UNL     1      -6.726  -1.451 -34.495  1.00  0.00     0.052 A 
ENDBRANCH   8  11
ENDBRANCH   5   7
BRANCH   3  18
HETATM   18  N   UNL     1      -2.798   4.588 -31.110  1.00  0.00    -0.322 N 
HETATM   19  C   UNL     1      -1.542   4.922 -31.578  1.00  0.00     0.276 C 
HETATM   20  O   UNL     1      -1.192   5.000 -32.750  1.00  0.00    -0.266 OA
HETATM   21  H   UNL     1      -2.853   4.572 -30.093  1.00  0.00     0.169 HD
BRANCH  19  22
HETATM   22  C   UNL     1      -0.605   5.194 -30.472  1.00  0.00     0.146 A 
HETATM   23  N   UNL     1       0.380   4.328 -30.142  1.00  0.00    -0.170 NA
HETATM   24  N   UNL     1       0.995   4.916 -29.099  1.00  0.00    -0.289 N 
HETATM   25  H   UNL     1       1.781   4.439 -28.671  1.00  0.00     0.188 HD
HETATM   26  C   UNL     1       0.453   6.116 -28.751  1.00  0.00     0.112 A 
HETATM   27  C   UNL     1      -0.588   6.329 -29.622  1.00  0.00     0.058 A 
ENDBRANCH  19  22
ENDBRANCH   3  18
TORSDOF 4
ENDMDL
MODEL 2
REMARK VINA RESULT:      -8.0      2.268      2.668
REMARK  4 active torsions:
REMARK  status: ('A' for Active; 'I' for Inactive)
REMARK    1  A    between atoms: C_3  and  N_4 
REMARK       I    between atoms: N_4  and  C_5 
REMARK    2  A    between atoms: C_5  and  C_6 
REMARK    3  A    between atoms: C_14  and  C_15 
REMARK       I    between atoms: C_15  and  N_16 
REMARK    4  A    between atoms: N_16  and  C_17 
ROOT
HETATM    1  C   UNL     1      -8.280   4.607 -33.730  1.00  0.00     0.003 A 
HETATM    2  C   UNL     1      -7.044   5.246 -33.582  1.00  0.00     0.029 A 
HETATM    3  C   UNL     1      -5.875   4.502 -33.407  1.00  0.00     0.036 A 
HETATM    4  C   UNL     1      -5.955   3.106 -33.382  1.00  0.00     0.046 A 
HETATM    5  C   UNL     1      -7.194   2.463 -33.510  1.00  0.00     0.034 A 
HETATM    6  C   UNL     1      -8.360   3.215 -33.695  1.00  0.00     0.017 A 
ENDROOT
BRANCH   5   7
HETATM    7  C   UNL     1      -7.233   0.978 -33.469  1.00  0.00     0.257 C 
HETATM    8  N   UNL     1      -6.206   0.360 -34.142  1.00  0.00    -0.307 N 
HETATM    9  H   UNL     1      -5.576   0.912 -34.709  1.00  0.00     0.170 HD
HETATM   10  O   UNL     1      -8.164   0.429 -32.893  1.00  0.00    -0.267 OA
BRANCH   8  11
HETATM   11  C   UNL     1      -5.950  -1.005 -34.256  1.00  0.00     0.130 A 
HETATM   12  N   UNL     1      -4.724  -1.358 -33.811  1.00  0.00    -0.242 NA
HETATM   13  C   UNL     1      -4.389  -2.670 -33.885  1.00  0.00     0.142 A 
HETATM   14  C   UNL     1      -5.231  -3.656 -34.371  1.00  0.00     0.051 A 
HETATM   15 CL   UNL     1      -4.736  -5.296 -34.426  1.00  0.00    -0.083 Cl
HETATM   16  C   UNL     1      -6.491  -3.277 -34.812  1.00  0.00     0.029 A 
HETATM   17  C   UNL     1      -6.858  -1.931 -34.755  1.00  0.00     0.052 A 
ENDBRANCH   8  11
ENDBRANCH   5   7
BRANCH   3  18
HETATM   18  N   UNL     1      -4.603   5.074 -33.239  1.00  0.00    -0.322 N 
HETATM   19  C   UNL     1      -3.718   5.511 -34.205  1.00  0.00     0.276 C 
HETATM   20  O   UNL     1      -3.870   5.452 -35.420  1.00  0.00    -0.266 OA
HETATM   21  H   UNL     1      -4.258   5.213 -32.291  1.00  0.00     0.169 HD
BRANCH  19  22
HETATM   22  C   UNL     1      -2.503   6.093 -33.606  1.00  0.00     0.146 A 
HETATM   23  N   UNL     1      -1.916   7.199 -34.115  1.00  0.00    -0.170 NA
HETATM   24  N   UNL     1      -0.852   7.401 -33.316  1.00  0.00    -0.289 N 
HETATM   25  H   UNL     1      -0.245   8.190 -33.511  1.00  0.00     0.188 HD
HETATM   26  C   UNL     1      -0.735   6.480 -32.319  1.00  0.00     0.112 A 
HETATM   27  C   UNL     1      -1.791   5.615 -32.476  1.00  0.00     0.058 A 
ENDBRANCH  19  22
ENDBRANCH   3  18
TORSDOF 4
ENDMDL
MODEL 3
REMARK VINA RESULT:      -7.9      4.557      9.389
REMARK  4 active torsions:
REMARK  status: ('A' for Active; 'I' for Inactive)
REMARK    1  A    between atoms: C_3  and  N_4 
REMARK       I    between atoms: N_4  and  C_5 
REMARK    2  A    between atoms: C_5  and  C_6 
REMARK    3  A    between atoms: C_14  and  C_15 
REMARK       I    between atoms: C_15  and  N_16 
REMARK    4  A    between atoms: N_16  and  C_17 
ROOT
HETATM    1  C   UNL     1      -1.887   5.334 -34.111  1.00  0.00     0.003 A 
HETATM    2  C   UNL     1      -2.999   4.507 -33.922  1.00  0.00     0.029 A 
HETATM    3  C   UNL     1      -3.261   3.942 -32.673  1.00  0.00     0.036 A 
HETATM    4  C   UNL     1      -2.395   4.215 -31.608  1.00  0.00     0.046 A 
HETATM    5  C   UNL     1      -1.268   5.027 -31.800  1.00  0.00     0.034 A 
HETATM    6  C   UNL     1      -1.019   5.597 -33.053  1.00  0.00     0.017 A 
ENDROOT
BRANCH   5   7
HETATM    7  C   UNL     1      -0.371   5.282 -30.642  1.00  0.00     0.257 C 
HETATM    8  N   UNL     1      -0.617   6.457 -29.976  1.00  0.00    -0.307 N 
HETATM    9  H   UNL     1      -1.278   7.120 -30.357  1.00  0.00     0.170 HD
HETATM   10  O   UNL     1       0.517   4.474 -30.398  1.00  0.00    -0.267 OA
BRANCH   8  11
HETATM   11  C   UNL     1       0.025   6.955 -28.844  1.00  0.00     0.130 A 
HETATM   12  N   UNL     1      -0.305   6.297 -27.710  1.00  0.00    -0.242 NA
HETATM   13  C   UNL     1       0.274   6.716 -26.557  1.00  0.00     0.142 A 
HETATM   14  C   UNL     1       1.184   7.757 -26.483  1.00  0.00     0.051 A 
HETATM   15 CL   UNL     1       1.877   8.223 -24.986  1.00  0.00    -0.083 Cl
HETATM   16  C   UNL     1       1.520   8.413 -27.658  1.00  0.00     0.029 A 
HETATM   17  C   UNL     1       0.932   8.008 -28.858  1.00  0.00     0.052 A 
ENDBRANCH   8  11
ENDBRANCH   5   7
BRANCH   3  18
HETATM   18  N   UNL     1      -4.349   3.094 -32.411  1.00  0.00    -0.322 N 
HETATM   19  C   UNL     1      -4.350   1.728 -32.204  1.00  0.00     0.276 C 
HETATM   20  O   UNL     1      -3.380   0.980 -32.241  1.00  0.00    -0.266 OA
HETATM   21  H   UNL     1      -5.278   3.507 -32.345  1.00  0.00     0.169 HD
BRANCH  19  22
HETATM   22  C   UNL     1      -5.705   1.222 -31.914  1.00  0.00     0.146 A 
HETATM   23  N   UNL     1      -6.299   1.420 -30.716  1.00  0.00    -0.170 NA
HETATM   24  N   UNL     1      -7.492   0.810 -30.840  1.00  0.00    -0.289 N 
HETATM   25  H   UNL     1      -8.125   0.824 -30.047  1.00  0.00     0.188 HD
HETATM   26  C   UNL     1      -7.691   0.239 -32.060  1.00  0.00     0.112 A 
HETATM   27  C   UNL     1      -6.550   0.487 -32.784  1.00  0.00     0.058 A 
ENDBRANCH  19  22
ENDBRANCH   3  18
TORSDOF 4
ENDMDL
MODEL 4
REMARK VINA RESULT:      -7.8      4.663      9.285
REMARK  4 active torsions:
REMARK  status: ('A' for Active; 'I' for Inactive)
REMARK    1  A    between atoms: C_3  and  N_4 
REMARK       I    between atoms: N_4  and  C_5 
REMARK    2  A    between atoms: C_5  and  C_6 
REMARK    3  A    between atoms: C_14  and  C_15 
REMARK       I    between atoms: C_15  and  N_16 
REMARK    4  A    between atoms: N_16  and  C_17 
ROOT
HETATM    1  C   UNL     1      -5.907  -0.540 -33.400  1.00  0.00     0.003 A 
HETATM    2  C   UNL     1      -7.262  -0.392 -33.716  1.00  0.00     0.029 A 
HETATM    3  C   UNL     1      -7.864   0.868 -33.690  1.00  0.00     0.036 A 
HETATM    4  C   UNL     1      -7.092   1.983 -33.345  1.00  0.00     0.046 A 
HETATM    5  C   UNL     1      -5.740   1.835 -33.009  1.00  0.00     0.034 A 
HETATM    6  C   UNL     1      -5.142   0.570 -33.046  1.00  0.00     0.017 A 
ENDROOT
BRANCH   5   7
HETATM    7  C   UNL     1      -4.962   3.046 -32.640  1.00  0.00     0.257 C 
HETATM    8  N   UNL     1      -3.605   2.932 -32.821  1.00  0.00    -0.307 N 
HETATM    9  H   UNL     1      -3.206   2.035 -33.064  1.00  0.00     0.170 HD
HETATM   10  O   UNL     1      -5.560   4.012 -32.180  1.00  0.00    -0.267 OA
BRANCH   8  11
HETATM   11  C   UNL     1      -2.623   3.896 -32.600  1.00  0.00     0.130 A 
HETATM   12  N   UNL     1      -2.171   3.916 -31.327  1.00  0.00    -0.242 NA
HETATM   13  C   UNL     1      -1.212   4.826 -31.022  1.00  0.00     0.142 A 
HETATM   14  C   UNL     1      -0.668   5.712 -31.936  1.00  0.00     0.051 A 
HETATM   15 CL   UNL     1       0.547   6.829 -31.473  1.00  0.00    -0.083 Cl
HETATM   16  C   UNL     1      -1.135   5.668 -33.242  1.00  0.00     0.029 A 
HETATM   17  C   UNL     1      -2.129   4.747 -33.581  1.00  0.00     0.052 A 
ENDBRANCH   8  11
ENDBRANCH   5   7
BRANCH   3  18
HETATM   18  N   UNL     1      -9.219   1.092 -33.982  1.00  0.00    -0.322 N 
HETATM   19  C   UNL     1     -10.334   0.520 -33.401  1.00  0.00     0.276 C 
HETATM   20  O   UNL     1     -10.347  -0.334 -32.522  1.00  0.00    -0.266 OA
HETATM   21  H   UNL     1      -9.451   1.771 -34.705  1.00  0.00     0.169 HD
BRANCH  19  22
HETATM   22  C   UNL     1     -11.582   1.065 -33.967  1.00  0.00     0.146 A 
HETATM   23  N   UNL     1     -11.585   2.145 -34.780  1.00  0.00    -0.170 NA
HETATM   24  N   UNL     1     -12.886   2.333 -35.067  1.00  0.00    -0.289 N 
HETATM   25  H   UNL     1     -13.140   3.107 -35.673  1.00  0.00     0.188 HD
HETATM   26  C   UNL     1     -13.713   1.422 -34.482  1.00  0.00     0.112 A 
HETATM   27  C   UNL     1     -12.900   0.582 -33.760  1.00  0.00     0.058 A 
ENDBRANCH  19  22
ENDBRANCH   3  18
TORSDOF 4
ENDMDL
MODEL 5
REMARK VINA RESULT:      -7.7      3.041      3.856
REMARK  4 active torsions:
REMARK  status: ('A' for Active; 'I' for Inactive)
REMARK    1  A    between atoms: C_3  and  N_4 
REMARK       I    between atoms: N_4  and  C_5 
REMARK    2  A    between atoms: C_5  and  C_6 
REMARK    3  A    between atoms: C_14  and  C_15 
REMARK       I    between atoms: C_15  and  N_16 
REMARK    4  A    between atoms: N_16  and  C_17 
ROOT
HETATM    1  C   UNL     1      -1.446   5.539 -34.054  1.00  0.00     0.003 A 
HETATM    2  C   UNL     1      -0.925   6.079 -32.874  1.00  0.00     0.029 A 
HETATM    3  C   UNL     1      -1.307   5.572 -31.630  1.00  0.00     0.036 A 
HETATM    4  C   UNL     1      -2.219   4.513 -31.579  1.00  0.00     0.046 A 
HETATM    5  C   UNL     1      -2.759   3.983 -32.760  1.00  0.00     0.034 A 
HETATM    6  C   UNL     1      -2.363   4.490 -34.002  1.00  0.00     0.017 A 
ENDROOT
BRANCH   5   7
HETATM    7  C   UNL     1      -3.732   2.864 -32.657  1.00  0.00     0.257 C 
HETATM    8  N   UNL     1      -5.023   3.196 -32.988  1.00  0.00    -0.307 N 
HETATM    9  H   UNL     1      -5.263   4.164 -33.156  1.00  0.00     0.170 HD
HETATM   10  O   UNL     1      -3.335   1.774 -32.261  1.00  0.00    -0.267 OA
BRANCH   8  11
HETATM   11  C   UNL     1      -6.143   2.368 -33.023  1.00  0.00     0.130 A 
HETATM   12  N   UNL     1      -6.869   2.402 -31.884  1.00  0.00    -0.242 NA
HETATM   13  C   UNL     1      -7.979   1.624 -31.829  1.00  0.00     0.142 A 
HETATM   14  C   UNL     1      -8.410   0.820 -32.871  1.00  0.00     0.051 A 
HETATM   15 CL   UNL     1      -9.829  -0.131 -32.727  1.00  0.00    -0.083 Cl
HETATM   16  C   UNL     1      -7.660   0.807 -34.037  1.00  0.00     0.029 A 
HETATM   17  C   UNL     1      -6.507   1.592 -34.117  1.00  0.00     0.052 A 
ENDBRANCH   8  11
ENDBRANCH   5   7
BRANCH   3  18
HETATM   18  N   UNL     1      -0.836   6.071 -30.405  1.00  0.00    -0.322 N 
HETATM   19  C   UNL     1       0.141   5.551 -29.578  1.00  0.00     0.276 C 
HETATM   20  O   UNL     1       0.774   4.515 -29.751  1.00  0.00    -0.266 OA
HETATM   21  H   UNL     1      -1.236   6.939 -30.051  1.00  0.00     0.169 HD
BRANCH  19  22
HETATM   22  C   UNL     1       0.370   6.409 -28.400  1.00  0.00     0.146 A 
HETATM   23  N   UNL     1       0.005   6.026 -27.156  1.00  0.00    -0.170 NA
HETATM   24  N   UNL     1       0.362   7.063 -26.378  1.00  0.00    -0.289 N 
HETATM   25  H   UNL     1       0.178   7.004 -25.382  1.00  0.00     0.188 HD
HETATM   26  C   UNL     1       0.942   8.087 -27.063  1.00  0.00     0.112 A 
HETATM   27  C   UNL     1       0.965   7.697 -28.380  1.00  0.00     0.058 A 
ENDBRANCH  19  22
ENDBRANCH   3  18
TORSDOF 4
ENDMDL
MODEL 6
REMARK VINA RESULT:      -7.2      4.941      9.579
REMARK  4 active torsions:
REMARK  status: ('A' for Active; 'I' for Inactive)
REMARK    1  A    between atoms: C_3  and  N_4 
REMARK       I    between atoms: N_4  and  C_5 
REMARK    2  A    between atoms: C_5  and  C_6 
REMARK    3  A    between atoms: C_14  and  C_15 
REMARK       I    between atoms: C_15  and  N_16 
REMARK    4  A    between atoms: N_16  and  C_17 
ROOT
HETATM    1  C   UNL     1      -2.245   4.528 -33.447  1.00  0.00     0.003 A 
HETATM    2  C   UNL     1      -3.451   3.840 -33.275  1.00  0.00     0.029 A 
HETATM    3  C   UNL     1      -4.197   3.995 -32.105  1.00  0.00     0.036 A 
HETATM    4  C   UNL     1      -3.723   4.851 -31.105  1.00  0.00     0.046 A 
HETATM    5  C   UNL     1      -2.505   5.525 -31.266  1.00  0.00     0.034 A 
HETATM    6  C   UNL     1      -1.768   5.372 -32.445  1.00  0.00     0.017 A 
ENDROOT
BRANCH   5   7
HETATM    7  C   UNL     1      -2.036   6.417 -30.172  1.00  0.00     0.257 C 
HETATM    8  N   UNL     1      -0.803   6.094 -29.661  1.00  0.00    -0.307 N 
HETATM    9  H   UNL     1      -0.351   5.236 -29.948  1.00  0.00     0.170 HD
HETATM   10  O   UNL     1      -2.772   7.319 -29.793  1.00  0.00    -0.267 OA
BRANCH   8  11
HETATM   11  C   UNL     1      -0.086   6.752 -28.663  1.00  0.00     0.130 A 
HETATM   12  N   UNL     1      -0.310   6.254 -27.427  1.00  0.00    -0.242 NA
HETATM   13  C   UNL     1       0.349   6.835 -26.393  1.00  0.00     0.142 A 
HETATM   14  C   UNL     1       1.236   7.888 -26.537  1.00  0.00     0.051 A 
HETATM   15 CL   UNL     1       2.035   8.565 -25.180  1.00  0.00    -0.083 Cl
HETATM   16  C   UNL     1       1.464   8.378 -27.814  1.00  0.00     0.029 A 
HETATM   17  C   UNL     1       0.793   7.803 -28.896  1.00  0.00     0.052 A 
ENDBRANCH   8  11
ENDBRANCH   5   7
BRANCH   3  18
HETATM   18  N   UNL     1      -5.408   3.329 -31.857  1.00  0.00    -0.322 N 
HETATM   19  C   UNL     1      -6.696   3.825 -31.920  1.00  0.00     0.276 C 
HETATM   20  O   UNL     1      -7.028   4.976 -32.182  1.00  0.00    -0.266 OA
HETATM   21  H   UNL     1      -5.374   2.342 -31.606  1.00  0.00     0.169 HD
BRANCH  19  22
HETATM   22  C   UNL     1      -7.696   2.781 -31.629  1.00  0.00     0.146 A 
HETATM   23  N   UNL     1      -8.737   3.002 -30.795  1.00  0.00    -0.170 NA
HETATM   24  N   UNL     1      -9.398   1.829 -30.781  1.00  0.00    -0.289 N 
HETATM   25  H   UNL     1     -10.231   1.752 -30.208  1.00  0.00     0.188 HD
HETATM   26  C   UNL     1      -8.832   0.873 -31.570  1.00  0.00     0.112 A 
HETATM   27  C   UNL     1      -7.725   1.456 -32.137  1.00  0.00     0.058 A 
ENDBRANCH  19  22
ENDBRANCH   3  18
TORSDOF 4
ENDMDL
MODEL 7
REMARK VINA RESULT:      -7.0      6.159      9.200
REMARK  4 active torsions:
REMARK  status: ('A' for Active; 'I' for Inactive)
REMARK    1  A    between atoms: C_3  and  N_4 
REMARK       I    between atoms: N_4  and  C_5 
REMARK    2  A    between atoms: C_5  and  C_6 
REMARK    3  A    between atoms: C_14  and  C_15 
REMARK       I    between atoms: C_15  and  N_16 
REMARK    4  A    between atoms: N_16  and  C_17 
ROOT
HETATM    1  C   UNL     1     -13.604   0.391 -34.055  1.00  0.00     0.003 A 
HETATM    2  C   UNL     1     -13.732   1.671 -34.606  1.00  0.00     0.029 A 
HETATM    3  C   UNL     1     -12.630   2.524 -34.687  1.00  0.00     0.036 A 
HETATM    4  C   UNL     1     -11.391   2.081 -34.210  1.00  0.00     0.046 A 
HETATM    5  C   UNL     1     -11.264   0.808 -33.639  1.00  0.00     0.034 A 
HETATM    6  C   UNL     1     -12.372  -0.044 -33.571  1.00  0.00     0.017 A 
ENDROOT
BRANCH   5   7
HETATM    7  C   UNL     1      -9.931   0.383 -33.137  1.00  0.00     0.257 C 
HETATM    8  N   UNL     1      -8.933   0.399 -34.081  1.00  0.00    -0.307 N 
HETATM    9  H   UNL     1      -9.164   0.567 -35.051  1.00  0.00     0.170 HD
HETATM   10  O   UNL     1      -9.829   0.026 -31.970  1.00  0.00    -0.267 OA
BRANCH   8  11
HETATM   11  C   UNL     1      -7.584   0.090 -33.913  1.00  0.00     0.130 A 
HETATM   12  N   UNL     1      -6.885   1.071 -33.300  1.00  0.00    -0.242 NA
HETATM   13  C   UNL     1      -5.561   0.856 -33.095  1.00  0.00     0.142 A 
HETATM   14  C   UNL     1      -4.901  -0.305 -33.461  1.00  0.00     0.051 A 
HETATM   15 CL   UNL     1      -3.225  -0.503 -33.161  1.00  0.00    -0.083 Cl
HETATM   16  C   UNL     1      -5.638  -1.306 -34.077  1.00  0.00     0.029 A 
HETATM   17  C   UNL     1      -7.001  -1.107 -34.308  1.00  0.00     0.052 A 
ENDBRANCH   8  11
ENDBRANCH   5   7
BRANCH   3  18
HETATM   18  N   UNL     1     -12.686   3.824 -35.215  1.00  0.00    -0.322 N 
HETATM   19  C   UNL     1     -13.074   4.994 -34.591  1.00  0.00     0.276 C 
HETATM   20  O   UNL     1     -13.481   5.113 -33.441  1.00  0.00    -0.266 OA
HETATM   21  H   UNL     1     -12.396   3.966 -36.181  1.00  0.00     0.169 HD
BRANCH  19  22
HETATM   22  C   UNL     1     -12.943   6.158 -35.487  1.00  0.00     0.146 A 
HETATM   23  N   UNL     1     -13.913   6.494 -36.367  1.00  0.00    -0.170 NA
HETATM   24  N   UNL     1     -13.423   7.578 -36.995  1.00  0.00    -0.289 N 
HETATM   25  H   UNL     1     -13.987   8.013 -37.718  1.00  0.00     0.188 HD
HETATM   26  C   UNL     1     -12.190   7.954 -36.555  1.00  0.00     0.112 A 
HETATM   27  C   UNL     1     -11.847   7.054 -35.575  1.00  0.00     0.058 A 
ENDBRANCH  19  22
ENDBRANCH   3  18
TORSDOF 4
ENDMDL
MODEL 8
REMARK VINA RESULT:      -6.9      4.747      9.043
REMARK  4 active torsions:
REMARK  status: ('A' for Active; 'I' for Inactive)
REMARK    1  A    between atoms: C_3  and  N_4 
REMARK       I    between atoms: N_4  and  C_5 
REMARK    2  A    between atoms: C_5  and  C_6 
REMARK    3  A    between atoms: C_14  and  C_15 
REMARK       I    between atoms: C_15  and  N_16 
REMARK    4  A    between atoms: N_16  and  C_17 
ROOT
HETATM    1  C   UNL     1      -7.104  -0.859 -34.122  1.00  0.00     0.003 A 
HETATM    2  C   UNL     1      -8.249  -0.111 -34.419  1.00  0.00     0.029 A 
HETATM    3  C   UNL     1      -8.313   1.247 -34.104  1.00  0.00     0.036 A 
HETATM    4  C   UNL     1      -7.214   1.855 -33.487  1.00  0.00     0.046 A 
HETATM    5  C   UNL     1      -6.073   1.104 -33.171  1.00  0.00     0.034 A 
HETATM    6  C   UNL     1      -6.014  -0.255 -33.498  1.00  0.00     0.017 A 
ENDROOT
BRANCH   5   7
HETATM    7  C   UNL     1      -4.933   1.789 -32.507  1.00  0.00     0.257 C 
HETATM    8  N   UNL     1      -4.728   3.084 -32.914  1.00  0.00    -0.307 N 
HETATM    9  H   UNL     1      -5.254   3.452 -33.696  1.00  0.00     0.170 HD
HETATM   10  O   UNL     1      -4.258   1.159 -31.701  1.00  0.00    -0.267 OA
BRANCH   8  11
HETATM   11  C   UNL     1      -3.771   3.989 -32.459  1.00  0.00     0.130 A 
HETATM   12  N   UNL     1      -2.674   4.048 -33.246  1.00  0.00    -0.242 NA
HETATM   13  C   UNL     1      -1.689   4.905 -32.878  1.00  0.00     0.142 A 
HETATM   14  C   UNL     1      -1.752   5.720 -31.760  1.00  0.00     0.051 A 
HETATM   15 CL   UNL     1      -0.466   6.782 -31.364  1.00  0.00    -0.083 Cl
HETATM   16  C   UNL     1      -2.891   5.655 -30.970  1.00  0.00     0.029 A 
HETATM   17  C   UNL     1      -3.917   4.776 -31.323  1.00  0.00     0.052 A 
ENDBRANCH   8  11
ENDBRANCH   5   7
BRANCH   3  18
HETATM   18  N   UNL     1      -9.432   2.057 -34.360  1.00  0.00    -0.322 N 
HETATM   19  C   UNL     1     -10.766   1.786 -34.128  1.00  0.00     0.276 C 
HETATM   20  O   UNL     1     -11.236   0.750 -33.672  1.00  0.00    -0.266 OA
HETATM   21  H   UNL     1      -9.277   2.982 -34.759  1.00  0.00     0.169 HD
BRANCH  19  22
HETATM   22  C   UNL     1     -11.625   2.926 -34.498  1.00  0.00     0.146 A 
HETATM   23  N   UNL     1     -12.668   3.313 -33.729  1.00  0.00    -0.170 NA
HETATM   24  N   UNL     1     -13.197   4.354 -34.398  1.00  0.00    -0.289 N 
HETATM   25  H   UNL     1     -14.011   4.815 -34.006  1.00  0.00     0.188 HD
HETATM   26  C   UNL     1     -12.540   4.653 -35.553  1.00  0.00     0.112 A 
HETATM   27  C   UNL     1     -11.512   3.747 -35.650  1.00  0.00     0.058 A 
ENDBRANCH  19  22
ENDBRANCH   3  18
TORSDOF 4
ENDMDL
MODEL 9
REMARK VINA RESULT:      -6.8      4.702      7.894
REMARK  4 active torsions:
REMARK  status: ('A' for Active; 'I' for Inactive)
REMARK    1  A    between atoms: C_3  and  N_4 
REMARK       I    between atoms: N_4  and  C_5 
REMARK    2  A    between atoms: C_5  and  C_6 
REMARK    3  A    between atoms: C_14  and  C_15 
REMARK       I    between atoms: C_15  and  N_16 
REMARK    4  A    between atoms: N_16  and  C_17 
ROOT
HETATM    1  C   UNL     1      -3.583   2.508 -31.936  1.00  0.00     0.003 A 
HETATM    2  C   UNL     1      -3.418   1.153 -32.239  1.00  0.00     0.029 A 
HETATM    3  C   UNL     1      -4.507   0.377 -32.642  1.00  0.00     0.036 A 
HETATM    4  C   UNL     1      -5.768   0.974 -32.741  1.00  0.00     0.046 A 
HETATM    5  C   UNL     1      -5.940   2.327 -32.419  1.00  0.00     0.034 A 
HETATM    6  C   UNL     1      -4.842   3.100 -32.025  1.00  0.00     0.017 A 
ENDROOT
BRANCH   5   7
HETATM    7  C   UNL     1      -7.300   2.917 -32.529  1.00  0.00     0.257 C 
HETATM    8  N   UNL     1      -7.676   3.252 -33.807  1.00  0.00    -0.307 N 
HETATM    9  H   UNL     1      -7.000   3.202 -34.557  1.00  0.00     0.170 HD
HETATM   10  O   UNL     1      -7.950   3.092 -31.505  1.00  0.00    -0.267 OA
BRANCH   8  11
HETATM   11  C   UNL     1      -8.890   3.787 -34.235  1.00  0.00     0.130 A 
HETATM   12  N   UNL     1      -8.843   5.122 -34.437  1.00  0.00    -0.242 NA
HETATM   13  C   UNL     1      -9.983   5.729 -34.855  1.00  0.00     0.142 A 
HETATM   14  C   UNL     1     -11.170   5.059 -35.096  1.00  0.00     0.051 A 
HETATM   15 CL   UNL     1     -12.568   5.896 -35.630  1.00  0.00    -0.083 Cl
HETATM   16  C   UNL     1     -11.196   3.686 -34.895  1.00  0.00     0.029 A 
HETATM   17  C   UNL     1     -10.039   3.039 -34.457  1.00  0.00     0.052 A 
ENDBRANCH   8  11
ENDBRANCH   5   7
BRANCH   3  18
HETATM   18  N   UNL     1      -4.420  -0.991 -32.950  1.00  0.00    -0.322 N 
HETATM   19  C   UNL     1      -5.074  -1.697 -33.941  1.00  0.00     0.276 C 
HETATM   20  O   UNL     1      -5.896  -1.255 -34.737  1.00  0.00    -0.266 OA
HETATM   21  H   UNL     1      -3.790  -1.571 -32.398  1.00  0.00     0.169 HD
BRANCH  19  22
HETATM   22  C   UNL     1      -4.668  -3.115 -33.958  1.00  0.00     0.146 A 
HETATM   23  N   UNL     1      -5.327  -4.038 -34.694  1.00  0.00    -0.170 NA
HETATM   24  N   UNL     1      -4.675  -5.186 -34.436  1.00  0.00    -0.289 N 
HETATM   25  H   UNL     1      -5.001  -6.036 -34.884  1.00  0.00     0.188 HD
HETATM   26  C   UNL     1      -3.629  -5.040 -33.576  1.00  0.00     0.112 A 
HETATM   27  C   UNL     1      -3.594  -3.707 -33.245  1.00  0.00     0.058 A 
ENDBRANCH  19  22
ENDBRANCH   3  18
TORSDOF 4
ENDMDL
MODEL 10
REMARK VINA RESULT:      -6.7      3.613      5.192
REMARK  4 active torsions:
REMARK  status: ('A' for Active; 'I' for Inactive)
REMARK    1  A    between atoms: C_3  and  N_4 
REMARK       I    between atoms: N_4  and  C_5 
REMARK    2  A    between atoms: C_5  and  C_6 
REMARK    3  A    between atoms: C_14  and  C_15 
REMARK       I    between atoms: C_15  and  N_16 
REMARK    4  A    between atoms: N_16  and  C_17 
ROOT
HETATM    1  C   UNL     1      -3.696   4.264 -31.521  1.00  0.00     0.003 A 
HETATM    2  C   UNL     1      -4.679   5.023 -30.877  1.00  0.00     0.029 A 
HETATM    3  C   UNL     1      -6.032   4.723 -31.044  1.00  0.00     0.036 A 
HETATM    4  C   UNL     1      -6.394   3.649 -31.865  1.00  0.00     0.046 A 
HETATM    5  C   UNL     1      -5.412   2.900 -32.527  1.00  0.00     0.034 A 
HETATM    6  C   UNL     1      -4.058   3.201 -32.347  1.00  0.00     0.017 A 
ENDROOT
BRANCH   5   7
HETATM    7  C   UNL     1      -5.844   1.774 -33.397  1.00  0.00     0.257 C 
HETATM    8  N   UNL     1      -5.412   0.536 -32.986  1.00  0.00    -0.307 N 
HETATM    9  H   UNL     1      -4.751   0.464 -32.225  1.00  0.00     0.170 HD
HETATM   10  O   UNL     1      -6.497   2.025 -34.402  1.00  0.00    -0.267 OA
BRANCH   8  11
HETATM   11  C   UNL     1      -5.677  -0.703 -33.566  1.00  0.00     0.130 A 
HETATM   12  N   UNL     1      -4.560  -1.412 -33.845  1.00  0.00    -0.242 NA
HETATM   13  C   UNL     1      -4.724  -2.634 -34.412  1.00  0.00     0.142 A 
HETATM   14  C   UNL     1      -5.958  -3.191 -34.702  1.00  0.00     0.051 A 
HETATM   15 CL   UNL     1      -6.082  -4.746 -35.414  1.00  0.00    -0.083 Cl
HETATM   16  C   UNL     1      -7.093  -2.455 -34.397  1.00  0.00     0.029 A 
HETATM   17  C   UNL     1      -6.953  -1.191 -33.820  1.00  0.00     0.052 A 
ENDBRANCH   8  11
ENDBRANCH   5   7
BRANCH   3  18
HETATM   18  N   UNL     1      -7.074   5.447 -30.440  1.00  0.00    -0.322 N 
HETATM   19  C   UNL     1      -7.455   5.468 -29.112  1.00  0.00     0.276 C 
HETATM   20  O   UNL     1      -6.962   4.819 -28.197  1.00  0.00    -0.266 OA
HETATM   21  H   UNL     1      -7.638   6.060 -31.026  1.00  0.00     0.169 HD
BRANCH  19  22
HETATM   22  C   UNL     1      -8.574   6.400 -28.883  1.00  0.00     0.146 A 
HETATM   23  N   UNL     1      -8.798   6.964 -27.675  1.00  0.00    -0.170 NA
HETATM   24  N   UNL     1      -9.892   7.723 -27.866  1.00  0.00    -0.289 N 
HETATM   25  H   UNL     1     -10.257   8.250 -27.080  1.00  0.00     0.188 HD
HETATM   26  C   UNL     1     -10.375   7.675 -29.139  1.00  0.00     0.112 A 
HETATM   27  C   UNL     1      -9.543   6.826 -29.828  1.00  0.00     0.058 A 
ENDBRANCH  19  22
ENDBRANCH   3  18
TORSDOF 4
ENDMDL
