MODEL 1
REMARK VINA RESULT:      -9.1      0.000      0.000
REMARK  6 active torsions:
REMARK  status: ('A' for Active; 'I' for Inactive)
REMARK    1  A    between atoms: O_2  and  C_3 
REMARK    2  A    between atoms: C_6  and  C_7 
REMARK    3  A    between atoms: C_11  and  C_12 
REMARK       I    between atoms: C_12  and  N_13 
REMARK    4  A    between atoms: N_13  and  N_14 
REMARK       I    between atoms: N_14  and  C_15 
REMARK    5  A    between atoms: C_15  and  C_16 
REMARK    6  A    between atoms: C_17  and  C_18 
ROOT
HETATM    1  C   UNL     1      -2.317   4.292 -31.909  1.00  0.00     0.288 C 
HETATM    2  N   UNL     1      -3.202   3.609 -31.100  1.00  0.00    -0.262 N 
HETATM    3  O   UNL     1      -2.238   4.067 -33.117  1.00  0.00    -0.264 OA
HETATM    4  H   UNL     1      -3.150   3.639 -30.085  1.00  0.00     0.190 HD
ENDROOT
BRANCH   1   5
HETATM    5  C   UNL     1      -1.494   5.267 -31.251  1.00  0.00     0.121 A 
HETATM    6  N   UNL     1      -0.231   5.549 -31.689  1.00  0.00    -0.272 N 
HETATM    7  N   UNL     1       0.413   6.471 -30.960  1.00  0.00    -0.174 NA
HETATM    8  H   UNL     1       0.246   5.133 -32.483  1.00  0.00     0.189 HD
HETATM    9  C   UNL     1      -0.467   6.832 -30.011  1.00  0.00     0.089 A 
HETATM   10  C   UNL     1      -1.677   6.094 -30.160  1.00  0.00     0.071 A 
BRANCH   9  11
HETATM   11  C   UNL     1      -0.136   7.844 -29.001  1.00  0.00    -0.005 A 
HETATM   12  C   UNL     1       1.130   7.893 -28.405  1.00  0.00     0.016 A 
HETATM   13  C   UNL     1       1.429   8.872 -27.449  1.00  0.00     0.037 A 
HETATM   14  C   UNL     1       0.476   9.820 -27.074  1.00  0.00     0.068 A 
HETATM   15  C   UNL     1      -0.790   9.775 -27.654  1.00  0.00     0.037 A 
HETATM   16  C   UNL     1      -1.091   8.793 -28.608  1.00  0.00     0.016 A 
BRANCH  14  17
HETATM   17  O   UNL     1       0.901  10.722 -26.139  1.00  0.00    -0.356 OA
HETATM   18  C   UNL     1       1.745  10.227 -25.107  1.00  0.00     0.210 C 
ENDBRANCH  14  17
ENDBRANCH   9  11
ENDBRANCH   1   5
BRANCH   2  19
HETATM   19  N   UNL     1      -3.896   2.519 -31.647  1.00  0.00    -0.267 N 
HETATM   20  C   UNL     1      -5.265   2.614 -31.755  1.00  0.00     0.240 C 
HETATM   21  O   UNL     1      -5.889   3.649 -31.542  1.00  0.00    -0.271 OA
HETATM   22  H   UNL     1      -3.403   1.628 -31.661  1.00  0.00     0.190 HD
BRANCH  20  23
HETATM   23  C   UNL     1      -5.946   1.344 -32.120  1.00  0.00     0.089 A 
HETATM   24  C   UNL     1      -5.999   0.905 -33.574  1.00  0.00     0.036 A 
HETATM   25  C   UNL     1      -7.250   1.380 -32.872  1.00  0.00     0.025 A 
BRANCH  24  26
HETATM   26  C   UNL     1      -5.829  -0.556 -33.920  1.00  0.00    -0.015 A 
HETATM   27  C   UNL     1      -4.576  -1.185 -33.863  1.00  0.00     0.123 A 
HETATM   28  F   UNL     1      -3.502  -0.480 -33.473  1.00  0.00    -0.206 F 
HETATM   29  C   UNL     1      -4.402  -2.529 -34.192  1.00  0.00     0.043 A 
HETATM   30  C   UNL     1      -5.496  -3.286 -34.597  1.00  0.00     0.003 A 
HETATM   31  C   UNL     1      -6.754  -2.693 -34.673  1.00  0.00     0.001 A 
HETATM   32  C   UNL     1      -6.915  -1.343 -34.344  1.00  0.00     0.011 A 
ENDBRANCH  24  26
ENDBRANCH  20  23
ENDBRANCH   2  19
TORSDOF 6
ENDMDL
MODEL 2
REMARK VINA RESULT:      -9.0      2.769     11.299
REMARK  6 active torsions:
REMARK  status: ('A' for Active; 'I' for Inactive)
REMARK    1  A    between atoms: O_2  and  C_3 
REMARK    2  A    between atoms: C_6  and  C_7 
REMARK    3  A    between atoms: C_11  and  C_12 
REMARK       I    between atoms: C_12  and  N_13 
REMARK    4  A    between atoms: N_13  and  N_14 
REMARK       I    between atoms: N_14  and  C_15 
REMARK    5  A    between atoms: C_15  and  C_16 
REMARK    6  A    between atoms: C_17  and  C_18 
ROOT
HETATM    1  C   UNL     1      -4.052   3.686 -31.259  1.00  0.00     0.288 C 
HETATM    2  N   UNL     1      -2.693   3.722 -31.496  1.00  0.00    -0.262 N 
HETATM    3  O   UNL     1      -4.610   4.529 -30.556  1.00  0.00    -0.264 OA
HETATM    4  H   UNL     1      -2.189   2.940 -31.906  1.00  0.00     0.190 HD
ENDROOT
BRANCH   1   5
HETATM    5  C   UNL     1      -4.765   2.600 -31.872  1.00  0.00     0.121 A 
HETATM    6  N   UNL     1      -6.114   2.657 -32.079  1.00  0.00    -0.272 N 
HETATM    7  N   UNL     1      -6.631   1.560 -32.648  1.00  0.00    -0.174 NA
HETATM    8  H   UNL     1      -6.735   3.425 -31.843  1.00  0.00     0.189 HD
HETATM    9  C   UNL     1      -5.578   0.749 -32.848  1.00  0.00     0.089 A 
HETATM   10  C   UNL     1      -4.387   1.369 -32.370  1.00  0.00     0.071 A 
BRANCH   9  11
HETATM   11  C   UNL     1      -5.732  -0.572 -33.468  1.00  0.00    -0.005 A 
HETATM   12  C   UNL     1      -4.642  -1.436 -33.625  1.00  0.00     0.016 A 
HETATM   13  C   UNL     1      -4.811  -2.696 -34.212  1.00  0.00     0.037 A 
HETATM   14  C   UNL     1      -6.068  -3.119 -34.649  1.00  0.00     0.068 A 
HETATM   15  C   UNL     1      -7.158  -2.264 -34.506  1.00  0.00     0.037 A 
HETATM   16  C   UNL     1      -6.989  -1.001 -33.922  1.00  0.00     0.016 A 
BRANCH  14  17
HETATM   17  O   UNL     1      -6.093  -4.372 -35.194  1.00  0.00    -0.356 OA
HETATM   18  C   UNL     1      -5.109  -5.291 -34.737  1.00  0.00     0.210 C 
ENDBRANCH  14  17
ENDBRANCH   9  11
ENDBRANCH   1   5
BRANCH   2  19
HETATM   19  N   UNL     1      -1.918   4.643 -30.776  1.00  0.00    -0.267 N 
HETATM   20  C   UNL     1      -0.768   5.119 -31.365  1.00  0.00     0.240 C 
HETATM   21  O   UNL     1      -0.467   4.900 -32.534  1.00  0.00    -0.271 OA
HETATM   22  H   UNL     1      -2.081   4.686 -29.772  1.00  0.00     0.190 HD
BRANCH  20  23
HETATM   23  C   UNL     1       0.113   5.901 -30.457  1.00  0.00     0.089 A 
HETATM   24  C   UNL     1      -0.324   7.275 -29.976  1.00  0.00     0.036 A 
HETATM   25  C   UNL     1       0.810   7.135 -30.966  1.00  0.00     0.025 A 
BRANCH  24  26
HETATM   26  C   UNL     1      -0.043   7.692 -28.552  1.00  0.00    -0.015 A 
HETATM   27  C   UNL     1      -1.020   7.591 -27.549  1.00  0.00     0.123 A 
HETATM   28  F   UNL     1      -2.228   7.093 -27.854  1.00  0.00    -0.206 F 
HETATM   29  C   UNL     1      -0.779   7.985 -26.233  1.00  0.00     0.043 A 
HETATM   30  C   UNL     1       0.465   8.502 -25.886  1.00  0.00     0.003 A 
HETATM   31  C   UNL     1       1.456   8.625 -26.857  1.00  0.00     0.001 A 
HETATM   32  C   UNL     1       1.201   8.229 -28.174  1.00  0.00     0.011 A 
ENDBRANCH  24  26
ENDBRANCH  20  23
ENDBRANCH   2  19
TORSDOF 6
ENDMDL
MODEL 3
REMARK VINA RESULT:      -8.9      1.754      2.264
REMARK  6 active torsions:
REMARK  status: ('A' for Active; 'I' for Inactive)
REMARK    1  A    between atoms: O_2  and  C_3 
REMARK    2  A    between atoms: C_6  and  C_7 
REMARK    3  A    between atoms: C_11  and  C_12 
REMARK       I    between atoms: C_12  and  N_13 
REMARK    4  A    between atoms: N_13  and  N_14 
REMARK       I    between atoms: N_14  and  C_15 
REMARK    5  A    between atoms: C_15  and  C_16 
REMARK    6  A    between atoms: C_17  and  C_18 
ROOT
HETATM    1  C   UNL     1      -1.385   5.069 -31.174  1.00  0.00     0.288 C 
HETATM    2  N   UNL     1      -2.580   4.387 -31.070  1.00  0.00    -0.262 N 
HETATM    3  O   UNL     1      -0.569   4.815 -32.061  1.00  0.00    -0.264 OA
HETATM    4  H   UNL     1      -3.172   4.445 -30.245  1.00  0.00     0.190 HD
ENDROOT
BRANCH   1   5
HETATM    5  C   UNL     1      -1.153   6.078 -30.179  1.00  0.00     0.121 A 
HETATM    6  N   UNL     1      -2.110   6.998 -29.857  1.00  0.00    -0.272 N 
HETATM    7  N   UNL     1      -1.734   7.880 -28.921  1.00  0.00    -0.174 NA
HETATM    8  H   UNL     1      -3.042   7.073 -30.254  1.00  0.00     0.189 HD
HETATM    9  C   UNL     1      -0.483   7.518 -28.591  1.00  0.00     0.089 A 
HETATM   10  C   UNL     1      -0.082   6.390 -29.364  1.00  0.00     0.071 A 
BRANCH   9  11
HETATM   11  C   UNL     1       0.286   8.247 -27.576  1.00  0.00    -0.005 A 
HETATM   12  C   UNL     1       1.309   7.625 -26.850  1.00  0.00     0.016 A 
HETATM   13  C   UNL     1       2.036   8.340 -25.891  1.00  0.00     0.037 A 
HETATM   14  C   UNL     1       1.762   9.686 -25.642  1.00  0.00     0.068 A 
HETATM   15  C   UNL     1       0.740  10.313 -26.352  1.00  0.00     0.037 A 
HETATM   16  C   UNL     1       0.009   9.596 -27.309  1.00  0.00     0.016 A 
BRANCH  14  17
HETATM   17  O   UNL     1       2.552  10.265 -24.688  1.00  0.00    -0.356 OA
HETATM   18  C   UNL     1       3.696   9.532 -24.271  1.00  0.00     0.210 C 
ENDBRANCH  14  17
ENDBRANCH   9  11
ENDBRANCH   1   5
BRANCH   2  19
HETATM   19  N   UNL     1      -2.780   3.269 -31.893  1.00  0.00    -0.267 N 
HETATM   20  C   UNL     1      -3.693   2.322 -31.485  1.00  0.00     0.240 C 
HETATM   21  O   UNL     1      -4.443   2.476 -30.527  1.00  0.00    -0.271 OA
HETATM   22  H   UNL     1      -2.052   3.073 -32.577  1.00  0.00     0.190 HD
BRANCH  20  23
HETATM   23  C   UNL     1      -3.678   1.066 -32.281  1.00  0.00     0.089 A 
HETATM   24  C   UNL     1      -4.503  -0.127 -31.827  1.00  0.00     0.036 A 
HETATM   25  C   UNL     1      -2.994  -0.160 -31.736  1.00  0.00     0.025 A 
BRANCH  24  26
HETATM   26  C   UNL     1      -5.222  -0.972 -32.853  1.00  0.00    -0.015 A 
HETATM   27  C   UNL     1      -6.587  -0.794 -33.127  1.00  0.00     0.123 A 
HETATM   28  F   UNL     1      -7.269   0.163 -32.479  1.00  0.00    -0.206 F 
HETATM   29  C   UNL     1      -7.266  -1.575 -34.061  1.00  0.00     0.043 A 
HETATM   30  C   UNL     1      -6.585  -2.572 -34.751  1.00  0.00     0.003 A 
HETATM   31  C   UNL     1      -5.231  -2.783 -34.499  1.00  0.00     0.001 A 
HETATM   32  C   UNL     1      -4.561  -1.995 -33.556  1.00  0.00     0.011 A 
ENDBRANCH  24  26
ENDBRANCH  20  23
ENDBRANCH   2  19
TORSDOF 6
ENDMDL
MODEL 4
REMARK VINA RESULT:      -8.8      1.393      1.800
REMARK  6 active torsions:
REMARK  status: ('A' for Active; 'I' for Inactive)
REMARK    1  A    between atoms: O_2  and  C_3 
REMARK    2  A    between atoms: C_6  and  C_7 
REMARK    3  A    between atoms: C_11  and  C_12 
REMARK       I    between atoms: C_12  and  N_13 
REMARK    4  A    between atoms: N_13  and  N_14 
REMARK       I    between atoms: N_14  and  C_15 
REMARK    5  A    between atoms: C_15  and  C_16 
REMARK    6  A    between atoms: C_17  and  C_18 
ROOT
HETATM    1  C   UNL     1      -3.653   3.960 -32.475  1.00  0.00     0.288 C 
HETATM    2  N   UNL     1      -3.959   2.808 -31.780  1.00  0.00    -0.262 N 
HETATM    3  O   UNL     1      -4.186   4.228 -33.552  1.00  0.00    -0.264 OA
HETATM    4  H   UNL     1      -3.399   2.476 -30.999  1.00  0.00     0.190 HD
ENDROOT
BRANCH   1   5
HETATM    5  C   UNL     1      -2.670   4.813 -31.868  1.00  0.00     0.121 A 
HETATM    6  N   UNL     1      -1.414   4.940 -32.389  1.00  0.00    -0.272 N 
HETATM    7  N   UNL     1      -0.611   5.762 -31.698  1.00  0.00    -0.174 NA
HETATM    8  H   UNL     1      -1.048   4.479 -33.216  1.00  0.00     0.189 HD
HETATM    9  C   UNL     1      -1.373   6.217 -30.690  1.00  0.00     0.089 A 
HETATM   10  C   UNL     1      -2.674   5.640 -30.761  1.00  0.00     0.071 A 
BRANCH   9  11
HETATM   11  C   UNL     1      -0.850   7.164 -29.698  1.00  0.00    -0.005 A 
HETATM   12  C   UNL     1       0.447   7.041 -29.185  1.00  0.00     0.016 A 
HETATM   13  C   UNL     1       0.931   7.960 -28.246  1.00  0.00     0.037 A 
HETATM   14  C   UNL     1       0.134   9.018 -27.804  1.00  0.00     0.068 A 
HETATM   15  C   UNL     1      -1.161   9.145 -28.302  1.00  0.00     0.037 A 
HETATM   16  C   UNL     1      -1.647   8.223 -29.239  1.00  0.00     0.016 A 
BRANCH  14  17
HETATM   17  O   UNL     1       0.732   9.845 -26.894  1.00  0.00    -0.356 OA
HETATM   18  C   UNL     1       1.566   9.230 -25.920  1.00  0.00     0.210 C 
ENDBRANCH  14  17
ENDBRANCH   9  11
ENDBRANCH   1   5
BRANCH   2  19
HETATM   19  N   UNL     1      -4.766   1.848 -32.409  1.00  0.00    -0.267 N 
HETATM   20  C   UNL     1      -4.922   0.629 -31.789  1.00  0.00     0.240 C 
HETATM   21  O   UNL     1      -4.519   0.392 -30.655  1.00  0.00    -0.271 OA
HETATM   22  H   UNL     1      -4.950   1.990 -33.401  1.00  0.00     0.190 HD
BRANCH  20  23
HETATM   23  C   UNL     1      -5.591  -0.407 -32.621  1.00  0.00     0.089 A 
HETATM   24  C   UNL     1      -4.871  -0.992 -33.825  1.00  0.00     0.036 A 
HETATM   25  C   UNL     1      -6.052  -0.068 -34.014  1.00  0.00     0.025 A 
BRANCH  24  26
HETATM   26  C   UNL     1      -5.002  -2.466 -34.129  1.00  0.00    -0.015 A 
HETATM   27  C   UNL     1      -4.112  -3.410 -33.594  1.00  0.00     0.123 A 
HETATM   28  F   UNL     1      -3.132  -3.000 -32.774  1.00  0.00    -0.206 F 
HETATM   29  C   UNL     1      -4.213  -4.771 -33.877  1.00  0.00     0.043 A 
HETATM   30  C   UNL     1      -5.220  -5.227 -34.721  1.00  0.00     0.003 A 
HETATM   31  C   UNL     1      -6.117  -4.317 -35.277  1.00  0.00     0.001 A 
HETATM   32  C   UNL     1      -6.003  -2.953 -34.988  1.00  0.00     0.011 A 
ENDBRANCH  24  26
ENDBRANCH  20  23
ENDBRANCH   2  19
TORSDOF 6
ENDMDL
MODEL 5
REMARK VINA RESULT:      -8.6      3.134     11.489
REMARK  6 active torsions:
REMARK  status: ('A' for Active; 'I' for Inactive)
REMARK    1  A    between atoms: O_2  and  C_3 
REMARK    2  A    between atoms: C_6  and  C_7 
REMARK    3  A    between atoms: C_11  and  C_12 
REMARK       I    between atoms: C_12  and  N_13 
REMARK    4  A    between atoms: N_13  and  N_14 
REMARK       I    between atoms: N_14  and  C_15 
REMARK    5  A    between atoms: C_15  and  C_16 
REMARK    6  A    between atoms: C_17  and  C_18 
ROOT
HETATM    1  C   UNL     1      -3.415   4.389 -31.377  1.00  0.00     0.288 C 
HETATM    2  N   UNL     1      -2.039   4.488 -31.360  1.00  0.00    -0.262 N 
HETATM    3  O   UNL     1      -4.136   5.369 -31.185  1.00  0.00    -0.264 OA
HETATM    4  H   UNL     1      -1.432   3.672 -31.323  1.00  0.00     0.190 HD
ENDROOT
BRANCH   1   5
HETATM    5  C   UNL     1      -3.944   3.077 -31.618  1.00  0.00     0.121 A 
HETATM    6  N   UNL     1      -4.668   2.412 -30.668  1.00  0.00    -0.272 N 
HETATM    7  N   UNL     1      -5.079   1.193 -31.042  1.00  0.00    -0.174 NA
HETATM    8  H   UNL     1      -4.906   2.746 -29.740  1.00  0.00     0.189 HD
HETATM    9  C   UNL     1      -4.628   1.050 -32.300  1.00  0.00     0.089 A 
HETATM   10  C   UNL     1      -3.908   2.214 -32.696  1.00  0.00     0.071 A 
BRANCH   9  11
HETATM   11  C   UNL     1      -4.883  -0.170 -33.073  1.00  0.00    -0.005 A 
HETATM   12  C   UNL     1      -4.020  -1.271 -33.007  1.00  0.00     0.016 A 
HETATM   13  C   UNL     1      -4.286  -2.430 -33.747  1.00  0.00     0.037 A 
HETATM   14  C   UNL     1      -5.416  -2.515 -34.562  1.00  0.00     0.068 A 
HETATM   15  C   UNL     1      -6.277  -1.423 -34.642  1.00  0.00     0.037 A 
HETATM   16  C   UNL     1      -6.010  -0.261 -33.905  1.00  0.00     0.016 A 
BRANCH  14  17
HETATM   17  O   UNL     1      -5.559  -3.704 -35.221  1.00  0.00    -0.356 OA
HETATM   18  C   UNL     1      -6.717  -4.471 -34.917  1.00  0.00     0.210 C 
ENDBRANCH  14  17
ENDBRANCH   9  11
ENDBRANCH   1   5
BRANCH   2  19
HETATM   19  N   UNL     1      -1.465   5.699 -30.945  1.00  0.00    -0.267 N 
HETATM   20  C   UNL     1      -0.309   5.644 -30.199  1.00  0.00     0.240 C 
HETATM   21  O   UNL     1       0.323   4.609 -30.008  1.00  0.00    -0.271 OA
HETATM   22  H   UNL     1      -2.070   6.517 -30.963  1.00  0.00     0.190 HD
BRANCH  20  23
HETATM   23  C   UNL     1       0.105   6.942 -29.603  1.00  0.00     0.089 A 
HETATM   24  C   UNL     1      -0.547   7.427 -28.319  1.00  0.00     0.036 A 
HETATM   25  C   UNL     1      -0.838   8.116 -29.633  1.00  0.00     0.025 A 
BRANCH  24  26
HETATM   26  C   UNL     1       0.293   8.115 -27.269  1.00  0.00    -0.015 A 
HETATM   27  C   UNL     1       0.004   9.418 -26.834  1.00  0.00     0.123 A 
HETATM   28  F   UNL     1      -1.055  10.064 -27.345  1.00  0.00    -0.206 F 
HETATM   29  C   UNL     1       0.779  10.071 -25.875  1.00  0.00     0.043 A 
HETATM   30  C   UNL     1       1.882   9.427 -25.325  1.00  0.00     0.003 A 
HETATM   31  C   UNL     1       2.203   8.136 -25.739  1.00  0.00     0.001 A 
HETATM   32  C   UNL     1       1.420   7.493 -26.704  1.00  0.00     0.011 A 
ENDBRANCH  24  26
ENDBRANCH  20  23
ENDBRANCH   2  19
TORSDOF 6
ENDMDL
MODEL 6
REMARK VINA RESULT:      -8.2      2.975     11.234
REMARK  6 active torsions:
REMARK  status: ('A' for Active; 'I' for Inactive)
REMARK    1  A    between atoms: O_2  and  C_3 
REMARK    2  A    between atoms: C_6  and  C_7 
REMARK    3  A    between atoms: C_11  and  C_12 
REMARK       I    between atoms: C_12  and  N_13 
REMARK    4  A    between atoms: N_13  and  N_14 
REMARK       I    between atoms: N_14  and  C_15 
REMARK    5  A    between atoms: C_15  and  C_16 
REMARK    6  A    between atoms: C_17  and  C_18 
ROOT
HETATM    1  C   UNL     1      -5.295   4.032 -30.762  1.00  0.00     0.288 C 
HETATM    2  N   UNL     1      -4.148   4.786 -30.908  1.00  0.00    -0.262 N 
HETATM    3  O   UNL     1      -6.088   4.231 -29.841  1.00  0.00    -0.264 OA
HETATM    4  H   UNL     1      -3.394   4.518 -31.536  1.00  0.00     0.190 HD
ENDROOT
BRANCH   1   5
HETATM    5  C   UNL     1      -5.493   3.000 -31.741  1.00  0.00     0.121 A 
HETATM    6  N   UNL     1      -6.023   3.274 -32.971  1.00  0.00    -0.272 N 
HETATM    7  N   UNL     1      -6.157   2.202 -33.764  1.00  0.00    -0.174 NA
HETATM    8  H   UNL     1      -6.318   4.181 -33.319  1.00  0.00     0.189 HD
HETATM    9  C   UNL     1      -5.676   1.178 -33.040  1.00  0.00     0.089 A 
HETATM   10  C   UNL     1      -5.252   1.641 -31.761  1.00  0.00     0.071 A 
BRANCH   9  11
HETATM   11  C   UNL     1      -5.642  -0.189 -33.571  1.00  0.00    -0.005 A 
HETATM   12  C   UNL     1      -4.491  -0.981 -33.478  1.00  0.00     0.016 A 
HETATM   13  C   UNL     1      -4.482  -2.286 -33.984  1.00  0.00     0.037 A 
HETATM   14  C   UNL     1      -5.618  -2.828 -34.587  1.00  0.00     0.068 A 
HETATM   15  C   UNL     1      -6.767  -2.047 -34.693  1.00  0.00     0.037 A 
HETATM   16  C   UNL     1      -6.776  -0.739 -34.190  1.00  0.00     0.016 A 
BRANCH  14  17
HETATM   17  O   UNL     1      -5.475  -4.114 -35.029  1.00  0.00    -0.356 OA
HETATM   18  C   UNL     1      -4.675  -4.980 -34.234  1.00  0.00     0.210 C 
ENDBRANCH  14  17
ENDBRANCH   9  11
ENDBRANCH   1   5
BRANCH   2  19
HETATM   19  N   UNL     1      -3.805   5.678 -29.882  1.00  0.00    -0.267 N 
HETATM   20  C   UNL     1      -3.141   6.834 -30.226  1.00  0.00     0.240 C 
HETATM   21  O   UNL     1      -2.968   7.193 -31.387  1.00  0.00    -0.271 OA
HETATM   22  H   UNL     1      -3.801   5.302 -28.936  1.00  0.00     0.190 HD
BRANCH  20  23
HETATM   23  C   UNL     1      -2.608   7.608 -29.073  1.00  0.00     0.089 A 
HETATM   24  C   UNL     1      -1.671   6.939 -28.081  1.00  0.00     0.036 A 
HETATM   25  C   UNL     1      -3.083   7.298 -27.678  1.00  0.00     0.025 A 
BRANCH  24  26
HETATM   26  C   UNL     1      -0.500   7.712 -27.522  1.00  0.00    -0.015 A 
HETATM   27  C   UNL     1       0.633   7.997 -28.300  1.00  0.00     0.123 A 
HETATM   28  F   UNL     1       0.672   7.593 -29.579  1.00  0.00    -0.206 F 
HETATM   29  C   UNL     1       1.726   8.698 -27.793  1.00  0.00     0.043 A 
HETATM   30  C   UNL     1       1.714   9.133 -26.472  1.00  0.00     0.003 A 
HETATM   31  C   UNL     1       0.609   8.860 -25.668  1.00  0.00     0.001 A 
HETATM   32  C   UNL     1      -0.480   8.153 -26.187  1.00  0.00     0.011 A 
ENDBRANCH  24  26
ENDBRANCH  20  23
ENDBRANCH   2  19
TORSDOF 6
ENDMDL
MODEL 7
REMARK VINA RESULT:      -8.0      3.325     11.319
REMARK  6 active torsions:
REMARK  status: ('A' for Active; 'I' for Inactive)
REMARK    1  A    between atoms: O_2  and  C_3 
REMARK    2  A    between atoms: C_6  and  C_7 
REMARK    3  A    between atoms: C_11  and  C_12 
REMARK       I    between atoms: C_12  and  N_13 
REMARK    4  A    between atoms: N_13  and  N_14 
REMARK       I    between atoms: N_14  and  C_15 
REMARK    5  A    between atoms: C_15  and  C_16 
REMARK    6  A    between atoms: C_17  and  C_18 
ROOT
HETATM    1  C   UNL     1      -5.064   5.738 -32.879  1.00  0.00     0.288 C 
HETATM    2  N   UNL     1      -3.695   5.784 -33.045  1.00  0.00    -0.262 N 
HETATM    3  O   UNL     1      -5.693   6.694 -32.423  1.00  0.00    -0.264 OA
HETATM    4  H   UNL     1      -3.139   4.953 -33.234  1.00  0.00     0.190 HD
ENDROOT
BRANCH   1   5
HETATM    5  C   UNL     1      -5.699   4.507 -33.258  1.00  0.00     0.121 A 
HETATM    6  N   UNL     1      -7.014   4.465 -33.628  1.00  0.00    -0.272 N 
HETATM    7  N   UNL     1      -7.460   3.240 -33.939  1.00  0.00    -0.174 NA
HETATM    8  H   UNL     1      -7.657   5.248 -33.679  1.00  0.00     0.189 HD
HETATM    9  C   UNL     1      -6.392   2.439 -33.791  1.00  0.00     0.089 A 
HETATM   10  C   UNL     1      -5.266   3.200 -33.361  1.00  0.00     0.071 A 
BRANCH   9  11
HETATM   11  C   UNL     1      -6.472   0.997 -34.049  1.00  0.00    -0.005 A 
HETATM   12  C   UNL     1      -7.446   0.460 -34.898  1.00  0.00     0.016 A 
HETATM   13  C   UNL     1      -7.500  -0.918 -35.138  1.00  0.00     0.037 A 
HETATM   14  C   UNL     1      -6.584  -1.785 -34.541  1.00  0.00     0.068 A 
HETATM   15  C   UNL     1      -5.615  -1.264 -33.687  1.00  0.00     0.037 A 
HETATM   16  C   UNL     1      -5.563   0.116 -33.443  1.00  0.00     0.016 A 
BRANCH  14  17
HETATM   17  O   UNL     1      -6.744  -3.103 -34.867  1.00  0.00    -0.356 OA
HETATM   18  C   UNL     1      -5.587  -3.926 -34.798  1.00  0.00     0.210 C 
ENDBRANCH  14  17
ENDBRANCH   9  11
ENDBRANCH   1   5
BRANCH   2  19
HETATM   19  N   UNL     1      -2.998   6.883 -32.521  1.00  0.00    -0.267 N 
HETATM   20  C   UNL     1      -1.841   6.637 -31.816  1.00  0.00     0.240 C 
HETATM   21  O   UNL     1      -1.311   5.532 -31.752  1.00  0.00    -0.271 OA
HETATM   22  H   UNL     1      -3.521   7.752 -32.436  1.00  0.00     0.190 HD
BRANCH  20  23
HETATM   23  C   UNL     1      -1.293   7.818 -31.097  1.00  0.00     0.089 A 
HETATM   24  C   UNL     1      -1.694   8.079 -29.655  1.00  0.00     0.036 A 
HETATM   25  C   UNL     1      -2.193   8.978 -30.764  1.00  0.00     0.025 A 
BRANCH  24  26
HETATM   26  C   UNL     1      -0.663   8.584 -28.673  1.00  0.00    -0.015 A 
HETATM   27  C   UNL     1      -0.921   9.677 -27.831  1.00  0.00     0.123 A 
HETATM   28  F   UNL     1      -2.120  10.279 -27.882  1.00  0.00    -0.206 F 
HETATM   29  C   UNL     1       0.025  10.162 -26.930  1.00  0.00     0.043 A 
HETATM   30  C   UNL     1       1.276   9.558 -26.852  1.00  0.00     0.003 A 
HETATM   31  C   UNL     1       1.570   8.476 -27.678  1.00  0.00     0.001 A 
HETATM   32  C   UNL     1       0.613   8.000 -28.581  1.00  0.00     0.011 A 
ENDBRANCH  24  26
ENDBRANCH  20  23
ENDBRANCH   2  19
TORSDOF 6
ENDMDL
MODEL 8
REMARK VINA RESULT:      -7.9      4.882     11.788
REMARK  6 active torsions:
REMARK  status: ('A' for Active; 'I' for Inactive)
REMARK    1  A    between atoms: O_2  and  C_3 
REMARK    2  A    between atoms: C_6  and  C_7 
REMARK    3  A    between atoms: C_11  and  C_12 
REMARK       I    between atoms: C_12  and  N_13 
REMARK    4  A    between atoms: N_13  and  N_14 
REMARK       I    between atoms: N_14  and  C_15 
REMARK    5  A    between atoms: C_15  and  C_16 
REMARK    6  A    between atoms: C_17  and  C_18 
ROOT
HETATM    1  C   UNL     1      -7.245   1.625 -32.808  1.00  0.00     0.288 C 
HETATM    2  N   UNL     1      -6.645   2.860 -32.943  1.00  0.00    -0.262 N 
HETATM    3  O   UNL     1      -6.636   0.656 -32.353  1.00  0.00    -0.264 OA
HETATM    4  H   UNL     1      -7.059   3.613 -33.486  1.00  0.00     0.190 HD
ENDROOT
BRANCH   1   5
HETATM    5  C   UNL     1      -8.611   1.544 -33.241  1.00  0.00     0.121 A 
HETATM    6  N   UNL     1      -8.936   1.194 -34.522  1.00  0.00    -0.272 N 
HETATM    7  N   UNL     1     -10.252   1.178 -34.772  1.00  0.00    -0.174 NA
HETATM    8  H   UNL     1      -8.292   0.962 -35.272  1.00  0.00     0.189 HD
HETATM    9  C   UNL     1     -10.827   1.509 -33.604  1.00  0.00     0.089 A 
HETATM   10  C   UNL     1      -9.826   1.749 -32.618  1.00  0.00     0.071 A 
BRANCH   9  11
HETATM   11  C   UNL     1     -12.285   1.595 -33.462  1.00  0.00    -0.005 A 
HETATM   12  C   UNL     1     -13.122   0.558 -33.891  1.00  0.00     0.016 A 
HETATM   13  C   UNL     1     -14.511   0.656 -33.739  1.00  0.00     0.037 A 
HETATM   14  C   UNL     1     -15.089   1.784 -33.154  1.00  0.00     0.068 A 
HETATM   15  C   UNL     1     -14.266   2.825 -32.731  1.00  0.00     0.037 A 
HETATM   16  C   UNL     1     -12.876   2.730 -32.887  1.00  0.00     0.016 A 
BRANCH  14  17
HETATM   17  O   UNL     1     -16.452   1.745 -33.059  1.00  0.00    -0.356 OA
HETATM   18  C   UNL     1     -17.046   2.527 -32.030  1.00  0.00     0.210 C 
ENDBRANCH  14  17
ENDBRANCH   9  11
ENDBRANCH   1   5
BRANCH   2  19
HETATM   19  N   UNL     1      -5.264   2.956 -32.714  1.00  0.00    -0.267 N 
HETATM   20  C   UNL     1      -4.840   3.639 -31.596  1.00  0.00     0.240 C 
HETATM   21  O   UNL     1      -5.600   4.034 -30.718  1.00  0.00    -0.271 OA
HETATM   22  H   UNL     1      -4.658   2.778 -33.513  1.00  0.00     0.190 HD
BRANCH  20  23
HETATM   23  C   UNL     1      -3.376   3.898 -31.548  1.00  0.00     0.089 A 
HETATM   24  C   UNL     1      -2.828   5.232 -32.026  1.00  0.00     0.036 A 
HETATM   25  C   UNL     1      -2.585   3.973 -32.826  1.00  0.00     0.025 A 
BRANCH  24  26
HETATM   26  C   UNL     1      -1.693   5.886 -31.273  1.00  0.00    -0.015 A 
HETATM   27  C   UNL     1      -1.925   6.694 -30.149  1.00  0.00     0.123 A 
HETATM   28  F   UNL     1      -3.182   6.876 -29.716  1.00  0.00    -0.206 F 
HETATM   29  C   UNL     1      -0.889   7.315 -29.452  1.00  0.00     0.043 A 
HETATM   30  C   UNL     1       0.425   7.143 -29.875  1.00  0.00     0.003 A 
HETATM   31  C   UNL     1       0.692   6.354 -30.992  1.00  0.00     0.001 A 
HETATM   32  C   UNL     1      -0.357   5.740 -31.684  1.00  0.00     0.011 A 
ENDBRANCH  24  26
ENDBRANCH  20  23
ENDBRANCH   2  19
TORSDOF 6
ENDMDL
MODEL 9
REMARK VINA RESULT:      -7.9      8.790     12.021
REMARK  6 active torsions:
REMARK  status: ('A' for Active; 'I' for Inactive)
REMARK    1  A    between atoms: O_2  and  C_3 
REMARK    2  A    between atoms: C_6  and  C_7 
REMARK    3  A    between atoms: C_11  and  C_12 
REMARK       I    between atoms: C_12  and  N_13 
REMARK    4  A    between atoms: N_13  and  N_14 
REMARK       I    between atoms: N_14  and  C_15 
REMARK    5  A    between atoms: C_15  and  C_16 
REMARK    6  A    between atoms: C_17  and  C_18 
ROOT
HETATM    1  C   UNL     1      -9.761   3.002 -34.285  1.00  0.00     0.288 C 
HETATM    2  N   UNL     1     -10.737   2.981 -35.260  1.00  0.00    -0.262 N 
HETATM    3  O   UNL     1      -9.481   4.032 -33.671  1.00  0.00    -0.264 OA
HETATM    4  H   UNL     1     -10.850   2.202 -35.905  1.00  0.00     0.190 HD
ENDROOT
BRANCH   1   5
HETATM    5  C   UNL     1      -9.092   1.754 -34.044  1.00  0.00     0.121 A 
HETATM    6  N   UNL     1      -9.609   0.818 -33.194  1.00  0.00    -0.272 N 
HETATM    7  N   UNL     1      -8.858  -0.285 -33.066  1.00  0.00    -0.174 NA
HETATM    8  H   UNL     1     -10.473   0.886 -32.666  1.00  0.00     0.189 HD
HETATM    9  C   UNL     1      -7.811  -0.083 -33.883  1.00  0.00     0.089 A 
HETATM   10  C   UNL     1      -7.922   1.191 -34.514  1.00  0.00     0.071 A 
BRANCH   9  11
HETATM   11  C   UNL     1      -6.749  -1.083 -34.032  1.00  0.00    -0.005 A 
HETATM   12  C   UNL     1      -5.442  -0.831 -33.598  1.00  0.00     0.016 A 
HETATM   13  C   UNL     1      -4.444  -1.803 -33.741  1.00  0.00     0.037 A 
HETATM   14  C   UNL     1      -4.730  -3.042 -34.316  1.00  0.00     0.068 A 
HETATM   15  C   UNL     1      -6.024  -3.302 -34.760  1.00  0.00     0.037 A 
HETATM   16  C   UNL     1      -7.023  -2.328 -34.620  1.00  0.00     0.016 A 
BRANCH  14  17
HETATM   17  O   UNL     1      -3.667  -3.900 -34.388  1.00  0.00    -0.356 OA
HETATM   18  C   UNL     1      -3.756  -5.096 -33.624  1.00  0.00     0.210 C 
ENDBRANCH  14  17
ENDBRANCH   9  11
ENDBRANCH   1   5
BRANCH   2  19
HETATM   19  N   UNL     1     -11.292   4.203 -35.670  1.00  0.00    -0.267 N 
HETATM   20  C   UNL     1     -12.569   4.505 -35.252  1.00  0.00     0.240 C 
HETATM   21  O   UNL     1     -13.183   3.839 -34.425  1.00  0.00    -0.271 OA
HETATM   22  H   UNL     1     -10.853   4.655 -36.470  1.00  0.00     0.190 HD
BRANCH  20  23
HETATM   23  C   UNL     1     -13.171   5.694 -35.912  1.00  0.00     0.089 A 
HETATM   24  C   UNL     1     -12.427   7.019 -35.906  1.00  0.00     0.036 A 
HETATM   25  C   UNL     1     -13.677   6.839 -35.077  1.00  0.00     0.025 A 
BRANCH  24  26
HETATM   26  C   UNL     1     -12.450   7.894 -37.138  1.00  0.00    -0.015 A 
HETATM   27  C   UNL     1     -11.330   8.644 -37.529  1.00  0.00     0.123 A 
HETATM   28  F   UNL     1     -10.202   8.569 -36.807  1.00  0.00    -0.206 F 
HETATM   29  C   UNL     1     -11.342   9.465 -38.656  1.00  0.00     0.043 A 
HETATM   30  C   UNL     1     -12.495   9.561 -39.427  1.00  0.00     0.003 A 
HETATM   31  C   UNL     1     -13.629   8.837 -39.064  1.00  0.00     0.001 A 
HETATM   32  C   UNL     1     -13.606   8.019 -37.929  1.00  0.00     0.011 A 
ENDBRANCH  24  26
ENDBRANCH  20  23
ENDBRANCH   2  19
TORSDOF 6
ENDMDL
MODEL 10
REMARK VINA RESULT:      -7.8      8.656     12.036
REMARK  6 active torsions:
REMARK  status: ('A' for Active; 'I' for Inactive)
REMARK    1  A    between atoms: O_2  and  C_3 
REMARK    2  A    between atoms: C_6  and  C_7 
REMARK    3  A    between atoms: C_11  and  C_12 
REMARK       I    between atoms: C_12  and  N_13 
REMARK    4  A    between atoms: N_13  and  N_14 
REMARK       I    between atoms: N_14  and  C_15 
REMARK    5  A    between atoms: C_15  and  C_16 
REMARK    6  A    between atoms: C_17  and  C_18 
ROOT
HETATM    1  C   UNL     1     -10.040   2.459 -33.576  1.00  0.00     0.288 C 
HETATM    2  N   UNL     1     -10.935   1.944 -32.661  1.00  0.00    -0.262 N 
HETATM    3  O   UNL     1     -10.299   3.462 -34.242  1.00  0.00    -0.264 OA
HETATM    4  H   UNL     1     -10.825   1.022 -32.247  1.00  0.00     0.190 HD
ENDROOT
BRANCH   1   5
HETATM    5  C   UNL     1      -8.800   1.746 -33.707  1.00  0.00     0.121 A 
HETATM    6  N   UNL     1      -7.599   2.397 -33.727  1.00  0.00    -0.272 N 
HETATM    7  N   UNL     1      -6.538   1.592 -33.868  1.00  0.00    -0.174 NA
HETATM    8  H   UNL     1      -7.448   3.399 -33.654  1.00  0.00     0.189 HD
HETATM    9  C   UNL     1      -7.053   0.352 -33.922  1.00  0.00     0.089 A 
HETATM   10  C   UNL     1      -8.474   0.409 -33.826  1.00  0.00     0.071 A 
BRANCH   9  11
HETATM   11  C   UNL     1      -6.197  -0.830 -34.070  1.00  0.00    -0.005 A 
HETATM   12  C   UNL     1      -4.902  -0.865 -33.537  1.00  0.00     0.016 A 
HETATM   13  C   UNL     1      -4.104  -2.006 -33.681  1.00  0.00     0.037 A 
HETATM   14  C   UNL     1      -4.581  -3.133 -34.354  1.00  0.00     0.068 A 
HETATM   15  C   UNL     1      -5.864  -3.106 -34.895  1.00  0.00     0.037 A 
HETATM   16  C   UNL     1      -6.663  -1.963 -34.754  1.00  0.00     0.016 A 
BRANCH  14  17
HETATM   17  O   UNL     1      -3.703  -4.179 -34.414  1.00  0.00    -0.356 OA
HETATM   18  C   UNL     1      -3.394  -4.829 -33.188  1.00  0.00     0.210 C 
ENDBRANCH  14  17
ENDBRANCH   9  11
ENDBRANCH   1   5
BRANCH   2  19
HETATM   19  N   UNL     1     -12.230   2.483 -32.625  1.00  0.00    -0.267 N 
HETATM   20  C   UNL     1     -13.261   1.721 -33.130  1.00  0.00     0.240 C 
HETATM   21  O   UNL     1     -13.131   0.549 -33.469  1.00  0.00    -0.271 OA
HETATM   22  H   UNL     1     -12.299   3.491 -32.503  1.00  0.00     0.190 HD
BRANCH  20  23
HETATM   23  C   UNL     1     -14.552   2.445 -33.271  1.00  0.00     0.089 A 
HETATM   24  C   UNL     1     -15.426   2.678 -32.049  1.00  0.00     0.036 A 
HETATM   25  C   UNL     1     -15.851   1.699 -33.119  1.00  0.00     0.025 A 
BRANCH  24  26
HETATM   26  C   UNL     1     -16.151   3.994 -31.891  1.00  0.00    -0.015 A 
HETATM   27  C   UNL     1     -17.540   4.049 -31.694  1.00  0.00     0.123 A 
HETATM   28  F   UNL     1     -18.241   2.907 -31.624  1.00  0.00    -0.206 F 
HETATM   29  C   UNL     1     -18.225   5.256 -31.560  1.00  0.00     0.043 A 
HETATM   30  C   UNL     1     -17.526   6.456 -31.625  1.00  0.00     0.003 A 
HETATM   31  C   UNL     1     -16.147   6.440 -31.827  1.00  0.00     0.001 A 
HETATM   32  C   UNL     1     -15.472   5.223 -31.964  1.00  0.00     0.011 A 
ENDBRANCH  24  26
ENDBRANCH  20  23
ENDBRANCH   2  19
TORSDOF 6
ENDMDL
