MODEL 1
REMARK VINA RESULT:      -8.0      0.000      0.000
REMARK  5 active torsions:
REMARK  status: ('A' for Active; 'I' for Inactive)
REMARK    1  A    between atoms: C_7  and  C_8 
REMARK    2  A    between atoms: N_9  and  N_10 
REMARK       I    between atoms: N_10  and  C_11 
REMARK    3  A    between atoms: C_11  and  C_12 
REMARK    4  A    between atoms: C_12  and  O_13 
REMARK    5  A    between atoms: O_13  and  C_14 
ROOT
HETATM    1  C   UNL     1      -3.943  -0.088 -33.205  1.00  0.00     0.147 C 
HETATM    2  N   UNL     1      -3.859   0.262 -31.955  1.00  0.00    -0.205 NA
ENDROOT
BRANCH   2   3
HETATM    3  N   UNL     1      -4.765  -0.167 -31.024  1.00  0.00    -0.149 NA
HETATM    4  C   UNL     1      -5.589   0.693 -30.316  1.00  0.00     0.241 C 
HETATM    5  O   UNL     1      -5.845   0.426 -29.140  1.00  0.00    -0.276 OA
HETATM    6  H   UNL     1      -4.345  -0.809 -30.353  1.00  0.00     0.158 HD
BRANCH   4   7
HETATM    7  C   UNL     1      -6.210   1.871 -31.061  1.00  0.00     0.273 C 
BRANCH   7   8
HETATM    8  O   UNL     1      -7.559   2.085 -30.664  1.00  0.00    -0.343 OA
BRANCH   8   9
HETATM    9  C   UNL     1      -8.529   1.805 -31.587  1.00  0.00     0.069 A 
HETATM   10  C   UNL     1      -8.823   0.446 -31.729  1.00  0.00     0.037 A 
HETATM   11  C   UNL     1      -9.779   0.016 -32.650  1.00  0.00     0.003 A 
HETATM   12  C   UNL     1     -10.448   0.946 -33.441  1.00  0.00     0.000 A 
HETATM   13  C   UNL     1     -10.163   2.304 -33.305  1.00  0.00     0.003 A 
HETATM   14  C   UNL     1      -9.211   2.734 -32.377  1.00  0.00     0.037 A 
ENDBRANCH   8   9
ENDBRANCH   7   8
ENDBRANCH   4   7
ENDBRANCH   2   3
BRANCH   1  15
HETATM   15  C   UNL     1      -4.925  -0.944 -33.846  1.00  0.00     0.017 A 
HETATM   16  C   UNL     1      -6.091  -0.435 -34.410  1.00  0.00     0.018 A 
HETATM   17  C   UNL     1      -6.599   0.960 -34.503  1.00  0.00     0.069 C 
HETATM   18  N   UNL     1      -6.816  -1.489 -34.900  1.00  0.00    -0.358 N 
HETATM   19  H   UNL     1      -7.715  -1.420 -35.359  1.00  0.00     0.166 HD
HETATM   20  C   UNL     1      -6.148  -2.670 -34.693  1.00  0.00     0.043 A 
HETATM   21  C   UNL     1      -4.939  -2.361 -34.065  1.00  0.00     0.004 A 
HETATM   22  C   UNL     1      -6.524  -3.978 -35.026  1.00  0.00     0.030 A 
HETATM   23  C   UNL     1      -4.046  -3.422 -33.802  1.00  0.00     0.014 A 
HETATM   24  C   UNL     1      -4.408  -4.735 -34.125  1.00  0.00     0.001 A 
HETATM   25  C   UNL     1      -5.633  -5.008 -34.722  1.00  0.00     0.002 A 
ENDBRANCH   1  15
TORSDOF 5
ENDMDL
MODEL 2
REMARK VINA RESULT:      -7.9      3.819      5.582
REMARK  5 active torsions:
REMARK  status: ('A' for Active; 'I' for Inactive)
REMARK    1  A    between atoms: C_7  and  C_8 
REMARK    2  A    between atoms: N_9  and  N_10 
REMARK       I    between atoms: N_10  and  C_11 
REMARK    3  A    between atoms: C_11  and  C_12 
REMARK    4  A    between atoms: C_12  and  O_13 
REMARK    5  A    between atoms: O_13  and  C_14 
ROOT
HETATM    1  C   UNL     1      -6.462   0.487 -31.766  1.00  0.00     0.147 C 
HETATM    2  N   UNL     1      -6.783   1.670 -32.203  1.00  0.00    -0.205 NA
ENDROOT
BRANCH   2   3
HETATM    3  N   UNL     1      -6.263   2.173 -33.364  1.00  0.00    -0.149 NA
HETATM    4  C   UNL     1      -5.496   3.327 -33.413  1.00  0.00     0.241 C 
HETATM    5  O   UNL     1      -5.621   4.074 -34.386  1.00  0.00    -0.276 OA
HETATM    6  H   UNL     1      -6.967   2.244 -34.096  1.00  0.00     0.158 HD
BRANCH   4   7
HETATM    7  C   UNL     1      -4.472   3.558 -32.306  1.00  0.00     0.273 C 
BRANCH   7   8
HETATM    8  O   UNL     1      -3.150   3.288 -32.756  1.00  0.00    -0.343 OA
BRANCH   8   9
HETATM    9  C   UNL     1      -2.358   4.368 -33.038  1.00  0.00     0.069 A 
HETATM   10  C   UNL     1      -1.685   4.899 -31.935  1.00  0.00     0.037 A 
HETATM   11  C   UNL     1      -0.858   6.014 -32.075  1.00  0.00     0.003 A 
HETATM   12  C   UNL     1      -0.702   6.610 -33.323  1.00  0.00     0.000 A 
HETATM   13  C   UNL     1      -1.368   6.086 -34.430  1.00  0.00     0.003 A 
HETATM   14  C   UNL     1      -2.190   4.964 -34.290  1.00  0.00     0.037 A 
ENDBRANCH   8   9
ENDBRANCH   7   8
ENDBRANCH   4   7
ENDBRANCH   2   3
BRANCH   1  15
HETATM   15  C   UNL     1      -5.565  -0.489 -32.357  1.00  0.00     0.017 A 
HETATM   16  C   UNL     1      -4.222  -0.568 -31.999  1.00  0.00     0.018 A 
HETATM   17  C   UNL     1      -3.424   0.229 -31.029  1.00  0.00     0.069 C 
HETATM   18  N   UNL     1      -3.644  -1.558 -32.750  1.00  0.00    -0.358 N 
HETATM   19  H   UNL     1      -2.671  -1.833 -32.709  1.00  0.00     0.166 HD
HETATM   20  C   UNL     1      -4.574  -2.144 -33.572  1.00  0.00     0.043 A 
HETATM   21  C   UNL     1      -5.800  -1.521 -33.325  1.00  0.00     0.004 A 
HETATM   22  C   UNL     1      -4.416  -3.180 -34.501  1.00  0.00     0.030 A 
HETATM   23  C   UNL     1      -6.931  -2.001 -34.018  1.00  0.00     0.014 A 
HETATM   24  C   UNL     1      -6.792  -3.034 -34.953  1.00  0.00     0.001 A 
HETATM   25  C   UNL     1      -5.549  -3.609 -35.194  1.00  0.00     0.002 A 
ENDBRANCH   1  15
TORSDOF 5
ENDMDL
MODEL 3
REMARK VINA RESULT:      -7.8      2.438      3.990
REMARK  5 active torsions:
REMARK  status: ('A' for Active; 'I' for Inactive)
REMARK    1  A    between atoms: C_7  and  C_8 
REMARK    2  A    between atoms: N_9  and  N_10 
REMARK       I    between atoms: N_10  and  C_11 
REMARK    3  A    between atoms: C_11  and  C_12 
REMARK    4  A    between atoms: C_12  and  O_13 
REMARK    5  A    between atoms: O_13  and  C_14 
ROOT
HETATM    1  C   UNL     1      -6.255   0.390 -33.903  1.00  0.00     0.147 C 
HETATM    2  N   UNL     1      -6.938   0.993 -32.973  1.00  0.00    -0.205 NA
ENDROOT
BRANCH   2   3
HETATM    3  N   UNL     1      -6.979   0.522 -31.690  1.00  0.00    -0.149 NA
HETATM    4  C   UNL     1      -6.255   1.087 -30.652  1.00  0.00     0.241 C 
HETATM    5  O   UNL     1      -5.788   0.340 -29.788  1.00  0.00    -0.276 OA
HETATM    6  H   UNL     1      -6.835  -0.485 -31.650  1.00  0.00     0.158 HD
BRANCH   4   7
HETATM    7  C   UNL     1      -6.157   2.607 -30.587  1.00  0.00     0.273 C 
BRANCH   7   8
HETATM    8  O   UNL     1      -4.803   3.038 -30.507  1.00  0.00    -0.343 OA
BRANCH   8   9
HETATM    9  C   UNL     1      -4.267   3.612 -31.627  1.00  0.00     0.069 A 
HETATM   10  C   UNL     1      -2.883   3.798 -31.580  1.00  0.00     0.037 A 
HETATM   11  C   UNL     1      -2.207   4.391 -32.647  1.00  0.00     0.003 A 
HETATM   12  C   UNL     1      -2.915   4.807 -33.772  1.00  0.00     0.000 A 
HETATM   13  C   UNL     1      -4.295   4.622 -33.829  1.00  0.00     0.003 A 
HETATM   14  C   UNL     1      -4.970   4.021 -32.762  1.00  0.00     0.037 A 
ENDBRANCH   8   9
ENDBRANCH   7   8
ENDBRANCH   4   7
ENDBRANCH   2   3
BRANCH   1  15
HETATM   15  C   UNL     1      -5.446  -0.810 -33.803  1.00  0.00     0.017 A 
HETATM   16  C   UNL     1      -4.173  -0.797 -33.241  1.00  0.00     0.018 A 
HETATM   17  C   UNL     1      -3.378   0.316 -32.655  1.00  0.00     0.069 C 
HETATM   18  N   UNL     1      -3.662  -2.066 -33.325  1.00  0.00    -0.358 N 
HETATM   19  H   UNL     1      -2.747  -2.353 -33.002  1.00  0.00     0.166 HD
HETATM   20  C   UNL     1      -4.573  -2.913 -33.905  1.00  0.00     0.043 A 
HETATM   21  C   UNL     1      -5.719  -2.165 -34.185  1.00  0.00     0.004 A 
HETATM   22  C   UNL     1      -4.464  -4.281 -34.188  1.00  0.00     0.030 A 
HETATM   23  C   UNL     1      -6.827  -2.844 -34.737  1.00  0.00     0.014 A 
HETATM   24  C   UNL     1      -6.734  -4.210 -35.030  1.00  0.00     0.001 A 
HETATM   25  C   UNL     1      -5.565  -4.914 -34.765  1.00  0.00     0.002 A 
ENDBRANCH   1  15
TORSDOF 5
ENDMDL
MODEL 4
REMARK VINA RESULT:      -7.7      2.334      3.692
REMARK  5 active torsions:
REMARK  status: ('A' for Active; 'I' for Inactive)
REMARK    1  A    between atoms: C_7  and  C_8 
REMARK    2  A    between atoms: N_9  and  N_10 
REMARK       I    between atoms: N_10  and  C_11 
REMARK    3  A    between atoms: C_11  and  C_12 
REMARK    4  A    between atoms: C_12  and  O_13 
REMARK    5  A    between atoms: O_13  and  C_14 
ROOT
HETATM    1  C   UNL     1      -7.131  -0.147 -35.175  1.00  0.00     0.147 C 
HETATM    2  N   UNL     1      -8.314   0.187 -34.748  1.00  0.00    -0.205 NA
ENDROOT
BRANCH   2   3
HETATM    3  N   UNL     1      -8.771  -0.198 -33.518  1.00  0.00    -0.149 NA
HETATM    4  C   UNL     1      -9.220   0.698 -32.562  1.00  0.00     0.241 C 
HETATM    5  O   UNL     1      -8.980   0.461 -31.376  1.00  0.00    -0.276 OA
HETATM    6  H   UNL     1      -8.127  -0.839 -33.057  1.00  0.00     0.158 HD
BRANCH   4   7
HETATM    7  C   UNL     1     -10.068   1.879 -33.024  1.00  0.00     0.273 C 
BRANCH   7   8
HETATM    8  O   UNL     1     -10.952   1.506 -34.074  1.00  0.00    -0.343 OA
BRANCH   8   9
HETATM    9  C   UNL     1     -12.284   1.446 -33.772  1.00  0.00     0.069 A 
HETATM   10  C   UNL     1     -12.791   2.589 -33.149  1.00  0.00     0.037 A 
HETATM   11  C   UNL     1     -14.131   2.657 -32.767  1.00  0.00     0.003 A 
HETATM   12  C   UNL     1     -14.976   1.576 -33.002  1.00  0.00     0.000 A 
HETATM   13  C   UNL     1     -14.480   0.432 -33.626  1.00  0.00     0.003 A 
HETATM   14  C   UNL     1     -13.139   0.368 -34.015  1.00  0.00     0.037 A 
ENDBRANCH   8   9
ENDBRANCH   7   8
ENDBRANCH   4   7
ENDBRANCH   2   3
BRANCH   1  15
HETATM   15  C   UNL     1      -6.110  -0.930 -34.505  1.00  0.00     0.017 A 
HETATM   16  C   UNL     1      -5.213  -0.359 -33.606  1.00  0.00     0.018 A 
HETATM   17  C   UNL     1      -5.066   1.046 -33.138  1.00  0.00     0.069 C 
HETATM   18  N   UNL     1      -4.363  -1.343 -33.176  1.00  0.00    -0.358 N 
HETATM   19  H   UNL     1      -3.601  -1.217 -32.522  1.00  0.00     0.166 HD
HETATM   20  C   UNL     1      -4.692  -2.547 -33.748  1.00  0.00     0.043 A 
HETATM   21  C   UNL     1      -5.807  -2.331 -34.561  1.00  0.00     0.004 A 
HETATM   22  C   UNL     1      -4.089  -3.801 -33.594  1.00  0.00     0.030 A 
HETATM   23  C   UNL     1      -6.369  -3.448 -35.215  1.00  0.00     0.014 A 
HETATM   24  C   UNL     1      -5.777  -4.709 -35.075  1.00  0.00     0.001 A 
HETATM   25  C   UNL     1      -4.649  -4.880 -34.282  1.00  0.00     0.002 A 
ENDBRANCH   1  15
TORSDOF 5
ENDMDL
MODEL 5
REMARK VINA RESULT:      -7.7      1.778      3.024
REMARK  5 active torsions:
REMARK  status: ('A' for Active; 'I' for Inactive)
REMARK    1  A    between atoms: C_7  and  C_8 
REMARK    2  A    between atoms: N_9  and  N_10 
REMARK       I    between atoms: N_10  and  C_11 
REMARK    3  A    between atoms: C_11  and  C_12 
REMARK    4  A    between atoms: C_12  and  O_13 
REMARK    5  A    between atoms: O_13  and  C_14 
ROOT
HETATM    1  C   UNL     1      -7.119  -0.269 -35.081  1.00  0.00     0.147 C 
HETATM    2  N   UNL     1      -8.231   0.148 -34.549  1.00  0.00    -0.205 NA
ENDROOT
BRANCH   2   3
HETATM    3  N   UNL     1      -8.559  -0.134 -33.252  1.00  0.00    -0.149 NA
HETATM    4  C   UNL     1      -8.426   0.781 -32.220  1.00  0.00     0.241 C 
HETATM    5  O   UNL     1      -8.078   0.369 -31.111  1.00  0.00    -0.276 OA
HETATM    6  H   UNL     1      -8.146  -1.010 -32.938  1.00  0.00     0.158 HD
BRANCH   4   7
HETATM    7  C   UNL     1      -8.810   2.233 -32.492  1.00  0.00     0.273 C 
BRANCH   7   8
HETATM    8  O   UNL     1     -10.215   2.427 -32.388  1.00  0.00    -0.343 OA
BRANCH   8   9
HETATM    9  C   UNL     1     -10.900   2.639 -33.554  1.00  0.00     0.069 A 
HETATM   10  C   UNL     1     -11.733   1.585 -33.937  1.00  0.00     0.037 A 
HETATM   11  C   UNL     1     -12.476   1.658 -35.116  1.00  0.00     0.003 A 
HETATM   12  C   UNL     1     -12.387   2.788 -35.924  1.00  0.00     0.000 A 
HETATM   13  C   UNL     1     -11.560   3.845 -35.548  1.00  0.00     0.003 A 
HETATM   14  C   UNL     1     -10.822   3.774 -34.363  1.00  0.00     0.037 A 
ENDBRANCH   8   9
ENDBRANCH   7   8
ENDBRANCH   4   7
ENDBRANCH   2   3
BRANCH   1  15
HETATM   15  C   UNL     1      -6.059  -1.054 -34.476  1.00  0.00     0.017 A 
HETATM   16  C   UNL     1      -5.095  -0.481 -33.652  1.00  0.00     0.018 A 
HETATM   17  C   UNL     1      -4.901   0.928 -33.213  1.00  0.00     0.069 C 
HETATM   18  N   UNL     1      -4.226  -1.469 -33.270  1.00  0.00    -0.358 N 
HETATM   19  H   UNL     1      -3.417  -1.342 -32.675  1.00  0.00     0.166 HD
HETATM   20  C   UNL     1      -4.606  -2.676 -33.802  1.00  0.00     0.043 A 
HETATM   21  C   UNL     1      -5.775  -2.459 -34.535  1.00  0.00     0.004 A 
HETATM   22  C   UNL     1      -4.006  -3.935 -33.675  1.00  0.00     0.030 A 
HETATM   23  C   UNL     1      -6.393  -3.578 -35.132  1.00  0.00     0.014 A 
HETATM   24  C   UNL     1      -5.805  -4.843 -35.019  1.00  0.00     0.001 A 
HETATM   25  C   UNL     1      -4.624  -5.016 -34.306  1.00  0.00     0.002 A 
ENDBRANCH   1  15
TORSDOF 5
ENDMDL
MODEL 6
REMARK VINA RESULT:      -7.6      3.589      6.601
REMARK  5 active torsions:
REMARK  status: ('A' for Active; 'I' for Inactive)
REMARK    1  A    between atoms: C_7  and  C_8 
REMARK    2  A    between atoms: N_9  and  N_10 
REMARK       I    between atoms: N_10  and  C_11 
REMARK    3  A    between atoms: C_11  and  C_12 
REMARK    4  A    between atoms: C_12  and  O_13 
REMARK    5  A    between atoms: O_13  and  C_14 
ROOT
HETATM    1  C   UNL     1      -4.921   2.709 -31.368  1.00  0.00     0.147 C 
HETATM    2  N   UNL     1      -4.319   1.666 -30.875  1.00  0.00    -0.205 NA
ENDROOT
BRANCH   2   3
HETATM    3  N   UNL     1      -3.158   1.185 -31.413  1.00  0.00    -0.149 NA
HETATM    4  C   UNL     1      -2.955  -0.156 -31.702  1.00  0.00     0.241 C 
HETATM    5  O   UNL     1      -1.831  -0.631 -31.527  1.00  0.00    -0.276 OA
HETATM    6  H   UNL     1      -2.338   1.515 -30.906  1.00  0.00     0.158 HD
BRANCH   4   7
HETATM    7  C   UNL     1      -4.112  -0.944 -32.309  1.00  0.00     0.273 C 
BRANCH   7   8
HETATM    8  O   UNL     1      -3.643  -1.971 -33.175  1.00  0.00    -0.343 OA
BRANCH   8   9
HETATM    9  C   UNL     1      -4.590  -2.731 -33.806  1.00  0.00     0.069 A 
HETATM   10  C   UNL     1      -5.796  -2.070 -34.051  1.00  0.00     0.037 A 
HETATM   11  C   UNL     1      -6.857  -2.732 -34.670  1.00  0.00     0.003 A 
HETATM   12  C   UNL     1      -6.719  -4.065 -35.046  1.00  0.00     0.000 A 
HETATM   13  C   UNL     1      -5.519  -4.731 -34.808  1.00  0.00     0.003 A 
HETATM   14  C   UNL     1      -4.453  -4.065 -34.194  1.00  0.00     0.037 A 
ENDBRANCH   8   9
ENDBRANCH   7   8
ENDBRANCH   4   7
ENDBRANCH   2   3
BRANCH   1  15
HETATM   15  C   UNL     1      -4.534   3.535 -32.497  1.00  0.00     0.017 A 
HETATM   16  C   UNL     1      -5.386   3.759 -33.574  1.00  0.00     0.018 A 
HETATM   17  C   UNL     1      -6.767   3.273 -33.840  1.00  0.00     0.069 C 
HETATM   18  N   UNL     1      -4.722   4.543 -34.480  1.00  0.00    -0.358 N 
HETATM   19  H   UNL     1      -5.094   4.859 -35.367  1.00  0.00     0.166 HD
HETATM   20  C   UNL     1      -3.469   4.857 -34.018  1.00  0.00     0.043 A 
HETATM   21  C   UNL     1      -3.330   4.270 -32.758  1.00  0.00     0.004 A 
HETATM   22  C   UNL     1      -2.462   5.623 -34.619  1.00  0.00     0.030 A 
HETATM   23  C   UNL     1      -2.131   4.507 -32.051  1.00  0.00     0.014 A 
HETATM   24  C   UNL     1      -1.113   5.267 -32.639  1.00  0.00     0.001 A 
HETATM   25  C   UNL     1      -1.275   5.810 -33.908  1.00  0.00     0.002 A 
ENDBRANCH   1  15
TORSDOF 5
ENDMDL
MODEL 7
REMARK VINA RESULT:      -7.6      1.994      5.324
REMARK  5 active torsions:
REMARK  status: ('A' for Active; 'I' for Inactive)
REMARK    1  A    between atoms: C_7  and  C_8 
REMARK    2  A    between atoms: N_9  and  N_10 
REMARK       I    between atoms: N_10  and  C_11 
REMARK    3  A    between atoms: C_11  and  C_12 
REMARK    4  A    between atoms: C_12  and  O_13 
REMARK    5  A    between atoms: O_13  and  C_14 
ROOT
HETATM    1  C   UNL     1      -4.763   3.001 -32.710  1.00  0.00     0.147 C 
HETATM    2  N   UNL     1      -3.538   2.628 -32.481  1.00  0.00    -0.205 NA
ENDROOT
BRANCH   2   3
HETATM    3  N   UNL     1      -3.241   1.650 -31.572  1.00  0.00    -0.149 NA
HETATM    4  C   UNL     1      -3.598   0.322 -31.744  1.00  0.00     0.241 C 
HETATM    5  O   UNL     1      -3.931  -0.330 -30.751  1.00  0.00    -0.276 OA
HETATM    6  H   UNL     1      -3.507   1.917 -30.626  1.00  0.00     0.158 HD
BRANCH   4   7
HETATM    7  C   UNL     1      -3.468  -0.284 -33.138  1.00  0.00     0.273 C 
BRANCH   7   8
HETATM    8  O   UNL     1      -3.424  -1.705 -33.085  1.00  0.00    -0.343 OA
BRANCH   8   9
HETATM    9  C   UNL     1      -4.460  -2.380 -33.670  1.00  0.00     0.069 A 
HETATM   10  C   UNL     1      -4.176  -3.708 -34.001  1.00  0.00     0.037 A 
HETATM   11  C   UNL     1      -5.135  -4.508 -34.621  1.00  0.00     0.003 A 
HETATM   12  C   UNL     1      -6.389  -3.983 -34.920  1.00  0.00     0.000 A 
HETATM   13  C   UNL     1      -6.683  -2.660 -34.593  1.00  0.00     0.003 A 
HETATM   14  C   UNL     1      -5.723  -1.861 -33.964  1.00  0.00     0.037 A 
ENDBRANCH   8   9
ENDBRANCH   7   8
ENDBRANCH   4   7
ENDBRANCH   2   3
BRANCH   1  15
HETATM   15  C   UNL     1      -5.991   2.509 -32.114  1.00  0.00     0.017 A 
HETATM   16  C   UNL     1      -6.320   2.763 -30.785  1.00  0.00     0.018 A 
HETATM   17  C   UNL     1      -5.593   3.519 -29.729  1.00  0.00     0.069 C 
HETATM   18  N   UNL     1      -7.512   2.141 -30.520  1.00  0.00    -0.358 N 
HETATM   19  H   UNL     1      -7.991   2.147 -29.629  1.00  0.00     0.166 HD
HETATM   20  C   UNL     1      -7.983   1.507 -31.642  1.00  0.00     0.043 A 
HETATM   21  C   UNL     1      -7.071   1.747 -32.672  1.00  0.00     0.004 A 
HETATM   22  C   UNL     1      -9.150   0.753 -31.816  1.00  0.00     0.030 A 
HETATM   23  C   UNL     1      -7.376   1.238 -33.952  1.00  0.00     0.014 A 
HETATM   24  C   UNL     1      -8.537   0.479 -34.143  1.00  0.00     0.001 A 
HETATM   25  C   UNL     1      -9.407   0.235 -33.086  1.00  0.00     0.002 A 
ENDBRANCH   1  15
TORSDOF 5
ENDMDL
MODEL 8
REMARK VINA RESULT:      -7.5      4.546      6.351
REMARK  5 active torsions:
REMARK  status: ('A' for Active; 'I' for Inactive)
REMARK    1  A    between atoms: C_7  and  C_8 
REMARK    2  A    between atoms: N_9  and  N_10 
REMARK       I    between atoms: N_10  and  C_11 
REMARK    3  A    between atoms: C_11  and  C_12 
REMARK    4  A    between atoms: C_12  and  O_13 
REMARK    5  A    between atoms: O_13  and  C_14 
ROOT
HETATM    1  C   UNL     1      -3.911   0.238 -31.023  1.00  0.00     0.147 C 
HETATM    2  N   UNL     1      -3.035   1.170 -31.264  1.00  0.00    -0.205 NA
ENDROOT
BRANCH   2   3
HETATM    3  N   UNL     1      -3.080   1.922 -32.405  1.00  0.00    -0.149 NA
HETATM    4  C   UNL     1      -3.366   3.278 -32.407  1.00  0.00     0.241 C 
HETATM    5  O   UNL     1      -4.028   3.737 -33.341  1.00  0.00    -0.276 OA
HETATM    6  H   UNL     1      -3.656   1.488 -33.124  1.00  0.00     0.158 HD
BRANCH   4   7
HETATM    7  C   UNL     1      -2.765   4.143 -31.303  1.00  0.00     0.273 C 
BRANCH   7   8
HETATM    8  O   UNL     1      -1.400   4.448 -31.565  1.00  0.00    -0.343 OA
BRANCH   8   9
HETATM    9  C   UNL     1      -0.789   5.333 -30.720  1.00  0.00     0.069 A 
HETATM   10  C   UNL     1      -1.243   6.650 -30.831  1.00  0.00     0.037 A 
HETATM   11  C   UNL     1      -0.693   7.661 -30.042  1.00  0.00     0.003 A 
HETATM   12  C   UNL     1       0.322   7.361 -29.138  1.00  0.00     0.000 A 
HETATM   13  C   UNL     1       0.779   6.050 -29.019  1.00  0.00     0.003 A 
HETATM   14  C   UNL     1       0.222   5.036 -29.804  1.00  0.00     0.037 A 
ENDBRANCH   8   9
ENDBRANCH   7   8
ENDBRANCH   4   7
ENDBRANCH   2   3
BRANCH   1  15
HETATM   15  C   UNL     1      -5.042  -0.178 -31.831  1.00  0.00     0.017 A 
HETATM   16  C   UNL     1      -6.302   0.398 -31.689  1.00  0.00     0.018 A 
HETATM   17  C   UNL     1      -6.785   1.471 -30.778  1.00  0.00     0.069 C 
HETATM   18  N   UNL     1      -7.152  -0.229 -32.562  1.00  0.00    -0.358 N 
HETATM   19  H   UNL     1      -8.137  -0.023 -32.672  1.00  0.00     0.166 HD
HETATM   20  C   UNL     1      -6.481  -1.182 -33.287  1.00  0.00     0.043 A 
HETATM   21  C   UNL     1      -5.145  -1.152 -32.879  1.00  0.00     0.004 A 
HETATM   22  C   UNL     1      -6.959  -2.052 -34.274  1.00  0.00     0.030 A 
HETATM   23  C   UNL     1      -4.239  -2.013 -33.534  1.00  0.00     0.014 A 
HETATM   24  C   UNL     1      -4.701  -2.892 -34.521  1.00  0.00     0.001 A 
HETATM   25  C   UNL     1      -6.044  -2.915 -34.879  1.00  0.00     0.002 A 
ENDBRANCH   1  15
TORSDOF 5
ENDMDL
MODEL 9
REMARK VINA RESULT:      -7.5      4.618      6.501
REMARK  5 active torsions:
REMARK  status: ('A' for Active; 'I' for Inactive)
REMARK    1  A    between atoms: C_7  and  C_8 
REMARK    2  A    between atoms: N_9  and  N_10 
REMARK       I    between atoms: N_10  and  C_11 
REMARK    3  A    between atoms: C_11  and  C_12 
REMARK    4  A    between atoms: C_12  and  O_13 
REMARK    5  A    between atoms: O_13  and  C_14 
ROOT
HETATM    1  C   UNL     1      -6.212   2.383 -32.398  1.00  0.00     0.147 C 
HETATM    2  N   UNL     1      -6.200   3.522 -33.027  1.00  0.00    -0.205 NA
ENDROOT
BRANCH   2   3
HETATM    3  N   UNL     1      -5.393   3.738 -34.109  1.00  0.00    -0.149 NA
HETATM    4  C   UNL     1      -4.517   4.809 -34.199  1.00  0.00     0.241 C 
HETATM    5  O   UNL     1      -4.350   5.339 -35.300  1.00  0.00    -0.276 OA
HETATM    6  H   UNL     1      -5.910   3.692 -34.985  1.00  0.00     0.158 HD
BRANCH   4   7
HETATM    7  C   UNL     1      -3.739   5.210 -32.950  1.00  0.00     0.273 C 
BRANCH   7   8
HETATM    8  O   UNL     1      -2.652   6.072 -33.269  1.00  0.00    -0.343 OA
BRANCH   8   9
HETATM    9  C   UNL     1      -1.581   6.061 -32.418  1.00  0.00     0.069 A 
HETATM   10  C   UNL     1      -1.556   4.982 -31.530  1.00  0.00     0.037 A 
HETATM   11  C   UNL     1      -0.530   4.855 -30.592  1.00  0.00     0.003 A 
HETATM   12  C   UNL     1       0.478   5.813 -30.533  1.00  0.00     0.000 A 
HETATM   13  C   UNL     1       0.462   6.892 -31.416  1.00  0.00     0.003 A 
HETATM   14  C   UNL     1      -0.561   7.013 -32.361  1.00  0.00     0.037 A 
ENDBRANCH   8   9
ENDBRANCH   7   8
ENDBRANCH   4   7
ENDBRANCH   2   3
BRANCH   1  15
HETATM   15  C   UNL     1      -5.447   1.182 -32.676  1.00  0.00     0.017 A 
HETATM   16  C   UNL     1      -4.158   0.998 -32.185  1.00  0.00     0.018 A 
HETATM   17  C   UNL     1      -3.303   1.876 -31.340  1.00  0.00     0.069 C 
HETATM   18  N   UNL     1      -3.700  -0.208 -32.646  1.00  0.00    -0.358 N 
HETATM   19  H   UNL     1      -2.787  -0.601 -32.455  1.00  0.00     0.166 HD
HETATM   20  C   UNL     1      -4.660  -0.829 -33.405  1.00  0.00     0.043 A 
HETATM   21  C   UNL     1      -5.784  -0.000 -33.415  1.00  0.00     0.004 A 
HETATM   22  C   UNL     1      -4.613  -2.062 -34.068  1.00  0.00     0.030 A 
HETATM   23  C   UNL     1      -6.934  -0.462 -34.091  1.00  0.00     0.014 A 
HETATM   24  C   UNL     1      -6.903  -1.690 -34.762  1.00  0.00     0.001 A 
HETATM   25  C   UNL     1      -5.755  -2.474 -34.756  1.00  0.00     0.002 A 
ENDBRANCH   1  15
TORSDOF 5
ENDMDL
MODEL 10
REMARK VINA RESULT:      -7.2      5.230      7.089
REMARK  5 active torsions:
REMARK  status: ('A' for Active; 'I' for Inactive)
REMARK    1  A    between atoms: C_7  and  C_8 
REMARK    2  A    between atoms: N_9  and  N_10 
REMARK       I    between atoms: N_10  and  C_11 
REMARK    3  A    between atoms: C_11  and  C_12 
REMARK    4  A    between atoms: C_12  and  O_13 
REMARK    5  A    between atoms: O_13  and  C_14 
ROOT
HETATM    1  C   UNL     1      -3.795   2.765 -31.392  1.00  0.00     0.147 C 
HETATM    2  N   UNL     1      -2.695   3.422 -31.623  1.00  0.00    -0.205 NA
ENDROOT
BRANCH   2   3
HETATM    3  N   UNL     1      -2.266   3.681 -32.895  1.00  0.00    -0.149 NA
HETATM    4  C   UNL     1      -2.370   4.929 -33.491  1.00  0.00     0.241 C 
HETATM    5  O   UNL     1      -2.622   4.985 -34.697  1.00  0.00    -0.276 OA
HETATM    6  H   UNL     1      -2.616   2.995 -33.562  1.00  0.00     0.158 HD
BRANCH   4   7
HETATM    7  C   UNL     1      -2.074   6.159 -32.639  1.00  0.00     0.273 C 
BRANCH   7   8
HETATM    8  O   UNL     1      -0.677   6.319 -32.425  1.00  0.00    -0.343 OA
BRANCH   8   9
HETATM    9  C   UNL     1      -0.242   6.301 -31.128  1.00  0.00     0.069 A 
HETATM   10  C   UNL     1       0.384   5.113 -30.742  1.00  0.00     0.037 A 
HETATM   11  C   UNL     1       0.859   4.948 -29.440  1.00  0.00     0.003 A 
HETATM   12  C   UNL     1       0.707   5.974 -28.512  1.00  0.00     0.000 A 
HETATM   13  C   UNL     1       0.087   7.164 -28.888  1.00  0.00     0.003 A 
HETATM   14  C   UNL     1      -0.382   7.330 -30.195  1.00  0.00     0.037 A 
ENDBRANCH   8   9
ENDBRANCH   7   8
ENDBRANCH   4   7
ENDBRANCH   2   3
BRANCH   1  15
HETATM   15  C   UNL     1      -4.741   2.211 -32.343  1.00  0.00     0.017 A 
HETATM   16  C   UNL     1      -5.723   2.990 -32.947  1.00  0.00     0.018 A 
HETATM   17  C   UNL     1      -6.041   4.437 -32.805  1.00  0.00     0.069 C 
HETATM   18  N   UNL     1      -6.468   2.175 -33.758  1.00  0.00    -0.358 N 
HETATM   19  H   UNL     1      -7.258   2.468 -34.318  1.00  0.00     0.166 HD
HETATM   20  C   UNL     1      -5.988   0.890 -33.719  1.00  0.00     0.043 A 
HETATM   21  C   UNL     1      -4.881   0.883 -32.868  1.00  0.00     0.004 A 
HETATM   22  C   UNL     1      -6.449  -0.254 -34.383  1.00  0.00     0.030 A 
HETATM   23  C   UNL     1      -4.177  -0.331 -32.716  1.00  0.00     0.014 A 
HETATM   24  C   UNL     1      -4.626  -1.485 -33.368  1.00  0.00     0.001 A 
HETATM   25  C   UNL     1      -5.751  -1.446 -34.184  1.00  0.00     0.002 A 
ENDBRANCH   1  15
TORSDOF 5
ENDMDL
