MODEL 1
REMARK VINA RESULT:      -9.3      0.000      0.000
REMARK  5 active torsions:
REMARK  status: ('A' for Active; 'I' for Inactive)
REMARK    1  A    between atoms: C_5  and  N_6 
REMARK       I    between atoms: N_6  and  C_7 
REMARK       I    between atoms: C_7  and  N_8 
REMARK    2  A    between atoms: N_8  and  C_9 
REMARK    3  A    between atoms: C_11  and  C_12 
REMARK       I    between atoms: C_12  and  N_13 
REMARK    4  A    between atoms: N_13  and  C_14 
REMARK    5  A    between atoms: C_14  and  C_15 
ROOT
HETATM    1  C   UNL     1      -4.975   2.652 -31.874  1.00  0.00     0.175 A 
HETATM    2  S   UNL     1      -3.416   2.799 -31.225  1.00  0.00    -0.044 SA
HETATM    3  C   UNL     1      -3.061   4.033 -32.379  1.00  0.00     0.100 A 
HETATM    4  C   UNL     1      -4.161   4.202 -33.215  1.00  0.00     0.056 A 
HETATM    5  C   UNL     1      -4.337   5.171 -34.332  1.00  0.00     0.072 C 
HETATM    6  N   UNL     1      -5.254   3.393 -32.916  1.00  0.00    -0.228 NA
ENDROOT
BRANCH   1   7
HETATM    7  N   UNL     1      -5.799   1.787 -31.219  1.00  0.00    -0.287 N 
HETATM    8  C   UNL     1      -6.107   0.512 -31.603  1.00  0.00     0.326 C 
HETATM    9  N   UNL     1      -5.486   0.044 -32.731  1.00  0.00    -0.309 N 
HETATM   10  O   UNL     1      -6.927  -0.102 -30.922  1.00  0.00    -0.247 OA
HETATM   11  H   UNL     1      -4.772   0.658 -33.111  1.00  0.00     0.170 HD
HETATM   12  H   UNL     1      -6.311   2.133 -30.422  1.00  0.00     0.172 HD
BRANCH   9  13
HETATM   13  C   UNL     1      -5.716  -1.160 -33.423  1.00  0.00     0.036 A 
HETATM   14  C   UNL     1      -6.963  -1.562 -33.901  1.00  0.00     0.030 A 
HETATM   15  C   UNL     1      -7.099  -2.759 -34.614  1.00  0.00     0.009 A 
HETATM   16  C   UNL     1      -5.989  -3.572 -34.865  1.00  0.00    -0.062 A 
HETATM   17  C   UNL     1      -6.152  -4.858 -35.618  1.00  0.00     0.048 C 
HETATM   18  C   UNL     1      -4.741  -3.179 -34.372  1.00  0.00     0.009 A 
HETATM   19  C   UNL     1      -4.607  -1.980 -33.663  1.00  0.00     0.030 A 
ENDBRANCH   9  13
ENDBRANCH   1   7
BRANCH   3  20
HETATM   20  C   UNL     1      -1.783   4.721 -32.287  1.00  0.00     0.260 C 
HETATM   21  N   UNL     1      -1.282   4.888 -31.014  1.00  0.00    -0.352 N 
HETATM   22  H   UNL     1      -1.880   4.755 -30.213  1.00  0.00     0.163 HD
HETATM   23  O   UNL     1      -1.161   5.127 -33.267  1.00  0.00    -0.267 OA
BRANCH  21  24
HETATM   24  C   UNL     1       0.034   5.431 -30.766  1.00  0.00     0.163 C 
BRANCH  24  25
HETATM   25  C   UNL     1       0.043   6.411 -29.623  1.00  0.00    -0.019 A 
HETATM   26  C   UNL     1      -0.627   7.643 -29.676  1.00  0.00     0.042 A 
HETATM   27 CL   UNL     1      -1.475   8.153 -31.095  1.00  0.00    -0.084 Cl
HETATM   28  C   UNL     1      -0.627   8.505 -28.575  1.00  0.00     0.024 A 
HETATM   29  C   UNL     1       0.050   8.148 -27.408  1.00  0.00     0.002 A 
HETATM   30  C   UNL     1       0.735   6.938 -27.346  1.00  0.00     0.001 A 
HETATM   31  C   UNL     1       0.737   6.079 -28.446  1.00  0.00     0.010 A 
ENDBRANCH  24  25
ENDBRANCH  21  24
ENDBRANCH   3  20
TORSDOF 5
ENDMDL
MODEL 2
REMARK VINA RESULT:      -9.3      2.230      2.865
REMARK  5 active torsions:
REMARK  status: ('A' for Active; 'I' for Inactive)
REMARK    1  A    between atoms: C_5  and  N_6 
REMARK       I    between atoms: N_6  and  C_7 
REMARK       I    between atoms: C_7  and  N_8 
REMARK    2  A    between atoms: N_8  and  C_9 
REMARK    3  A    between atoms: C_11  and  C_12 
REMARK       I    between atoms: C_12  and  N_13 
REMARK    4  A    between atoms: N_13  and  C_14 
REMARK    5  A    between atoms: C_14  and  C_15 
ROOT
HETATM    1  C   UNL     1      -5.494   5.286 -33.637  1.00  0.00     0.175 A 
HETATM    2  S   UNL     1      -5.165   6.453 -32.452  1.00  0.00    -0.044 SA
HETATM    3  C   UNL     1      -3.528   6.531 -32.998  1.00  0.00     0.100 A 
HETATM    4  C   UNL     1      -3.348   5.608 -34.024  1.00  0.00     0.056 A 
HETATM    5  C   UNL     1      -2.122   5.339 -34.825  1.00  0.00     0.072 C 
HETATM    6  N   UNL     1      -4.489   4.892 -34.375  1.00  0.00    -0.228 NA
ENDROOT
BRANCH   1   7
HETATM    7  N   UNL     1      -6.797   4.893 -33.718  1.00  0.00    -0.287 N 
HETATM    8  C   UNL     1      -7.250   3.608 -33.824  1.00  0.00     0.326 C 
HETATM    9  N   UNL     1      -6.304   2.618 -33.795  1.00  0.00    -0.309 N 
HETATM   10  O   UNL     1      -8.462   3.445 -33.958  1.00  0.00    -0.247 OA
HETATM   11  H   UNL     1      -5.361   2.936 -33.588  1.00  0.00     0.170 HD
HETATM   12  H   UNL     1      -7.503   5.608 -33.803  1.00  0.00     0.172 HD
BRANCH   9  13
HETATM   13  C   UNL     1      -6.470   1.238 -34.021  1.00  0.00     0.036 A 
HETATM   14  C   UNL     1      -7.189   0.702 -35.089  1.00  0.00     0.030 A 
HETATM   15  C   UNL     1      -7.273  -0.685 -35.262  1.00  0.00     0.009 A 
HETATM   16  C   UNL     1      -6.638  -1.557 -34.372  1.00  0.00    -0.062 A 
HETATM   17  C   UNL     1      -6.749  -3.040 -34.562  1.00  0.00     0.048 C 
HETATM   18  C   UNL     1      -5.932  -1.021 -33.291  1.00  0.00     0.009 A 
HETATM   19  C   UNL     1      -5.844   0.365 -33.122  1.00  0.00     0.030 A 
ENDBRANCH   9  13
ENDBRANCH   1   7
BRANCH   3  20
HETATM   20  C   UNL     1      -2.645   7.521 -32.402  1.00  0.00     0.260 C 
HETATM   21  N   UNL     1      -2.741   7.665 -31.035  1.00  0.00    -0.352 N 
HETATM   22  H   UNL     1      -3.534   7.284 -30.541  1.00  0.00     0.163 HD
HETATM   23  O   UNL     1      -1.842   8.190 -33.051  1.00  0.00    -0.267 OA
BRANCH  21  24
HETATM   24  C   UNL     1      -1.842   8.508 -30.281  1.00  0.00     0.163 C 
BRANCH  24  25
HETATM   25  C   UNL     1      -1.132   7.755 -29.188  1.00  0.00    -0.019 A 
HETATM   26  C   UNL     1       0.015   6.980 -29.425  1.00  0.00     0.042 A 
HETATM   27 CL   UNL     1       0.667   6.788 -31.015  1.00  0.00    -0.084 Cl
HETATM   28  C   UNL     1       0.667   6.330 -28.372  1.00  0.00     0.024 A 
HETATM   29  C   UNL     1       0.178   6.442 -27.070  1.00  0.00     0.002 A 
HETATM   30  C   UNL     1      -0.968   7.192 -26.822  1.00  0.00     0.001 A 
HETATM   31  C   UNL     1      -1.621   7.838 -27.873  1.00  0.00     0.010 A 
ENDBRANCH  24  25
ENDBRANCH  21  24
ENDBRANCH   3  20
TORSDOF 5
ENDMDL
MODEL 3
REMARK VINA RESULT:      -9.1      2.741     10.144
REMARK  5 active torsions:
REMARK  status: ('A' for Active; 'I' for Inactive)
REMARK    1  A    between atoms: C_5  and  N_6 
REMARK       I    between atoms: N_6  and  C_7 
REMARK       I    between atoms: C_7  and  N_8 
REMARK    2  A    between atoms: N_8  and  C_9 
REMARK    3  A    between atoms: C_11  and  C_12 
REMARK       I    between atoms: C_12  and  N_13 
REMARK    4  A    between atoms: N_13  and  C_14 
REMARK    5  A    between atoms: C_14  and  C_15 
ROOT
HETATM    1  C   UNL     1      -2.249   4.884 -31.633  1.00  0.00     0.175 A 
HETATM    2  S   UNL     1      -3.018   3.377 -31.722  1.00  0.00    -0.044 SA
HETATM    3  C   UNL     1      -4.552   4.171 -31.755  1.00  0.00     0.100 A 
HETATM    4  C   UNL     1      -4.354   5.544 -31.642  1.00  0.00     0.056 A 
HETATM    5  C   UNL     1      -5.370   6.632 -31.658  1.00  0.00     0.072 C 
HETATM    6  N   UNL     1      -3.021   5.939 -31.564  1.00  0.00    -0.228 NA
ENDROOT
BRANCH   1   7
HETATM    7  N   UNL     1      -0.888   4.846 -31.672  1.00  0.00    -0.287 N 
HETATM    8  C   UNL     1      -0.036   5.355 -30.732  1.00  0.00     0.326 C 
HETATM    9  N   UNL     1      -0.609   5.913 -29.621  1.00  0.00    -0.309 N 
HETATM   10  O   UNL     1       1.170   5.289 -30.968  1.00  0.00    -0.247 OA
HETATM   11  H   UNL     1      -1.616   5.796 -29.556  1.00  0.00     0.170 HD
HETATM   12  H   UNL     1      -0.448   4.494 -32.508  1.00  0.00     0.172 HD
BRANCH   9  13
HETATM   13  C   UNL     1       0.012   6.626 -28.577  1.00  0.00     0.036 A 
HETATM   14  C   UNL     1      -0.056   6.260 -27.233  1.00  0.00     0.030 A 
HETATM   15  C   UNL     1       0.623   7.004 -26.260  1.00  0.00     0.009 A 
HETATM   16  C   UNL     1       1.383   8.122 -26.616  1.00  0.00    -0.062 A 
HETATM   17  C   UNL     1       2.094   8.917 -25.562  1.00  0.00     0.048 C 
HETATM   18  C   UNL     1       1.438   8.500 -27.961  1.00  0.00     0.009 A 
HETATM   19  C   UNL     1       0.762   7.753 -28.932  1.00  0.00     0.030 A 
ENDBRANCH   9  13
ENDBRANCH   1   7
BRANCH   3  20
HETATM   20  C   UNL     1      -5.746   3.364 -31.947  1.00  0.00     0.260 C 
HETATM   21  N   UNL     1      -5.590   2.236 -32.723  1.00  0.00    -0.352 N 
HETATM   22  H   UNL     1      -4.770   2.128 -33.300  1.00  0.00     0.163 HD
HETATM   23  O   UNL     1      -6.837   3.640 -31.449  1.00  0.00    -0.267 OA
BRANCH  21  24
HETATM   24  C   UNL     1      -6.646   1.265 -32.897  1.00  0.00     0.163 C 
BRANCH  24  25
HETATM   25  C   UNL     1      -6.128  -0.064 -33.378  1.00  0.00    -0.019 A 
HETATM   26  C   UNL     1      -6.676  -0.736 -34.482  1.00  0.00     0.042 A 
HETATM   27 CL   UNL     1      -8.035  -0.103 -35.345  1.00  0.00    -0.084 Cl
HETATM   28  C   UNL     1      -6.136  -1.950 -34.920  1.00  0.00     0.024 A 
HETATM   29  C   UNL     1      -5.046  -2.511 -34.255  1.00  0.00     0.002 A 
HETATM   30  C   UNL     1      -4.504  -1.867 -33.147  1.00  0.00     0.001 A 
HETATM   31  C   UNL     1      -5.043  -0.657 -32.708  1.00  0.00     0.010 A 
ENDBRANCH  24  25
ENDBRANCH  21  24
ENDBRANCH   3  20
TORSDOF 5
ENDMDL
MODEL 4
REMARK VINA RESULT:      -9.0      2.766     10.173
REMARK  5 active torsions:
REMARK  status: ('A' for Active; 'I' for Inactive)
REMARK    1  A    between atoms: C_5  and  N_6 
REMARK       I    between atoms: N_6  and  C_7 
REMARK       I    between atoms: C_7  and  N_8 
REMARK    2  A    between atoms: N_8  and  C_9 
REMARK    3  A    between atoms: C_11  and  C_12 
REMARK       I    between atoms: C_12  and  N_13 
REMARK    4  A    between atoms: N_13  and  C_14 
REMARK    5  A    between atoms: C_14  and  C_15 
ROOT
HETATM    1  C   UNL     1      -2.149   4.990 -31.700  1.00  0.00     0.175 A 
HETATM    2  S   UNL     1      -3.009   3.661 -32.305  1.00  0.00    -0.044 SA
HETATM    3  C   UNL     1      -4.470   4.579 -32.217  1.00  0.00     0.100 A 
HETATM    4  C   UNL     1      -4.187   5.830 -31.676  1.00  0.00     0.056 A 
HETATM    5  C   UNL     1      -5.116   6.970 -31.441  1.00  0.00     0.072 C 
HETATM    6  N   UNL     1      -2.846   6.049 -31.375  1.00  0.00    -0.228 NA
ENDROOT
BRANCH   1   7
HETATM    7  N   UNL     1      -0.797   4.829 -31.639  1.00  0.00    -0.287 N 
HETATM    8  C   UNL     1       0.032   5.299 -30.659  1.00  0.00     0.326 C 
HETATM    9  N   UNL     1      -0.562   5.953 -29.613  1.00  0.00    -0.309 N 
HETATM   10  O   UNL     1       1.240   5.117 -30.805  1.00  0.00    -0.247 OA
HETATM   11  H   UNL     1      -1.578   5.929 -29.617  1.00  0.00     0.170 HD
HETATM   12  H   UNL     1      -0.335   4.404 -32.429  1.00  0.00     0.172 HD
BRANCH   9  13
HETATM   13  C   UNL     1       0.049   6.650 -28.553  1.00  0.00     0.036 A 
HETATM   14  C   UNL     1      -0.026   6.263 -27.216  1.00  0.00     0.030 A 
HETATM   15  C   UNL     1       0.644   6.993 -26.227  1.00  0.00     0.009 A 
HETATM   16  C   UNL     1       1.402   8.120 -26.559  1.00  0.00    -0.062 A 
HETATM   17  C   UNL     1       2.102   8.900 -25.487  1.00  0.00     0.048 C 
HETATM   18  C   UNL     1       1.464   8.519 -27.897  1.00  0.00     0.009 A 
HETATM   19  C   UNL     1       0.798   7.786 -28.885  1.00  0.00     0.030 A 
ENDBRANCH   9  13
ENDBRANCH   1   7
BRANCH   3  20
HETATM   20  C   UNL     1      -5.692   3.990 -32.740  1.00  0.00     0.260 C 
HETATM   21  N   UNL     1      -6.171   2.894 -32.054  1.00  0.00    -0.352 N 
HETATM   22  H   UNL     1      -5.578   2.410 -31.397  1.00  0.00     0.163 HD
HETATM   23  O   UNL     1      -6.289   4.428 -33.722  1.00  0.00    -0.267 OA
BRANCH  21  24
HETATM   24  C   UNL     1      -7.440   2.279 -32.369  1.00  0.00     0.163 C 
BRANCH  24  25
HETATM   25  C   UNL     1      -7.285   1.040 -33.209  1.00  0.00    -0.019 A 
HETATM   26  C   UNL     1      -6.812  -0.175 -32.686  1.00  0.00     0.042 A 
HETATM   27 CL   UNL     1      -6.317  -0.320 -31.035  1.00  0.00    -0.084 Cl
HETATM   28  C   UNL     1      -6.723  -1.313 -33.494  1.00  0.00     0.024 A 
HETATM   29  C   UNL     1      -7.098  -1.250 -34.836  1.00  0.00     0.002 A 
HETATM   30  C   UNL     1      -7.552  -0.048 -35.373  1.00  0.00     0.001 A 
HETATM   31  C   UNL     1      -7.638   1.089 -34.568  1.00  0.00     0.010 A 
ENDBRANCH  24  25
ENDBRANCH  21  24
ENDBRANCH   3  20
TORSDOF 5
ENDMDL
MODEL 5
REMARK VINA RESULT:      -8.8      2.460     10.099
REMARK  5 active torsions:
REMARK  status: ('A' for Active; 'I' for Inactive)
REMARK    1  A    between atoms: C_5  and  N_6 
REMARK       I    between atoms: N_6  and  C_7 
REMARK       I    between atoms: C_7  and  N_8 
REMARK    2  A    between atoms: N_8  and  C_9 
REMARK    3  A    between atoms: C_11  and  C_12 
REMARK       I    between atoms: C_12  and  N_13 
REMARK    4  A    between atoms: N_13  and  C_14 
REMARK    5  A    between atoms: C_14  and  C_15 
ROOT
HETATM    1  C   UNL     1      -3.439   5.025 -31.524  1.00  0.00     0.175 A 
HETATM    2  S   UNL     1      -3.425   3.331 -31.497  1.00  0.00    -0.044 SA
HETATM    3  C   UNL     1      -5.024   3.337 -30.844  1.00  0.00     0.100 A 
HETATM    4  C   UNL     1      -5.428   4.655 -30.648  1.00  0.00     0.056 A 
HETATM    5  C   UNL     1      -6.734   5.158 -30.141  1.00  0.00     0.072 C 
HETATM    6  N   UNL     1      -4.499   5.616 -31.037  1.00  0.00    -0.228 NA
ENDROOT
BRANCH   1   7
HETATM    7  N   UNL     1      -2.341   5.607 -32.084  1.00  0.00    -0.287 N 
HETATM    8  C   UNL     1      -1.309   6.202 -31.414  1.00  0.00     0.326 C 
HETATM    9  N   UNL     1      -1.361   6.166 -30.046  1.00  0.00    -0.309 N 
HETATM   10  O   UNL     1      -0.431   6.738 -32.090  1.00  0.00    -0.247 OA
HETATM   11  H   UNL     1      -2.115   5.602 -29.664  1.00  0.00     0.170 HD
HETATM   12  H   UNL     1      -2.313   5.697 -33.088  1.00  0.00     0.172 HD
BRANCH   9  13
HETATM   13  C   UNL     1      -0.521   6.810 -29.118  1.00  0.00     0.036 A 
HETATM   14  C   UNL     1      -0.505   8.188 -28.903  1.00  0.00     0.030 A 
HETATM   15  C   UNL     1       0.336   8.744 -27.931  1.00  0.00     0.009 A 
HETATM   16  C   UNL     1       1.172   7.932 -27.158  1.00  0.00    -0.062 A 
HETATM   17  C   UNL     1       2.077   8.544 -26.131  1.00  0.00     0.048 C 
HETATM   18  C   UNL     1       1.169   6.552 -27.385  1.00  0.00     0.009 A 
HETATM   19  C   UNL     1       0.324   5.997 -28.353  1.00  0.00     0.030 A 
ENDBRANCH   9  13
ENDBRANCH   1   7
BRANCH   3  20
HETATM   20  C   UNL     1      -5.704   2.065 -30.663  1.00  0.00     0.260 C 
HETATM   21  N   UNL     1      -5.320   1.053 -31.516  1.00  0.00    -0.352 N 
HETATM   22  H   UNL     1      -4.788   1.265 -32.347  1.00  0.00     0.163 HD
HETATM   23  O   UNL     1      -6.561   1.872 -29.803  1.00  0.00    -0.267 OA
BRANCH  21  24
HETATM   24  C   UNL     1      -5.804  -0.301 -31.377  1.00  0.00     0.163 C 
BRANCH  24  25
HETATM   25  C   UNL     1      -5.673  -1.091 -32.652  1.00  0.00    -0.019 A 
HETATM   26  C   UNL     1      -4.522  -1.829 -32.971  1.00  0.00     0.042 A 
HETATM   27 CL   UNL     1      -3.136  -1.839 -31.936  1.00  0.00    -0.084 Cl
HETATM   28  C   UNL     1      -4.460  -2.582 -34.147  1.00  0.00     0.024 A 
HETATM   29  C   UNL     1      -5.545  -2.602 -35.024  1.00  0.00     0.002 A 
HETATM   30  C   UNL     1      -6.686  -1.861 -34.731  1.00  0.00     0.001 A 
HETATM   31  C   UNL     1      -6.748  -1.107 -33.558  1.00  0.00     0.010 A 
ENDBRANCH  24  25
ENDBRANCH  21  24
ENDBRANCH   3  20
TORSDOF 5
ENDMDL
MODEL 6
REMARK VINA RESULT:      -8.8      2.785     10.109
REMARK  5 active torsions:
REMARK  status: ('A' for Active; 'I' for Inactive)
REMARK    1  A    between atoms: C_5  and  N_6 
REMARK       I    between atoms: N_6  and  C_7 
REMARK       I    between atoms: C_7  and  N_8 
REMARK    2  A    between atoms: N_8  and  C_9 
REMARK    3  A    between atoms: C_11  and  C_12 
REMARK       I    between atoms: C_12  and  N_13 
REMARK    4  A    between atoms: N_13  and  C_14 
REMARK    5  A    between atoms: C_14  and  C_15 
ROOT
HETATM    1  C   UNL     1      -4.600   5.581 -30.510  1.00  0.00     0.175 A 
HETATM    2  S   UNL     1      -5.835   4.600 -29.890  1.00  0.00    -0.044 SA
HETATM    3  C   UNL     1      -5.169   3.246 -30.729  1.00  0.00     0.100 A 
HETATM    4  C   UNL     1      -4.068   3.668 -31.469  1.00  0.00     0.056 A 
HETATM    5  C   UNL     1      -3.156   2.855 -32.320  1.00  0.00     0.072 C 
HETATM    6  N   UNL     1      -3.758   5.019 -31.339  1.00  0.00    -0.228 NA
ENDROOT
BRANCH   1   7
HETATM    7  N   UNL     1      -4.594   6.865 -30.054  1.00  0.00    -0.287 N 
HETATM    8  C   UNL     1      -3.560   7.493 -29.417  1.00  0.00     0.326 C 
HETATM    9  N   UNL     1      -2.403   6.776 -29.268  1.00  0.00    -0.309 N 
HETATM   10  O   UNL     1      -3.757   8.638 -29.012  1.00  0.00    -0.247 OA
HETATM   11  H   UNL     1      -2.393   5.879 -29.745  1.00  0.00     0.170 HD
HETATM   12  H   UNL     1      -5.454   7.389 -30.100  1.00  0.00     0.172 HD
BRANCH   9  13
HETATM   13  C   UNL     1      -1.246   7.117 -28.541  1.00  0.00     0.036 A 
HETATM   14  C   UNL     1      -0.098   7.666 -29.111  1.00  0.00     0.030 A 
HETATM   15  C   UNL     1       0.996   8.011 -28.309  1.00  0.00     0.009 A 
HETATM   16  C   UNL     1       0.959   7.817 -26.925  1.00  0.00    -0.062 A 
HETATM   17  C   UNL     1       2.144   8.180 -26.081  1.00  0.00     0.048 C 
HETATM   18  C   UNL     1      -0.185   7.251 -26.354  1.00  0.00     0.009 A 
HETATM   19  C   UNL     1      -1.280   6.910 -27.157  1.00  0.00     0.030 A 
ENDBRANCH   9  13
ENDBRANCH   1   7
BRANCH   3  20
HETATM   20  C   UNL     1      -5.762   1.936 -30.514  1.00  0.00     0.260 C 
HETATM   21  N   UNL     1      -6.347   1.353 -31.618  1.00  0.00    -0.352 N 
HETATM   22  H   UNL     1      -6.551   1.909 -32.435  1.00  0.00     0.163 HD
HETATM   23  O   UNL     1      -5.746   1.355 -29.430  1.00  0.00    -0.267 OA
BRANCH  21  24
HETATM   24  C   UNL     1      -6.860   0.003 -31.599  1.00  0.00     0.163 C 
BRANCH  24  25
HETATM   25  C   UNL     1      -6.320  -0.832 -32.729  1.00  0.00    -0.019 A 
HETATM   26  C   UNL     1      -4.990  -1.282 -32.769  1.00  0.00     0.042 A 
HETATM   27 CL   UNL     1      -3.852  -0.860 -31.537  1.00  0.00    -0.084 Cl
HETATM   28  C   UNL     1      -4.542  -2.091 -33.818  1.00  0.00     0.024 A 
HETATM   29  C   UNL     1      -5.414  -2.454 -34.845  1.00  0.00     0.002 A 
HETATM   30  C   UNL     1      -6.730  -2.000 -34.829  1.00  0.00     0.001 A 
HETATM   31  C   UNL     1      -7.178  -1.190 -33.783  1.00  0.00     0.010 A 
ENDBRANCH  24  25
ENDBRANCH  21  24
ENDBRANCH   3  20
TORSDOF 5
ENDMDL
MODEL 7
REMARK VINA RESULT:      -8.7      3.365      9.920
REMARK  5 active torsions:
REMARK  status: ('A' for Active; 'I' for Inactive)
REMARK    1  A    between atoms: C_5  and  N_6 
REMARK       I    between atoms: N_6  and  C_7 
REMARK       I    between atoms: C_7  and  N_8 
REMARK    2  A    between atoms: N_8  and  C_9 
REMARK    3  A    between atoms: C_11  and  C_12 
REMARK       I    between atoms: C_12  and  N_13 
REMARK    4  A    between atoms: N_13  and  C_14 
REMARK    5  A    between atoms: C_14  and  C_15 
ROOT
HETATM    1  C   UNL     1      -5.596   4.162 -32.376  1.00  0.00     0.175 A 
HETATM    2  S   UNL     1      -6.213   3.463 -33.791  1.00  0.00    -0.044 SA
HETATM    3  C   UNL     1      -6.108   1.904 -33.056  1.00  0.00     0.100 A 
HETATM    4  C   UNL     1      -5.553   2.038 -31.786  1.00  0.00     0.056 A 
HETATM    5  C   UNL     1      -5.301   0.981 -30.768  1.00  0.00     0.072 C 
HETATM    6  N   UNL     1      -5.255   3.345 -31.413  1.00  0.00    -0.228 NA
ENDROOT
BRANCH   1   7
HETATM    7  N   UNL     1      -5.543   5.524 -32.376  1.00  0.00    -0.287 N 
HETATM    8  C   UNL     1      -4.514   6.295 -31.910  1.00  0.00     0.326 C 
HETATM    9  N   UNL     1      -3.411   5.631 -31.445  1.00  0.00    -0.309 N 
HETATM   10  O   UNL     1      -4.670   7.515 -31.927  1.00  0.00    -0.247 OA
HETATM   11  H   UNL     1      -3.424   4.626 -31.593  1.00  0.00     0.170 HD
HETATM   12  H   UNL     1      -6.368   6.030 -32.658  1.00  0.00     0.172 HD
BRANCH   9  13
HETATM   13  C   UNL     1      -2.281   6.157 -30.789  1.00  0.00     0.036 A 
HETATM   14  C   UNL     1      -0.991   6.137 -31.317  1.00  0.00     0.030 A 
HETATM   15  C   UNL     1       0.072   6.718 -30.615  1.00  0.00     0.009 A 
HETATM   16  C   UNL     1      -0.138   7.331 -29.376  1.00  0.00    -0.062 A 
HETATM   17  C   UNL     1       1.013   7.936 -28.630  1.00  0.00     0.048 C 
HETATM   18  C   UNL     1      -1.429   7.336 -28.838  1.00  0.00     0.009 A 
HETATM   19  C   UNL     1      -2.491   6.760 -29.543  1.00  0.00     0.030 A 
ENDBRANCH   9  13
ENDBRANCH   1   7
BRANCH   3  20
HETATM   20  C   UNL     1      -6.634   0.758 -33.781  1.00  0.00     0.260 C 
HETATM   21  N   UNL     1      -5.723  -0.234 -34.076  1.00  0.00    -0.352 N 
HETATM   22  H   UNL     1      -4.734  -0.052 -34.002  1.00  0.00     0.163 HD
HETATM   23  O   UNL     1      -7.813   0.648 -34.110  1.00  0.00    -0.267 OA
BRANCH  21  24
HETATM   24  C   UNL     1      -6.116  -1.491 -34.672  1.00  0.00     0.163 C 
BRANCH  24  25
HETATM   25  C   UNL     1      -5.264  -2.639 -34.201  1.00  0.00    -0.019 A 
HETATM   26  C   UNL     1      -5.474  -3.962 -34.625  1.00  0.00     0.042 A 
HETATM   27 CL   UNL     1      -6.775  -4.377 -35.686  1.00  0.00    -0.084 Cl
HETATM   28  C   UNL     1      -4.632  -4.991 -34.194  1.00  0.00     0.024 A 
HETATM   29  C   UNL     1      -3.573  -4.714 -33.329  1.00  0.00     0.002 A 
HETATM   30  C   UNL     1      -3.363  -3.412 -32.886  1.00  0.00     0.001 A 
HETATM   31  C   UNL     1      -4.205  -2.384 -33.313  1.00  0.00     0.010 A 
ENDBRANCH  24  25
ENDBRANCH  21  24
ENDBRANCH   3  20
TORSDOF 5
ENDMDL
MODEL 8
REMARK VINA RESULT:      -8.7      1.390      2.167
REMARK  5 active torsions:
REMARK  status: ('A' for Active; 'I' for Inactive)
REMARK    1  A    between atoms: C_5  and  N_6 
REMARK       I    between atoms: N_6  and  C_7 
REMARK       I    between atoms: C_7  and  N_8 
REMARK    2  A    between atoms: N_8  and  C_9 
REMARK    3  A    between atoms: C_11  and  C_12 
REMARK       I    between atoms: C_12  and  N_13 
REMARK    4  A    between atoms: N_13  and  C_14 
REMARK    5  A    between atoms: C_14  and  C_15 
ROOT
HETATM    1  C   UNL     1      -5.207   3.159 -32.346  1.00  0.00     0.175 A 
HETATM    2  S   UNL     1      -3.928   3.492 -31.284  1.00  0.00    -0.044 SA
HETATM    3  C   UNL     1      -3.230   4.538 -32.468  1.00  0.00     0.100 A 
HETATM    4  C   UNL     1      -4.016   4.509 -33.617  1.00  0.00     0.056 A 
HETATM    5  C   UNL     1      -3.834   5.272 -34.884  1.00  0.00     0.072 C 
HETATM    6  N   UNL     1      -5.147   3.703 -33.534  1.00  0.00    -0.228 NA
ENDROOT
BRANCH   1   7
HETATM    7  N   UNL     1      -6.195   2.370 -31.836  1.00  0.00    -0.287 N 
HETATM    8  C   UNL     1      -6.428   1.060 -32.149  1.00  0.00     0.326 C 
HETATM    9  N   UNL     1      -5.553   0.471 -33.022  1.00  0.00    -0.309 N 
HETATM   10  O   UNL     1      -7.412   0.524 -31.640  1.00  0.00    -0.247 OA
HETATM   11  H   UNL     1      -4.749   1.041 -33.268  1.00  0.00     0.170 HD
HETATM   12  H   UNL     1      -6.885   2.801 -31.240  1.00  0.00     0.172 HD
BRANCH   9  13
HETATM   13  C   UNL     1      -5.630  -0.802 -33.617  1.00  0.00     0.036 A 
HETATM   14  C   UNL     1      -4.557  -1.687 -33.715  1.00  0.00     0.030 A 
HETATM   15  C   UNL     1      -4.730  -2.952 -34.289  1.00  0.00     0.009 A 
HETATM   16  C   UNL     1      -5.978  -3.354 -34.773  1.00  0.00    -0.062 A 
HETATM   17  C   UNL     1      -6.144  -4.706 -35.399  1.00  0.00     0.048 C 
HETATM   18  C   UNL     1      -7.051  -2.461 -34.692  1.00  0.00     0.009 A 
HETATM   19  C   UNL     1      -6.878  -1.200 -34.113  1.00  0.00     0.030 A 
ENDBRANCH   9  13
ENDBRANCH   1   7
BRANCH   3  20
HETATM   20  C   UNL     1      -2.045   5.299 -32.109  1.00  0.00     0.260 C 
HETATM   21  N   UNL     1      -2.184   6.156 -31.038  1.00  0.00    -0.352 N 
HETATM   22  H   UNL     1      -3.102   6.401 -30.702  1.00  0.00     0.163 HD
HETATM   23  O   UNL     1      -0.969   5.194 -32.696  1.00  0.00    -0.267 OA
BRANCH  21  24
HETATM   24  C   UNL     1      -1.066   6.879 -30.477  1.00  0.00     0.163 C 
BRANCH  24  25
HETATM   25  C   UNL     1      -1.463   8.236 -29.960  1.00  0.00    -0.019 A 
HETATM   26  C   UNL     1      -1.070   8.711 -28.698  1.00  0.00     0.042 A 
HETATM   27 CL   UNL     1      -0.136   7.738 -27.615  1.00  0.00    -0.084 Cl
HETATM   28  C   UNL     1      -1.427   9.995 -28.276  1.00  0.00     0.024 A 
HETATM   29  C   UNL     1      -2.188  10.819 -29.105  1.00  0.00     0.002 A 
HETATM   30  C   UNL     1      -2.601  10.356 -30.351  1.00  0.00     0.001 A 
HETATM   31  C   UNL     1      -2.247   9.073 -30.773  1.00  0.00     0.010 A 
ENDBRANCH  24  25
ENDBRANCH  21  24
ENDBRANCH   3  20
TORSDOF 5
ENDMDL
MODEL 9
REMARK VINA RESULT:      -8.6      1.276      1.621
REMARK  5 active torsions:
REMARK  status: ('A' for Active; 'I' for Inactive)
REMARK    1  A    between atoms: C_5  and  N_6 
REMARK       I    between atoms: N_6  and  C_7 
REMARK       I    between atoms: C_7  and  N_8 
REMARK    2  A    between atoms: N_8  and  C_9 
REMARK    3  A    between atoms: C_11  and  C_12 
REMARK       I    between atoms: C_12  and  N_13 
REMARK    4  A    between atoms: N_13  and  C_14 
REMARK    5  A    between atoms: C_14  and  C_15 
ROOT
HETATM    1  C   UNL     1      -5.779   3.334 -32.203  1.00  0.00     0.175 A 
HETATM    2  S   UNL     1      -4.961   4.256 -31.040  1.00  0.00    -0.044 SA
HETATM    3  C   UNL     1      -4.189   5.146 -32.303  1.00  0.00     0.100 A 
HETATM    4  C   UNL     1      -4.585   4.626 -33.532  1.00  0.00     0.056 A 
HETATM    5  C   UNL     1      -4.212   5.086 -34.898  1.00  0.00     0.072 C 
HETATM    6  N   UNL     1      -5.496   3.575 -33.457  1.00  0.00    -0.228 NA
ENDROOT
BRANCH   1   7
HETATM    7  N   UNL     1      -6.682   2.442 -31.707  1.00  0.00    -0.287 N 
HETATM    8  C   UNL     1      -6.780   1.119 -32.038  1.00  0.00     0.326 C 
HETATM    9  N   UNL     1      -5.847   0.634 -32.916  1.00  0.00    -0.309 N 
HETATM   10  O   UNL     1      -7.705   0.478 -31.540  1.00  0.00    -0.247 OA
HETATM   11  H   UNL     1      -5.105   1.287 -33.152  1.00  0.00     0.170 HD
HETATM   12  H   UNL     1      -7.414   2.792 -31.108  1.00  0.00     0.172 HD
BRANCH   9  13
HETATM   13  C   UNL     1      -5.793  -0.632 -33.529  1.00  0.00     0.036 A 
HETATM   14  C   UNL     1      -4.651  -1.431 -33.575  1.00  0.00     0.030 A 
HETATM   15  C   UNL     1      -4.693  -2.696 -34.172  1.00  0.00     0.009 A 
HETATM   16  C   UNL     1      -5.878  -3.185 -34.729  1.00  0.00    -0.062 A 
HETATM   17  C   UNL     1      -5.904  -4.537 -35.378  1.00  0.00     0.048 C 
HETATM   18  C   UNL     1      -7.020  -2.379 -34.699  1.00  0.00     0.009 A 
HETATM   19  C   UNL     1      -6.977  -1.117 -34.097  1.00  0.00     0.030 A 
ENDBRANCH   9  13
ENDBRANCH   1   7
BRANCH   3  20
HETATM   20  C   UNL     1      -3.346   6.274 -31.941  1.00  0.00     0.260 C 
HETATM   21  N   UNL     1      -2.052   5.964 -31.581  1.00  0.00    -0.352 N 
HETATM   22  H   UNL     1      -1.803   5.013 -31.358  1.00  0.00     0.163 HD
HETATM   23  O   UNL     1      -3.732   7.442 -31.959  1.00  0.00    -0.267 OA
BRANCH  21  24
HETATM   24  C   UNL     1      -1.057   6.980 -31.324  1.00  0.00     0.163 C 
BRANCH  24  25
HETATM   25  C   UNL     1      -0.679   7.057 -29.869  1.00  0.00    -0.019 A 
HETATM   26  C   UNL     1      -1.087   8.110 -29.035  1.00  0.00     0.042 A 
HETATM   27 CL   UNL     1      -2.017   9.438 -29.640  1.00  0.00    -0.084 Cl
HETATM   28  C   UNL     1      -0.748   8.119 -27.678  1.00  0.00     0.024 A 
HETATM   29  C   UNL     1       0.009   7.079 -27.139  1.00  0.00     0.002 A 
HETATM   30  C   UNL     1       0.437   6.037 -27.957  1.00  0.00     0.001 A 
HETATM   31  C   UNL     1       0.101   6.029 -29.311  1.00  0.00     0.010 A 
ENDBRANCH  24  25
ENDBRANCH  21  24
ENDBRANCH   3  20
TORSDOF 5
ENDMDL
MODEL 10
REMARK VINA RESULT:      -8.5      4.414      7.475
REMARK  5 active torsions:
REMARK  status: ('A' for Active; 'I' for Inactive)
REMARK    1  A    between atoms: C_5  and  N_6 
REMARK       I    between atoms: N_6  and  C_7 
REMARK       I    between atoms: C_7  and  N_8 
REMARK    2  A    between atoms: N_8  and  C_9 
REMARK    3  A    between atoms: C_11  and  C_12 
REMARK       I    between atoms: C_12  and  N_13 
REMARK    4  A    between atoms: N_13  and  C_14 
REMARK    5  A    between atoms: C_14  and  C_15 
ROOT
HETATM    1  C   UNL     1      -4.403   2.784 -32.046  1.00  0.00     0.175 A 
HETATM    2  S   UNL     1      -6.014   3.184 -31.699  1.00  0.00    -0.044 SA
HETATM    3  C   UNL     1      -5.938   4.458 -32.863  1.00  0.00     0.100 A 
HETATM    4  C   UNL     1      -4.653   4.510 -33.395  1.00  0.00     0.056 A 
HETATM    5  C   UNL     1      -4.123   5.415 -34.452  1.00  0.00     0.072 C 
HETATM    6  N   UNL     1      -3.777   3.544 -32.908  1.00  0.00    -0.228 NA
ENDROOT
BRANCH   1   7
HETATM    7  N   UNL     1      -3.927   1.680 -31.404  1.00  0.00    -0.287 N 
HETATM    8  C   UNL     1      -4.047   0.385 -31.823  1.00  0.00     0.326 C 
HETATM    9  N   UNL     1      -4.660   0.184 -33.031  1.00  0.00    -0.309 N 
HETATM   10  O   UNL     1      -3.614  -0.493 -31.078  1.00  0.00    -0.247 OA
HETATM   11  H   UNL     1      -4.872   1.033 -33.548  1.00  0.00     0.170 HD
HETATM   12  H   UNL     1      -3.527   1.802 -30.486  1.00  0.00     0.172 HD
BRANCH   9  13
HETATM   13  C   UNL     1      -5.037  -1.032 -33.633  1.00  0.00     0.036 A 
HETATM   14  C   UNL     1      -4.163  -2.095 -33.863  1.00  0.00     0.030 A 
HETATM   15  C   UNL     1      -4.629  -3.286 -34.432  1.00  0.00     0.009 A 
HETATM   16  C   UNL     1      -5.975  -3.435 -34.778  1.00  0.00    -0.062 A 
HETATM   17  C   UNL     1      -6.456  -4.712 -35.401  1.00  0.00     0.048 C 
HETATM   18  C   UNL     1      -6.849  -2.365 -34.564  1.00  0.00     0.009 A 
HETATM   19  C   UNL     1      -6.383  -1.177 -33.990  1.00  0.00     0.030 A 
ENDBRANCH   9  13
ENDBRANCH   1   7
BRANCH   3  20
HETATM   20  C   UNL     1      -7.152   5.204 -33.155  1.00  0.00     0.260 C 
HETATM   21  N   UNL     1      -8.125   4.518 -33.850  1.00  0.00    -0.352 N 
HETATM   22  H   UNL     1      -7.897   3.655 -34.320  1.00  0.00     0.163 HD
HETATM   23  O   UNL     1      -7.332   6.368 -32.803  1.00  0.00    -0.267 OA
BRANCH  21  24
HETATM   24  C   UNL     1      -9.434   5.075 -34.100  1.00  0.00     0.163 C 
BRANCH  24  25
HETATM   25  C   UNL     1     -10.453   4.017 -34.431  1.00  0.00    -0.019 A 
HETATM   26  C   UNL     1     -10.728   2.936 -33.578  1.00  0.00     0.042 A 
HETATM   27 CL   UNL     1      -9.867   2.711 -32.095  1.00  0.00    -0.084 Cl
HETATM   28  C   UNL     1     -11.713   2.000 -33.907  1.00  0.00     0.024 A 
HETATM   29  C   UNL     1     -12.431   2.127 -35.097  1.00  0.00     0.002 A 
HETATM   30  C   UNL     1     -12.157   3.183 -35.962  1.00  0.00     0.001 A 
HETATM   31  C   UNL     1     -11.172   4.117 -35.635  1.00  0.00     0.010 A 
ENDBRANCH  24  25
ENDBRANCH  21  24
ENDBRANCH   3  20
TORSDOF 5
ENDMDL
