MODEL 1
REMARK VINA RESULT:      -8.8      0.000      0.000
REMARK  6 active torsions:
REMARK  status: ('A' for Active; 'I' for Inactive)
REMARK    1  A    between atoms: C_2  and  O_3 
REMARK    2  A    between atoms: C_2  and  C_4 
REMARK    3  A    between atoms: C_7  and  N_8 
REMARK       I    between atoms: N_8  and  C_9 
REMARK    4  A    between atoms: C_9  and  C_10 
REMARK    5  A    between atoms: C_15  and  C_16 
REMARK    6  A    between atoms: C_22  and  C_23 
ROOT
HETATM    1  C   UNL     1      -5.344   3.495 -31.891  1.00  0.00     0.148 A 
HETATM    2  N   UNL     1      -5.143   4.485 -32.794  1.00  0.00    -0.165 NA
HETATM    3  N   UNL     1      -3.850   4.811 -32.606  1.00  0.00    -0.240 N 
HETATM    4  C   UNL     1      -3.252   4.150 -31.572  1.00  0.00     0.123 A 
HETATM    5  N   UNL     1      -2.012   4.480 -31.161  1.00  0.00    -0.364 N 
HETATM    6  C   UNL     1      -1.378   5.759 -31.514  1.00  0.00     0.143 C 
HETATM    7  C   UNL     1      -2.346   6.680 -32.295  1.00  0.00     0.068 C 
HETATM    8  C   UNL     1      -3.213   5.912 -33.300  1.00  0.00     0.221 C 
HETATM    9  C   UNL     1      -4.162   3.224 -31.142  1.00  0.00     0.089 A 
HETATM   10  H   UNL     1      -1.564   3.981 -30.394  1.00  0.00     0.162 HD
ENDROOT
BRANCH   1  11
HETATM   11  C   UNL     1      -6.664   2.869 -31.689  1.00  0.00     0.276 C 
HETATM   12  N   UNL     1      -7.146   2.298 -32.850  1.00  0.00    -0.322 N 
HETATM   13  H   UNL     1      -6.484   2.330 -33.622  1.00  0.00     0.169 HD
HETATM   14  O   UNL     1      -7.231   2.916 -30.604  1.00  0.00    -0.266 OA
BRANCH  12  15
HETATM   15  C   UNL     1      -8.428   1.781 -33.096  1.00  0.00     0.035 A 
HETATM   16  C   UNL     1      -8.846   0.514 -32.685  1.00  0.00     0.030 A 
HETATM   17  C   UNL     1     -10.161   0.091 -32.909  1.00  0.00     0.012 A 
HETATM   18  C   UNL     1     -11.084   0.925 -33.552  1.00  0.00    -0.030 A 
HETATM   19  C   UNL     1     -10.652   2.183 -33.992  1.00  0.00     0.012 A 
HETATM   20  C   UNL     1      -9.339   2.608 -33.759  1.00  0.00     0.030 A 
BRANCH  18  21
HETATM   21  C   UNL     1     -12.504   0.454 -33.776  1.00  0.00     0.147 C 
HETATM   22  C   UNL     1     -13.528   1.516 -33.402  1.00  0.00     0.044 C 
BRANCH  21  23
HETATM   23  O   UNL     1     -12.762  -0.726 -33.015  1.00  0.00    -0.391 OA
HETATM   24  H   UNL     1     -13.497  -0.516 -32.412  1.00  0.00     0.210 HD
ENDBRANCH  21  23
ENDBRANCH  18  21
ENDBRANCH  12  15
ENDBRANCH   1  11
BRANCH   8  25
HETATM   25  C   UNL     1      -2.429   5.400 -34.487  1.00  0.00     0.409 C 
HETATM   26  F   UNL     1      -1.964   4.147 -34.290  1.00  0.00    -0.169 F 
HETATM   27  F   UNL     1      -3.239   5.344 -35.577  1.00  0.00    -0.169 F 
HETATM   28  F   UNL     1      -1.383   6.181 -34.826  1.00  0.00    -0.169 F 
ENDBRANCH   8  25
BRANCH   6  29
HETATM   29  C   UNL     1      -0.873   6.496 -30.309  1.00  0.00     0.075 A 
HETATM   30  O   UNL     1      -1.760   6.702 -29.294  1.00  0.00    -0.325 OA
HETATM   31  C   UNL     1      -1.094   7.370 -28.316  1.00  0.00     0.142 A 
HETATM   32  C   UNL     1       0.213   7.590 -28.685  1.00  0.00     0.027 A 
HETATM   33  C   UNL     1       0.359   7.025 -29.974  1.00  0.00     0.037 A 
ENDBRANCH   6  29
TORSDOF 6
ENDMDL
MODEL 2
REMARK VINA RESULT:      -8.6      3.789      4.568
REMARK  6 active torsions:
REMARK  status: ('A' for Active; 'I' for Inactive)
REMARK    1  A    between atoms: C_2  and  O_3 
REMARK    2  A    between atoms: C_2  and  C_4 
REMARK    3  A    between atoms: C_7  and  N_8 
REMARK       I    between atoms: N_8  and  C_9 
REMARK    4  A    between atoms: C_9  and  C_10 
REMARK    5  A    between atoms: C_15  and  C_16 
REMARK    6  A    between atoms: C_22  and  C_23 
ROOT
HETATM    1  C   UNL     1      -4.374   2.823 -31.576  1.00  0.00     0.148 A 
HETATM    2  N   UNL     1      -5.130   3.820 -31.054  1.00  0.00    -0.165 NA
HETATM    3  N   UNL     1      -4.291   4.873 -31.062  1.00  0.00    -0.240 N 
HETATM    4  C   UNL     1      -3.022   4.575 -31.468  1.00  0.00     0.123 A 
HETATM    5  N   UNL     1      -2.033   5.485 -31.380  1.00  0.00    -0.364 N 
HETATM    6  C   UNL     1      -2.134   6.682 -30.533  1.00  0.00     0.143 C 
HETATM    7  C   UNL     1      -3.440   6.685 -29.703  1.00  0.00     0.068 C 
HETATM    8  C   UNL     1      -4.645   6.158 -30.491  1.00  0.00     0.221 C 
HETATM    9  C   UNL     1      -3.061   3.276 -31.895  1.00  0.00     0.089 A 
HETATM   10  H   UNL     1      -1.087   5.263 -31.691  1.00  0.00     0.162 HD
ENDROOT
BRANCH   1  11
HETATM   11  C   UNL     1      -4.870   1.440 -31.696  1.00  0.00     0.276 C 
HETATM   12  N   UNL     1      -4.293   0.776 -32.761  1.00  0.00    -0.322 N 
HETATM   13  H   UNL     1      -3.570   1.317 -33.231  1.00  0.00     0.169 HD
HETATM   14  O   UNL     1      -5.721   1.000 -30.932  1.00  0.00    -0.266 OA
BRANCH  12  15
HETATM   15  C   UNL     1      -4.643  -0.473 -33.298  1.00  0.00     0.035 A 
HETATM   16  C   UNL     1      -5.770  -0.687 -34.094  1.00  0.00     0.030 A 
HETATM   17  C   UNL     1      -6.021  -1.947 -34.649  1.00  0.00     0.012 A 
HETATM   18  C   UNL     1      -5.151  -3.020 -34.416  1.00  0.00    -0.030 A 
HETATM   19  C   UNL     1      -4.039  -2.809 -33.590  1.00  0.00     0.012 A 
HETATM   20  C   UNL     1      -3.785  -1.547 -33.044  1.00  0.00     0.030 A 
BRANCH  18  21
HETATM   21  C   UNL     1      -5.433  -4.371 -35.033  1.00  0.00     0.147 C 
HETATM   22  C   UNL     1      -6.921  -4.611 -35.241  1.00  0.00     0.044 C 
BRANCH  21  23
HETATM   23  O   UNL     1      -4.908  -5.413 -34.211  1.00  0.00    -0.391 OA
HETATM   24  H   UNL     1      -5.664  -5.957 -33.930  1.00  0.00     0.210 HD
ENDBRANCH  21  23
ENDBRANCH  18  21
ENDBRANCH  12  15
ENDBRANCH   1  11
BRANCH   8  25
HETATM   25  C   UNL     1      -5.101   7.105 -31.577  1.00  0.00     0.409 C 
HETATM   26  F   UNL     1      -4.722   6.694 -32.807  1.00  0.00    -0.169 F 
HETATM   27  F   UNL     1      -6.459   7.162 -31.591  1.00  0.00    -0.169 F 
HETATM   28  F   UNL     1      -4.666   8.371 -31.413  1.00  0.00    -0.169 F 
ENDBRANCH   8  25
BRANCH   6  29
HETATM   29  C   UNL     1      -0.967   6.822 -29.602  1.00  0.00     0.075 A 
HETATM   30  O   UNL     1      -0.310   5.677 -29.258  1.00  0.00    -0.325 OA
HETATM   31  C   UNL     1       0.704   6.037 -28.428  1.00  0.00     0.142 A 
HETATM   32  C   UNL     1       0.712   7.400 -28.237  1.00  0.00     0.027 A 
HETATM   33  C   UNL     1      -0.367   7.910 -28.996  1.00  0.00     0.037 A 
ENDBRANCH   6  29
TORSDOF 6
ENDMDL
MODEL 3
REMARK VINA RESULT:      -8.5      3.844      9.660
REMARK  6 active torsions:
REMARK  status: ('A' for Active; 'I' for Inactive)
REMARK    1  A    between atoms: C_2  and  O_3 
REMARK    2  A    between atoms: C_2  and  C_4 
REMARK    3  A    between atoms: C_7  and  N_8 
REMARK       I    between atoms: N_8  and  C_9 
REMARK    4  A    between atoms: C_9  and  C_10 
REMARK    5  A    between atoms: C_15  and  C_16 
REMARK    6  A    between atoms: C_22  and  C_23 
ROOT
HETATM    1  C   UNL     1      -5.271   2.879 -33.096  1.00  0.00     0.148 A 
HETATM    2  N   UNL     1      -6.286   2.843 -33.993  1.00  0.00    -0.165 NA
HETATM    3  N   UNL     1      -6.786   1.603 -33.837  1.00  0.00    -0.240 N 
HETATM    4  C   UNL     1      -6.086   0.824 -32.961  1.00  0.00     0.123 A 
HETATM    5  N   UNL     1      -6.369  -0.485 -32.817  1.00  0.00    -0.364 N 
HETATM    6  C   UNL     1      -7.153  -1.237 -33.808  1.00  0.00     0.143 C 
HETATM    7  C   UNL     1      -7.491  -0.372 -35.045  1.00  0.00     0.068 C 
HETATM    8  C   UNL     1      -7.843   1.076 -34.677  1.00  0.00     0.221 C 
HETATM    9  C   UNL     1      -5.152   1.645 -32.394  1.00  0.00     0.089 A 
HETATM   10  H   UNL     1      -5.850  -1.064 -32.158  1.00  0.00     0.162 HD
ENDROOT
BRANCH   1  11
HETATM   11  C   UNL     1      -4.378   4.046 -32.963  1.00  0.00     0.276 C 
HETATM   12  N   UNL     1      -3.650   4.006 -31.790  1.00  0.00    -0.322 N 
HETATM   13  H   UNL     1      -3.786   3.149 -31.258  1.00  0.00     0.169 HD
HETATM   14  O   UNL     1      -4.358   4.930 -33.810  1.00  0.00    -0.266 OA
BRANCH  12  15
HETATM   15  C   UNL     1      -2.846   5.013 -31.233  1.00  0.00     0.035 A 
HETATM   16  C   UNL     1      -3.353   6.143 -30.590  1.00  0.00     0.030 A 
HETATM   17  C   UNL     1      -2.491   7.075 -30.001  1.00  0.00     0.012 A 
HETATM   18  C   UNL     1      -1.102   6.896 -30.047  1.00  0.00    -0.030 A 
HETATM   19  C   UNL     1      -0.596   5.778 -30.722  1.00  0.00     0.012 A 
HETATM   20  C   UNL     1      -1.460   4.843 -31.302  1.00  0.00     0.030 A 
BRANCH  18  21
HETATM   21  C   UNL     1      -0.186   7.908 -29.395  1.00  0.00     0.147 C 
HETATM   22  C   UNL     1       0.746   7.269 -28.377  1.00  0.00     0.044 C 
BRANCH  21  23
HETATM   23  O   UNL     1      -0.950   8.926 -28.748  1.00  0.00    -0.391 OA
HETATM   24  H   UNL     1      -1.737   9.079 -29.299  1.00  0.00     0.210 HD
ENDBRANCH  21  23
ENDBRANCH  18  21
ENDBRANCH  12  15
ENDBRANCH   1  11
BRANCH   8  25
HETATM   25  C   UNL     1      -9.178   1.199 -33.979  1.00  0.00     0.409 C 
HETATM   26  F   UNL     1      -9.678  -0.002 -33.615  1.00  0.00    -0.169 F 
HETATM   27  F   UNL     1      -9.028   1.917 -32.834  1.00  0.00    -0.169 F 
HETATM   28  F   UNL     1     -10.117   1.834 -34.709  1.00  0.00    -0.169 F 
ENDBRANCH   8  25
BRANCH   6  29
HETATM   29  C   UNL     1      -6.450  -2.482 -34.265  1.00  0.00     0.075 A 
HETATM   30  O   UNL     1      -5.093  -2.509 -34.133  1.00  0.00    -0.325 OA
HETATM   31  C   UNL     1      -4.675  -3.717 -34.593  1.00  0.00     0.142 A 
HETATM   32  C   UNL     1      -5.746  -4.471 -35.014  1.00  0.00     0.027 A 
HETATM   33  C   UNL     1      -6.896  -3.674 -34.802  1.00  0.00     0.037 A 
ENDBRANCH   6  29
TORSDOF 6
ENDMDL
MODEL 4
REMARK VINA RESULT:      -8.4      5.278      7.460
REMARK  6 active torsions:
REMARK  status: ('A' for Active; 'I' for Inactive)
REMARK    1  A    between atoms: C_2  and  O_3 
REMARK    2  A    between atoms: C_2  and  C_4 
REMARK    3  A    between atoms: C_7  and  N_8 
REMARK       I    between atoms: N_8  and  C_9 
REMARK    4  A    between atoms: C_9  and  C_10 
REMARK    5  A    between atoms: C_15  and  C_16 
REMARK    6  A    between atoms: C_22  and  C_23 
ROOT
HETATM    1  C   UNL     1      -9.919   2.226 -33.347  1.00  0.00     0.148 A 
HETATM    2  N   UNL     1      -9.491   1.877 -32.110  1.00  0.00    -0.165 NA
HETATM    3  N   UNL     1      -8.248   1.413 -32.338  1.00  0.00    -0.240 N 
HETATM    4  C   UNL     1      -7.904   1.360 -33.658  1.00  0.00     0.123 A 
HETATM    5  N   UNL     1      -6.758   0.774 -34.055  1.00  0.00    -0.364 N 
HETATM    6  C   UNL     1      -6.002  -0.146 -33.192  1.00  0.00     0.143 C 
HETATM    7  C   UNL     1      -6.744  -0.423 -31.863  1.00  0.00     0.068 C 
HETATM    8  C   UNL     1      -7.429   0.827 -31.295  1.00  0.00     0.221 C 
HETATM    9  C   UNL     1      -8.928   1.962 -34.336  1.00  0.00     0.089 A 
HETATM   10  H   UNL     1      -6.500   0.741 -35.040  1.00  0.00     0.162 HD
ENDROOT
BRANCH   1  11
HETATM   11  C   UNL     1     -11.283   2.730 -33.595  1.00  0.00     0.276 C 
HETATM   12  N   UNL     1     -12.048   2.730 -32.445  1.00  0.00    -0.322 N 
HETATM   13  H   UNL     1     -11.528   2.464 -31.612  1.00  0.00     0.169 HD
HETATM   14  O   UNL     1     -11.645   3.061 -34.717  1.00  0.00    -0.266 OA
BRANCH  12  15
HETATM   15  C   UNL     1     -13.428   2.960 -32.321  1.00  0.00     0.035 A 
HETATM   16  C   UNL     1     -13.976   4.151 -31.843  1.00  0.00     0.030 A 
HETATM   17  C   UNL     1     -15.363   4.333 -31.808  1.00  0.00     0.012 A 
HETATM   18  C   UNL     1     -16.231   3.325 -32.247  1.00  0.00    -0.030 A 
HETATM   19  C   UNL     1     -15.678   2.118 -32.695  1.00  0.00     0.012 A 
HETATM   20  C   UNL     1     -14.290   1.942 -32.738  1.00  0.00     0.030 A 
BRANCH  18  21
HETATM   21  C   UNL     1     -17.727   3.544 -32.212  1.00  0.00     0.147 C 
HETATM   22  C   UNL     1     -18.150   4.447 -31.063  1.00  0.00     0.044 C 
BRANCH  21  23
HETATM   23  O   UNL     1     -18.410   2.296 -32.095  1.00  0.00    -0.391 OA
HETATM   24  H   UNL     1     -18.188   1.779 -32.889  1.00  0.00     0.210 HD
ENDBRANCH  21  23
ENDBRANCH  18  21
ENDBRANCH  12  15
ENDBRANCH   1  11
BRANCH   8  25
HETATM   25  C   UNL     1      -6.448   1.847 -30.764  1.00  0.00     0.409 C 
HETATM   26  F   UNL     1      -6.242   2.860 -31.634  1.00  0.00    -0.169 F 
HETATM   27  F   UNL     1      -6.947   2.409 -29.630  1.00  0.00    -0.169 F 
HETATM   28  F   UNL     1      -5.247   1.329 -30.439  1.00  0.00    -0.169 F 
ENDBRANCH   8  25
BRANCH   6  29
HETATM   29  C   UNL     1      -5.714  -1.454 -33.869  1.00  0.00     0.075 A 
HETATM   30  O   UNL     1      -4.438  -1.928 -33.779  1.00  0.00    -0.325 OA
HETATM   31  C   UNL     1      -4.409  -3.112 -34.445  1.00  0.00     0.142 A 
HETATM   32  C   UNL     1      -5.651  -3.410 -34.957  1.00  0.00     0.027 A 
HETATM   33  C   UNL     1      -6.497  -2.339 -34.584  1.00  0.00     0.037 A 
ENDBRANCH   6  29
TORSDOF 6
ENDMDL
MODEL 5
REMARK VINA RESULT:      -8.2      2.825      9.910
REMARK  6 active torsions:
REMARK  status: ('A' for Active; 'I' for Inactive)
REMARK    1  A    between atoms: C_2  and  O_3 
REMARK    2  A    between atoms: C_2  and  C_4 
REMARK    3  A    between atoms: C_7  and  N_8 
REMARK       I    between atoms: N_8  and  C_9 
REMARK    4  A    between atoms: C_9  and  C_10 
REMARK    5  A    between atoms: C_15  and  C_16 
REMARK    6  A    between atoms: C_22  and  C_23 
ROOT
HETATM    1  C   UNL     1      -2.761   3.827 -31.968  1.00  0.00     0.148 A 
HETATM    2  N   UNL     1      -2.674   2.698 -31.222  1.00  0.00    -0.165 NA
HETATM    3  N   UNL     1      -3.600   1.894 -31.778  1.00  0.00    -0.240 N 
HETATM    4  C   UNL     1      -4.331   2.485 -32.768  1.00  0.00     0.123 A 
HETATM    5  N   UNL     1      -5.396   1.863 -33.310  1.00  0.00    -0.364 N 
HETATM    6  C   UNL     1      -6.061   0.725 -32.661  1.00  0.00     0.143 C 
HETATM    7  C   UNL     1      -5.458   0.431 -31.266  1.00  0.00     0.068 C 
HETATM    8  C   UNL     1      -3.933   0.593 -31.234  1.00  0.00     0.221 C 
HETATM    9  C   UNL     1      -3.756   3.707 -32.980  1.00  0.00     0.089 A 
HETATM   10  H   UNL     1      -5.937   2.303 -34.055  1.00  0.00     0.162 HD
ENDROOT
BRANCH   1  11
HETATM   11  C   UNL     1      -1.962   5.030 -31.670  1.00  0.00     0.276 C 
HETATM   12  N   UNL     1      -1.398   4.975 -30.410  1.00  0.00    -0.322 N 
HETATM   13  H   UNL     1      -1.558   4.090 -29.933  1.00  0.00     0.169 HD
HETATM   14  O   UNL     1      -1.876   5.951 -32.473  1.00  0.00    -0.266 OA
BRANCH  12  15
HETATM   15  C   UNL     1      -0.736   5.997 -29.710  1.00  0.00     0.035 A 
HETATM   16  C   UNL     1      -1.191   7.314 -29.647  1.00  0.00     0.030 A 
HETATM   17  C   UNL     1      -0.514   8.265 -28.875  1.00  0.00     0.012 A 
HETATM   18  C   UNL     1       0.636   7.918 -28.155  1.00  0.00    -0.030 A 
HETATM   19  C   UNL     1       1.108   6.602 -28.247  1.00  0.00     0.012 A 
HETATM   20  C   UNL     1       0.424   5.650 -29.011  1.00  0.00     0.030 A 
BRANCH  18  21
HETATM   21  C   UNL     1       1.349   8.957 -27.318  1.00  0.00     0.147 C 
HETATM   22  C   UNL     1       1.975   8.358 -26.067  1.00  0.00     0.044 C 
BRANCH  21  23
HETATM   23  O   UNL     1       0.444   9.992 -26.933  1.00  0.00    -0.391 OA
HETATM   24  H   UNL     1      -0.289   9.562 -26.459  1.00  0.00     0.210 HD
ENDBRANCH  21  23
ENDBRANCH  18  21
ENDBRANCH  12  15
ENDBRANCH   1  11
BRANCH   8  25
HETATM   25  C   UNL     1      -3.208  -0.494 -31.994  1.00  0.00     0.409 C 
HETATM   26  F   UNL     1      -2.009  -0.788 -31.445  1.00  0.00    -0.169 F 
HETATM   27  F   UNL     1      -3.939  -1.639 -31.958  1.00  0.00    -0.169 F 
HETATM   28  F   UNL     1      -3.007  -0.207 -33.296  1.00  0.00    -0.169 F 
ENDBRANCH   8  25
BRANCH   6  29
HETATM   29  C   UNL     1      -7.539   0.935 -32.515  1.00  0.00     0.075 A 
HETATM   30  O   UNL     1      -8.340  -0.152 -32.711  1.00  0.00    -0.325 OA
HETATM   31  C   UNL     1      -9.620   0.262 -32.521  1.00  0.00     0.142 A 
HETATM   32  C   UNL     1      -9.654   1.600 -32.201  1.00  0.00     0.027 A 
HETATM   33  C   UNL     1      -8.309   2.037 -32.196  1.00  0.00     0.037 A 
ENDBRANCH   6  29
TORSDOF 6
ENDMDL
MODEL 6
REMARK VINA RESULT:      -8.0      3.425      9.808
REMARK  6 active torsions:
REMARK  status: ('A' for Active; 'I' for Inactive)
REMARK    1  A    between atoms: C_2  and  O_3 
REMARK    2  A    between atoms: C_2  and  C_4 
REMARK    3  A    between atoms: C_7  and  N_8 
REMARK       I    between atoms: N_8  and  C_9 
REMARK    4  A    between atoms: C_9  and  C_10 
REMARK    5  A    between atoms: C_15  and  C_16 
REMARK    6  A    between atoms: C_22  and  C_23 
ROOT
HETATM    1  C   UNL     1      -3.389   4.139 -32.096  1.00  0.00     0.148 A 
HETATM    2  N   UNL     1      -4.202   4.470 -33.129  1.00  0.00    -0.165 NA
HETATM    3  N   UNL     1      -5.116   3.482 -33.126  1.00  0.00    -0.240 N 
HETATM    4  C   UNL     1      -4.871   2.497 -32.213  1.00  0.00     0.123 A 
HETATM    5  N   UNL     1      -5.604   1.367 -32.196  1.00  0.00    -0.364 N 
HETATM    6  C   UNL     1      -6.435   0.948 -33.335  1.00  0.00     0.143 C 
HETATM    7  C   UNL     1      -6.259   1.893 -34.548  1.00  0.00     0.068 C 
HETATM    8  C   UNL     1      -6.145   3.367 -34.139  1.00  0.00     0.221 C 
HETATM    9  C   UNL     1      -3.811   2.933 -31.467  1.00  0.00     0.089 A 
HETATM   10  H   UNL     1      -5.425   0.635 -31.509  1.00  0.00     0.162 HD
ENDROOT
BRANCH   1  11
HETATM   11  C   UNL     1      -2.182   4.919 -31.763  1.00  0.00     0.276 C 
HETATM   12  N   UNL     1      -2.170   5.307 -30.437  1.00  0.00    -0.322 N 
HETATM   13  H   UNL     1      -2.944   4.927 -29.897  1.00  0.00     0.169 HD
HETATM   14  O   UNL     1      -1.344   5.188 -32.614  1.00  0.00    -0.266 OA
BRANCH  12  15
HETATM   15  C   UNL     1      -1.294   6.203 -29.803  1.00  0.00     0.035 A 
HETATM   16  C   UNL     1      -1.577   7.555 -29.606  1.00  0.00     0.030 A 
HETATM   17  C   UNL     1      -0.683   8.375 -28.908  1.00  0.00     0.012 A 
HETATM   18  C   UNL     1       0.514   7.859 -28.396  1.00  0.00    -0.030 A 
HETATM   19  C   UNL     1       0.810   6.509 -28.625  1.00  0.00     0.012 A 
HETATM   20  C   UNL     1      -0.090   5.689 -29.314  1.00  0.00     0.030 A 
BRANCH  18  21
HETATM   21  C   UNL     1       1.463   8.758 -27.635  1.00  0.00     0.147 C 
HETATM   22  C   UNL     1       1.990   8.099 -26.369  1.00  0.00     0.044 C 
BRANCH  21  23
HETATM   23  O   UNL     1       0.815   9.981 -27.284  1.00  0.00    -0.391 OA
HETATM   24  H   UNL     1       0.947  10.105 -26.328  1.00  0.00     0.210 HD
ENDBRANCH  21  23
ENDBRANCH  18  21
ENDBRANCH  12  15
ENDBRANCH   1  11
BRANCH   8  25
HETATM   25  C   UNL     1      -7.448   3.941 -33.630  1.00  0.00     0.409 C 
HETATM   26  F   UNL     1      -7.638   5.216 -34.035  1.00  0.00    -0.169 F 
HETATM   27  F   UNL     1      -8.487   3.220 -34.127  1.00  0.00    -0.169 F 
HETATM   28  F   UNL     1      -7.568   3.912 -32.287  1.00  0.00    -0.169 F 
ENDBRANCH   8  25
BRANCH   6  29
HETATM   29  C   UNL     1      -6.140  -0.458 -33.768  1.00  0.00     0.075 A 
HETATM   30  O   UNL     1      -7.198  -1.209 -34.190  1.00  0.00    -0.325 OA
HETATM   31  C   UNL     1      -6.704  -2.425 -34.538  1.00  0.00     0.142 A 
HETATM   32  C   UNL     1      -5.341  -2.466 -34.353  1.00  0.00     0.027 A 
HETATM   33  C   UNL     1      -4.974  -1.193 -33.855  1.00  0.00     0.037 A 
ENDBRANCH   6  29
TORSDOF 6
ENDMDL
MODEL 7
REMARK VINA RESULT:      -8.0      3.155     10.428
REMARK  6 active torsions:
REMARK  status: ('A' for Active; 'I' for Inactive)
REMARK    1  A    between atoms: C_2  and  O_3 
REMARK    2  A    between atoms: C_2  and  C_4 
REMARK    3  A    between atoms: C_7  and  N_8 
REMARK       I    between atoms: N_8  and  C_9 
REMARK    4  A    between atoms: C_9  and  C_10 
REMARK    5  A    between atoms: C_15  and  C_16 
REMARK    6  A    between atoms: C_22  and  C_23 
ROOT
HETATM    1  C   UNL     1      -2.394   6.849 -29.893  1.00  0.00     0.148 A 
HETATM    2  N   UNL     1      -1.536   6.351 -30.816  1.00  0.00    -0.165 NA
HETATM    3  N   UNL     1      -2.353   5.737 -31.692  1.00  0.00    -0.240 N 
HETATM    4  C   UNL     1      -3.668   5.738 -31.325  1.00  0.00     0.123 A 
HETATM    5  N   UNL     1      -4.583   5.030 -32.015  1.00  0.00    -0.364 N 
HETATM    6  C   UNL     1      -4.211   3.951 -32.942  1.00  0.00     0.143 C 
HETATM    7  C   UNL     1      -2.688   3.679 -32.920  1.00  0.00     0.068 C 
HETATM    8  C   UNL     1      -1.858   4.966 -32.814  1.00  0.00     0.221 C 
HETATM    9  C   UNL     1      -3.745   6.527 -30.210  1.00  0.00     0.089 A 
HETATM   10  H   UNL     1      -5.565   5.037 -31.744  1.00  0.00     0.162 HD
ENDROOT
BRANCH   1  11
HETATM   11  C   UNL     1      -1.928   7.556 -28.685  1.00  0.00     0.276 C 
HETATM   12  N   UNL     1      -0.593   7.900 -28.773  1.00  0.00    -0.322 N 
HETATM   13  H   UNL     1      -0.178   7.685 -29.676  1.00  0.00     0.169 HD
HETATM   14  O   UNL     1      -2.676   7.753 -27.735  1.00  0.00    -0.266 OA
BRANCH  12  15
HETATM   15  C   UNL     1       0.240   8.408 -27.763  1.00  0.00     0.035 A 
HETATM   16  C   UNL     1       0.163   9.714 -27.278  1.00  0.00     0.030 A 
HETATM   17  C   UNL     1       0.984  10.131 -26.224  1.00  0.00     0.012 A 
HETATM   18  C   UNL     1       1.901   9.251 -25.636  1.00  0.00    -0.030 A 
HETATM   19  C   UNL     1       1.998   7.950 -26.148  1.00  0.00     0.012 A 
HETATM   20  C   UNL     1       1.170   7.532 -27.195  1.00  0.00     0.030 A 
BRANCH  18  21
HETATM   21  C   UNL     1       2.772   9.717 -24.490  1.00  0.00     0.147 C 
HETATM   22  C   UNL     1       2.182   9.356 -23.135  1.00  0.00     0.044 C 
BRANCH  21  23
HETATM   23  O   UNL     1       2.959  11.131 -24.551  1.00  0.00    -0.391 OA
HETATM   24  H   UNL     1       3.734  11.287 -25.119  1.00  0.00     0.210 HD
ENDBRANCH  21  23
ENDBRANCH  18  21
ENDBRANCH  12  15
ENDBRANCH   1  11
BRANCH   8  25
HETATM   25  C   UNL     1      -1.891   5.796 -34.077  1.00  0.00     0.409 C 
HETATM   26  F   UNL     1      -0.755   6.504 -34.253  1.00  0.00    -0.169 F 
HETATM   27  F   UNL     1      -2.007   4.977 -35.156  1.00  0.00    -0.169 F 
HETATM   28  F   UNL     1      -2.928   6.656 -34.135  1.00  0.00    -0.169 F 
ENDBRANCH   8  25
BRANCH   6  29
HETATM   29  C   UNL     1      -4.936   2.671 -32.646  1.00  0.00     0.075 A 
HETATM   30  O   UNL     1      -5.839   2.244 -33.575  1.00  0.00    -0.325 OA
HETATM   31  C   UNL     1      -6.360   1.078 -33.111  1.00  0.00     0.142 A 
HETATM   32  C   UNL     1      -5.800   0.745 -31.899  1.00  0.00     0.027 A 
HETATM   33  C   UNL     1      -4.878   1.775 -31.597  1.00  0.00     0.037 A 
ENDBRANCH   6  29
TORSDOF 6
ENDMDL
MODEL 8
REMARK VINA RESULT:      -7.9      4.040      4.862
REMARK  6 active torsions:
REMARK  status: ('A' for Active; 'I' for Inactive)
REMARK    1  A    between atoms: C_2  and  O_3 
REMARK    2  A    between atoms: C_2  and  C_4 
REMARK    3  A    between atoms: C_7  and  N_8 
REMARK       I    between atoms: N_8  and  C_9 
REMARK    4  A    between atoms: C_9  and  C_10 
REMARK    5  A    between atoms: C_15  and  C_16 
REMARK    6  A    between atoms: C_22  and  C_23 
ROOT
HETATM    1  C   UNL     1      -4.723   2.776 -31.829  1.00  0.00     0.148 A 
HETATM    2  N   UNL     1      -3.886   3.463 -32.644  1.00  0.00    -0.165 NA
HETATM    3  N   UNL     1      -3.621   4.578 -31.937  1.00  0.00    -0.240 N 
HETATM    4  C   UNL     1      -4.317   4.677 -30.767  1.00  0.00     0.123 A 
HETATM    5  N   UNL     1      -4.279   5.803 -30.029  1.00  0.00    -0.364 N 
HETATM    6  C   UNL     1      -3.820   7.089 -30.575  1.00  0.00     0.143 C 
HETATM    7  C   UNL     1      -3.512   6.991 -32.088  1.00  0.00     0.068 C 
HETATM    8  C   UNL     1      -2.830   5.670 -32.468  1.00  0.00     0.221 C 
HETATM    9  C   UNL     1      -4.974   3.487 -30.620  1.00  0.00     0.089 A 
HETATM   10  H   UNL     1      -4.794   5.873 -29.152  1.00  0.00     0.162 HD
ENDROOT
BRANCH   1  11
HETATM   11  C   UNL     1      -5.338   1.497 -32.231  1.00  0.00     0.276 C 
HETATM   12  N   UNL     1      -4.395   0.589 -32.673  1.00  0.00    -0.322 N 
HETATM   13  H   UNL     1      -3.438   0.919 -32.573  1.00  0.00     0.169 HD
HETATM   14  O   UNL     1      -6.551   1.333 -32.188  1.00  0.00    -0.266 OA
BRANCH  12  15
HETATM   15  C   UNL     1      -4.610  -0.648 -33.301  1.00  0.00     0.035 A 
HETATM   16  C   UNL     1      -3.852  -1.791 -33.043  1.00  0.00     0.030 A 
HETATM   17  C   UNL     1      -4.165  -3.007 -33.661  1.00  0.00     0.012 A 
HETATM   18  C   UNL     1      -5.241  -3.104 -34.552  1.00  0.00    -0.030 A 
HETATM   19  C   UNL     1      -5.979  -1.947 -34.834  1.00  0.00     0.012 A 
HETATM   20  C   UNL     1      -5.671  -0.734 -34.208  1.00  0.00     0.030 A 
BRANCH  18  21
HETATM   21  C   UNL     1      -5.571  -4.430 -35.201  1.00  0.00     0.147 C 
HETATM   22  C   UNL     1      -7.070  -4.677 -35.275  1.00  0.00     0.044 C 
BRANCH  21  23
HETATM   23  O   UNL     1      -4.960  -5.501 -34.483  1.00  0.00    -0.391 OA
HETATM   24  H   UNL     1      -5.650  -6.172 -34.340  1.00  0.00     0.210 HD
ENDBRANCH  21  23
ENDBRANCH  18  21
ENDBRANCH  12  15
ENDBRANCH   1  11
BRANCH   8  25
HETATM   25  C   UNL     1      -1.406   5.576 -31.971  1.00  0.00     0.409 C 
HETATM   26  F   UNL     1      -1.306   4.843 -30.840  1.00  0.00    -0.169 F 
HETATM   27  F   UNL     1      -0.639   4.951 -32.903  1.00  0.00    -0.169 F 
HETATM   28  F   UNL     1      -0.830   6.773 -31.740  1.00  0.00    -0.169 F 
ENDBRANCH   8  25
BRANCH   6  29
HETATM   29  C   UNL     1      -4.815   8.190 -30.353  1.00  0.00     0.075 A 
HETATM   30  O   UNL     1      -4.586   9.369 -30.998  1.00  0.00    -0.325 OA
HETATM   31  C   UNL     1      -5.603  10.206 -30.665  1.00  0.00     0.142 A 
HETATM   32  C   UNL     1      -6.489   9.578 -29.820  1.00  0.00     0.027 A 
HETATM   33  C   UNL     1      -5.982   8.273 -29.617  1.00  0.00     0.037 A 
ENDBRANCH   6  29
TORSDOF 6
ENDMDL
MODEL 9
REMARK VINA RESULT:      -7.9      2.802      3.933
REMARK  6 active torsions:
REMARK  status: ('A' for Active; 'I' for Inactive)
REMARK    1  A    between atoms: C_2  and  O_3 
REMARK    2  A    between atoms: C_2  and  C_4 
REMARK    3  A    between atoms: C_7  and  N_8 
REMARK       I    between atoms: N_8  and  C_9 
REMARK    4  A    between atoms: C_9  and  C_10 
REMARK    5  A    between atoms: C_15  and  C_16 
REMARK    6  A    between atoms: C_22  and  C_23 
ROOT
HETATM    1  C   UNL     1      -7.527   2.135 -31.207  1.00  0.00     0.148 A 
HETATM    2  N   UNL     1      -6.782   1.246 -31.908  1.00  0.00    -0.165 NA
HETATM    3  N   UNL     1      -5.519   1.605 -31.611  1.00  0.00    -0.240 N 
HETATM    4  C   UNL     1      -5.424   2.727 -30.839  1.00  0.00     0.123 A 
HETATM    5  N   UNL     1      -4.231   3.300 -30.589  1.00  0.00    -0.364 N 
HETATM    6  C   UNL     1      -3.033   3.010 -31.391  1.00  0.00     0.143 C 
HETATM    7  C   UNL     1      -3.356   2.081 -32.585  1.00  0.00     0.068 C 
HETATM    8  C   UNL     1      -4.364   0.982 -32.225  1.00  0.00     0.221 C 
HETATM    9  C   UNL     1      -6.705   3.047 -30.484  1.00  0.00     0.089 A 
HETATM   10  H   UNL     1      -4.161   4.134 -30.007  1.00  0.00     0.162 HD
ENDROOT
BRANCH   1  11
HETATM   11  C   UNL     1      -8.999   2.164 -31.287  1.00  0.00     0.276 C 
HETATM   12  N   UNL     1      -9.470   1.442 -32.366  1.00  0.00    -0.322 N 
HETATM   13  H   UNL     1      -8.740   0.948 -32.873  1.00  0.00     0.169 HD
HETATM   14  O   UNL     1      -9.667   2.802 -30.482  1.00  0.00    -0.266 OA
BRANCH  12  15
HETATM   15  C   UNL     1     -10.780   1.391 -32.871  1.00  0.00     0.035 A 
HETATM   16  C   UNL     1     -11.412   0.213 -33.269  1.00  0.00     0.030 A 
HETATM   17  C   UNL     1     -12.743   0.230 -33.702  1.00  0.00     0.012 A 
HETATM   18  C   UNL     1     -13.467   1.429 -33.749  1.00  0.00    -0.030 A 
HETATM   19  C   UNL     1     -12.818   2.614 -33.379  1.00  0.00     0.012 A 
HETATM   20  C   UNL     1     -11.491   2.593 -32.937  1.00  0.00     0.030 A 
BRANCH  18  21
HETATM   21  C   UNL     1     -14.908   1.426 -34.209  1.00  0.00     0.147 C 
HETATM   22  C   UNL     1     -15.871   1.786 -33.088  1.00  0.00     0.044 C 
BRANCH  21  23
HETATM   23  O   UNL     1     -15.262   0.145 -34.730  1.00  0.00    -0.391 OA
HETATM   24  H   UNL     1     -14.962   0.126 -35.655  1.00  0.00     0.210 HD
ENDBRANCH  21  23
ENDBRANCH  18  21
ENDBRANCH  12  15
ENDBRANCH   1  11
BRANCH   8  25
HETATM   25  C   UNL     1      -3.786  -0.071 -31.308  1.00  0.00     0.409 C 
HETATM   26  F   UNL     1      -4.100  -1.324 -31.705  1.00  0.00    -0.169 F 
HETATM   27  F   UNL     1      -2.429   0.008 -31.322  1.00  0.00    -0.169 F 
HETATM   28  F   UNL     1      -4.165   0.061 -30.020  1.00  0.00    -0.169 F 
ENDBRANCH   8  25
BRANCH   6  29
HETATM   29  C   UNL     1      -2.379   4.257 -31.909  1.00  0.00     0.075 A 
HETATM   30  O   UNL     1      -2.217   5.283 -31.025  1.00  0.00    -0.325 OA
HETATM   31  C   UNL     1      -1.604   6.291 -31.699  1.00  0.00     0.142 A 
HETATM   32  C   UNL     1      -1.362   5.925 -33.003  1.00  0.00     0.027 A 
HETATM   33  C   UNL     1      -1.862   4.609 -33.141  1.00  0.00     0.037 A 
ENDBRANCH   6  29
TORSDOF 6
ENDMDL
MODEL 10
REMARK VINA RESULT:      -7.8      2.697      9.800
REMARK  6 active torsions:
REMARK  status: ('A' for Active; 'I' for Inactive)
REMARK    1  A    between atoms: C_2  and  O_3 
REMARK    2  A    between atoms: C_2  and  C_4 
REMARK    3  A    between atoms: C_7  and  N_8 
REMARK       I    between atoms: N_8  and  C_9 
REMARK    4  A    between atoms: C_9  and  C_10 
REMARK    5  A    between atoms: C_15  and  C_16 
REMARK    6  A    between atoms: C_22  and  C_23 
ROOT
HETATM    1  C   UNL     1      -6.267   2.814 -32.009  1.00  0.00     0.148 A 
HETATM    2  N   UNL     1      -6.463   1.473 -32.046  1.00  0.00    -0.165 NA
HETATM    3  N   UNL     1      -7.438   1.333 -32.963  1.00  0.00    -0.240 N 
HETATM    4  C   UNL     1      -7.935   2.514 -33.436  1.00  0.00     0.123 A 
HETATM    5  N   UNL     1      -9.017   2.541 -34.237  1.00  0.00    -0.364 N 
HETATM    6  C   UNL     1      -9.938   1.402 -34.359  1.00  0.00     0.143 C 
HETATM    7  C   UNL     1      -9.565   0.259 -33.385  1.00  0.00     0.068 C 
HETATM    8  C   UNL     1      -8.049   0.054 -33.265  1.00  0.00     0.221 C 
HETATM    9  C   UNL     1      -7.140   3.493 -32.907  1.00  0.00     0.089 A 
HETATM   10  H   UNL     1      -9.383   3.423 -34.595  1.00  0.00     0.162 HD
ENDROOT
BRANCH   1  11
HETATM   11  C   UNL     1      -5.317   3.445 -31.074  1.00  0.00     0.276 C 
HETATM   12  N   UNL     1      -4.589   4.450 -31.680  1.00  0.00    -0.322 N 
HETATM   13  H   UNL     1      -4.881   4.642 -32.636  1.00  0.00     0.169 HD
HETATM   14  O   UNL     1      -5.209   3.055 -29.918  1.00  0.00    -0.266 OA
BRANCH  12  15
HETATM   15  C   UNL     1      -3.478   5.143 -31.174  1.00  0.00     0.035 A 
HETATM   16  C   UNL     1      -3.570   6.324 -30.437  1.00  0.00     0.030 A 
HETATM   17  C   UNL     1      -2.422   6.926 -29.908  1.00  0.00     0.012 A 
HETATM   18  C   UNL     1      -1.157   6.358 -30.110  1.00  0.00    -0.030 A 
HETATM   19  C   UNL     1      -1.065   5.190 -30.878  1.00  0.00     0.012 A 
HETATM   20  C   UNL     1      -2.215   4.586 -31.397  1.00  0.00     0.030 A 
BRANCH  18  21
HETATM   21  C   UNL     1       0.071   7.016 -29.521  1.00  0.00     0.147 C 
HETATM   22  C   UNL     1       0.744   6.145 -28.472  1.00  0.00     0.044 C 
BRANCH  21  23
HETATM   23  O   UNL     1      -0.271   8.270 -28.932  1.00  0.00    -0.391 OA
HETATM   24  H   UNL     1      -0.875   8.716 -29.551  1.00  0.00     0.210 HD
ENDBRANCH  21  23
ENDBRANCH  18  21
ENDBRANCH  12  15
ENDBRANCH   1  11
BRANCH   8  25
HETATM   25  C   UNL     1      -7.433  -0.540 -34.510  1.00  0.00     0.409 C 
HETATM   26  F   UNL     1      -6.172  -0.102 -34.716  1.00  0.00    -0.169 F 
HETATM   27  F   UNL     1      -7.355  -1.891 -34.379  1.00  0.00    -0.169 F 
HETATM   28  F   UNL     1      -8.141  -0.304 -35.633  1.00  0.00    -0.169 F 
ENDBRANCH   8  25
BRANCH   6  29
HETATM   29  C   UNL     1     -11.366   1.796 -34.120  1.00  0.00     0.075 A 
HETATM   30  O   UNL     1     -12.294   1.314 -34.996  1.00  0.00    -0.325 OA
HETATM   31  C   UNL     1     -13.503   1.782 -34.587  1.00  0.00     0.142 A 
HETATM   32  C   UNL     1     -13.366   2.554 -33.457  1.00  0.00     0.027 A 
HETATM   33  C   UNL     1     -11.984   2.564 -33.152  1.00  0.00     0.037 A 
ENDBRANCH   6  29
TORSDOF 6
ENDMDL
