MODEL 1
REMARK VINA RESULT:      -7.1      0.000      0.000
REMARK  10 active torsions:
REMARK  status: ('A' for Active; 'I' for Inactive)
REMARK    1  A    between atoms: C_1  and  C_8 
REMARK    2  A    between atoms: C_1  and  S_9 
REMARK    3  A    between atoms: C_3  and  C_24 
REMARK    4  A    between atoms: C_7  and  C_8 
REMARK    5  A    between atoms: S_9  and  C_10 
REMARK    6  A    between atoms: C_10  and  S_11 
REMARK    7  A    between atoms: S_11  and  C_12 
REMARK    8  A    between atoms: C_12  and  C_13 
REMARK    9  A    between atoms: C_13  and  C_14 
REMARK   10  A    between atoms: C_18  and  C_19 
ROOT
HETATM    1  C           1      -8.816   1.409 -31.643  0.00  0.00     0.092 C 
HETATM    2  C           1      -9.595   3.627 -32.116  0.00  0.00     0.156 C 
HETATM    3  N           1      -9.875   2.168 -31.735  0.00  0.00    -0.350 N 
HETATM    4  N           1      -8.845   0.167 -31.399  0.00  0.00    -0.388 N 
HETATM    5  C           1      -7.577   2.220 -31.918  0.00  0.00     0.127 C 
HETATM    6  C           1      -8.063   3.690 -31.766  0.00  0.00     0.136 C 
HETATM    7  C           1      -7.874   4.120 -30.346  0.00  0.00     0.079 C 
HETATM    8  N           1      -7.625   4.388 -29.246  0.00  0.00    -0.196 NA
HETATM    9  C           1      -6.830   2.014 -33.302  0.00  0.00     0.248 C 
HETATM   10  N           1      -5.567   2.913 -33.410  0.00  0.00    -0.040 N 
HETATM   11  C           1      -6.033   4.278 -33.245  0.00  0.00     0.105 C 
HETATM   12  C           1      -5.207   5.326 -33.948  0.00  0.00     0.075 C 
HETATM   13  C           1      -7.152   4.615 -32.563  0.00  0.00     0.036 C 
HETATM   14  H           1     -10.827   1.804 -31.593  0.00  0.00     0.163 HD
HETATM   15  H           1      -7.959  -0.399 -31.412  0.00  0.00     0.157 HD
HETATM   16  H           1      -9.754  -0.324 -31.218  0.00  0.00     0.157 HD
HETATM   17  H           1      -5.188   2.811 -34.380  0.00  0.00     0.284 HD
HETATM   18  H           1      -4.804   2.679 -32.744  0.00  0.00     0.284 HD
ENDROOT
BRANCH   2  19
HETATM   19  S           1     -10.632   4.681 -31.049  0.00  0.00    -0.125 SA
BRANCH  19  20
HETATM   20  C           1     -12.191   4.799 -31.976  0.00  0.00     0.077 C 
BRANCH  20  21
HETATM   21  C           1     -13.164   3.730 -31.452  0.00  0.00     0.010 C 
BRANCH  21  22
HETATM   22  C           1     -14.446   3.670 -32.299  0.00  0.00    -0.004 C 
HETATM   23  C           1     -15.281   2.422 -31.982  0.00  0.00     0.005 C 
ENDBRANCH  21  22
ENDBRANCH  20  21
ENDBRANCH  19  20
ENDBRANCH   2  19
BRANCH   2  24
HETATM   24  S           1      -9.808   3.814 -33.919  0.00  0.00    -0.125 SA
BRANCH  24  25
HETATM   25  C           1     -10.625   2.239 -34.326  0.00  0.00     0.077 C 
BRANCH  25  26
HETATM   26  C           1     -11.967   2.543 -35.012  0.00  0.00     0.010 C 
BRANCH  26  27
HETATM   27  C           1     -12.948   1.365 -34.885  0.00  0.00    -0.004 C 
HETATM   28  C           1     -12.619   0.476 -33.678  0.00  0.00     0.005 C 
ENDBRANCH  26  27
ENDBRANCH  25  26
ENDBRANCH  24  25
ENDBRANCH   2  24
BRANCH   5  29
HETATM   29  C           1      -6.399   1.997 -31.048  0.00  0.00     0.105 C 
HETATM   30  N           1      -6.157   1.382 -30.096  0.00  0.00    -0.151 N 
ENDBRANCH   5  29
BRANCH   9  31
HETATM   31  C           1      -6.500   0.556 -33.589  0.00  0.00    -0.026 A 
HETATM   32  C           1      -7.296  -0.156 -34.410  0.00  0.00     0.009 A 
HETATM   33  C           1      -7.047  -1.446 -34.684  0.00  0.00     0.001 A 
HETATM   34  C           1      -5.980  -2.051 -34.142  0.00  0.00     0.000 A 
HETATM   35  C           1      -5.168  -1.355 -33.334  0.00  0.00     0.001 A 
HETATM   36  C           1      -5.427  -0.065 -33.065  0.00  0.00     0.009 A 
ENDBRANCH   9  31
TORSDOF 10
ENDMDL
MODEL 2
REMARK VINA RESULT:      -6.8      2.423      5.211
REMARK  10 active torsions:
REMARK  status: ('A' for Active; 'I' for Inactive)
REMARK    1  A    between atoms: C_1  and  C_8 
REMARK    2  A    between atoms: C_1  and  S_9 
REMARK    3  A    between atoms: C_3  and  C_24 
REMARK    4  A    between atoms: C_7  and  C_8 
REMARK    5  A    between atoms: S_9  and  C_10 
REMARK    6  A    between atoms: C_10  and  S_11 
REMARK    7  A    between atoms: S_11  and  C_12 
REMARK    8  A    between atoms: C_12  and  C_13 
REMARK    9  A    between atoms: C_13  and  C_14 
REMARK   10  A    between atoms: C_18  and  C_19 
ROOT
HETATM    1  C           1      -4.428   2.889 -31.809  0.00  0.00     0.092 C 
HETATM    2  C           1      -6.500   1.786 -32.303  0.00  0.00     0.156 C 
HETATM    3  N           1      -5.012   1.728 -31.933  0.00  0.00    -0.350 N 
HETATM    4  N           1      -3.195   3.048 -31.568  0.00  0.00    -0.388 N 
HETATM    5  C           1      -5.425   3.993 -32.046  0.00  0.00     0.127 C 
HETATM    6  C           1      -6.800   3.278 -31.907  0.00  0.00     0.136 C 
HETATM    7  C           1      -7.245   3.355 -30.481  0.00  0.00     0.079 C 
HETATM    8  N           1      -7.543   3.526 -29.374  0.00  0.00    -0.196 NA
HETATM    9  C           1      -5.347   4.804 -33.407  0.00  0.00     0.248 C 
HETATM   10  N           1      -6.433   5.913 -33.475  0.00  0.00    -0.040 N 
HETATM   11  C           1      -7.708   5.234 -33.323  0.00  0.00     0.105 C 
HETATM   12  C           1      -8.876   5.906 -34.000  0.00  0.00     0.075 C 
HETATM   13  C           1      -7.861   4.057 -32.675  0.00  0.00     0.036 C 
HETATM   14  H           1      -4.503   0.841 -31.820  0.00  0.00     0.163 HD
HETATM   15  H           1      -2.775   4.012 -31.554  0.00  0.00     0.157 HD
HETATM   16  H           1      -2.567   2.222 -31.415  0.00  0.00     0.157 HD
HETATM   17  H           1      -6.397   6.332 -34.433  0.00  0.00     0.284 HD
HETATM   18  H           1      -6.318   6.683 -32.786  0.00  0.00     0.284 HD
ENDROOT
BRANCH   2  19
HETATM   19  S           1      -7.371   0.565 -31.267  0.00  0.00    -0.125 SA
BRANCH  19  20
HETATM   20  C           1      -9.123   0.926 -31.589  0.00  0.00     0.077 C 
BRANCH  20  21
HETATM   21  C           1      -9.656  -0.078 -32.624  0.00  0.00     0.010 C 
BRANCH  21  22
HETATM   22  C           1     -10.828   0.508 -33.428  0.00  0.00    -0.004 C 
HETATM   23  C           1     -10.808   2.042 -33.432  0.00  0.00     0.005 C 
ENDBRANCH  21  22
ENDBRANCH  20  21
ENDBRANCH  19  20
ENDBRANCH   2  19
BRANCH   2  24
HETATM   24  S           1      -6.661   1.600 -34.111  0.00  0.00    -0.125 SA
BRANCH  24  25
HETATM   25  C           1      -5.889  -0.030 -34.353  0.00  0.00     0.077 C 
BRANCH  25  26
HETATM   26  C           1      -6.945  -0.997 -34.914  0.00  0.00     0.010 C 
BRANCH  26  27
HETATM   27  C           1      -7.023  -2.292 -34.088  0.00  0.00    -0.004 C 
HETATM   28  C           1      -6.728  -3.533 -34.941  0.00  0.00     0.005 C 
ENDBRANCH  26  27
ENDBRANCH  25  26
ENDBRANCH  24  25
ENDBRANCH   2  24
BRANCH   5  29
HETATM   29  C           1      -5.384   5.166 -31.141  0.00  0.00     0.105 C 
HETATM   30  N           1      -4.809   5.472 -30.182  0.00  0.00    -0.151 N 
ENDBRANCH   5  29
BRANCH   9  31
HETATM   31  C           1      -3.960   5.367 -33.685  0.00  0.00    -0.026 A 
HETATM   32  C           1      -3.156   4.746 -34.570  0.00  0.00     0.009 A 
HETATM   33  C           1      -1.924   5.203 -34.839  0.00  0.00     0.001 A 
HETATM   34  C           1      -1.472   6.308 -34.228  0.00  0.00     0.000 A 
HETATM   35  C           1      -2.262   6.948 -33.356  0.00  0.00     0.001 A 
HETATM   36  C           1      -3.494   6.482 -33.092  0.00  0.00     0.009 A 
ENDBRANCH   9  31
TORSDOF 10
ENDMDL
MODEL 3
REMARK VINA RESULT:      -6.7      1.698      3.138
REMARK  10 active torsions:
REMARK  status: ('A' for Active; 'I' for Inactive)
REMARK    1  A    between atoms: C_1  and  C_8 
REMARK    2  A    between atoms: C_1  and  S_9 
REMARK    3  A    between atoms: C_3  and  C_24 
REMARK    4  A    between atoms: C_7  and  C_8 
REMARK    5  A    between atoms: S_9  and  C_10 
REMARK    6  A    between atoms: C_10  and  S_11 
REMARK    7  A    between atoms: S_11  and  C_12 
REMARK    8  A    between atoms: C_12  and  C_13 
REMARK    9  A    between atoms: C_13  and  C_14 
REMARK   10  A    between atoms: C_18  and  C_19 
ROOT
HETATM    1  C           1      -7.259   1.014 -31.454  0.00  0.00     0.092 C 
HETATM    2  C           1      -8.536   2.370 -32.965  0.00  0.00     0.156 C 
HETATM    3  N           1      -8.409   1.138 -32.060  0.00  0.00    -0.350 N 
HETATM    4  N           1      -6.941   0.036 -30.715  0.00  0.00    -0.388 N 
HETATM    5  C           1      -6.364   2.173 -31.808  0.00  0.00     0.127 C 
HETATM    6  C           1      -7.348   3.227 -32.392  0.00  0.00     0.136 C 
HETATM    7  C           1      -7.834   4.105 -31.283  0.00  0.00     0.079 C 
HETATM    8  N           1      -8.097   4.779 -30.377  0.00  0.00    -0.196 NA
HETATM    9  C           1      -5.155   1.920 -32.803  0.00  0.00     0.248 C 
HETATM   10  N           1      -4.329   3.214 -33.042  0.00  0.00    -0.040 N 
HETATM   11  C           1      -5.265   4.194 -33.565  0.00  0.00     0.105 C 
HETATM   12  C           1      -4.660   5.232 -34.477  0.00  0.00     0.075 C 
HETATM   13  C           1      -6.594   4.173 -33.318  0.00  0.00     0.036 C 
HETATM   14  H           1      -9.161   0.443 -31.960  0.00  0.00     0.163 HD
HETATM   15  H           1      -5.970  -0.037 -30.317  0.00  0.00     0.157 HD
HETATM   16  H           1      -7.626  -0.734 -30.518  0.00  0.00     0.157 HD
HETATM   17  H           1      -3.622   3.006 -33.784  0.00  0.00     0.284 HD
HETATM   18  H           1      -3.821   3.570 -32.208  0.00  0.00     0.284 HD
ENDROOT
BRANCH   2  19
HETATM   19  S           1     -10.177   3.103 -32.668  0.00  0.00    -0.125 SA
BRANCH  19  20
HETATM   20  C           1     -11.317   1.762 -33.122  0.00  0.00     0.077 C 
BRANCH  20  21
HETATM   21  C           1     -11.907   2.061 -34.511  0.00  0.00     0.010 C 
BRANCH  21  22
HETATM   22  C           1     -13.324   1.482 -34.659  0.00  0.00    -0.004 C 
HETATM   23  C           1     -13.466   0.130 -33.946  0.00  0.00     0.005 C 
ENDBRANCH  21  22
ENDBRANCH  20  21
ENDBRANCH  19  20
ENDBRANCH   2  19
BRANCH   2  24
HETATM   24  S           1      -8.149   1.879 -34.680  0.00  0.00    -0.125 SA
BRANCH  24  25
HETATM   25  C           1      -8.502   0.095 -34.608  0.00  0.00     0.077 C 
BRANCH  25  26
HETATM   26  C           1      -7.213  -0.676 -34.935  0.00  0.00     0.010 C 
BRANCH  26  27
HETATM   27  C           1      -7.168  -2.035 -34.216  0.00  0.00    -0.004 C 
HETATM   28  C           1      -6.219  -3.019 -34.914  0.00  0.00     0.005 C 
ENDBRANCH  26  27
ENDBRANCH  25  26
ENDBRANCH  24  25
ENDBRANCH   2  24
BRANCH   5  29
HETATM   29  C           1      -5.569   2.789 -30.720  0.00  0.00     0.105 C 
HETATM   30  N           1      -5.500   2.693 -29.567  0.00  0.00    -0.151 N 
ENDBRANCH   5  29
BRANCH   9  31
HETATM   31  C           1      -4.263   0.764 -32.373  0.00  0.00    -0.026 A 
HETATM   32  C           1      -4.386  -0.433 -32.981  0.00  0.00     0.009 A 
HETATM   33  C           1      -3.626  -1.480 -32.629  0.00  0.00     0.001 A 
HETATM   34  C           1      -2.713  -1.347 -31.656  0.00  0.00     0.000 A 
HETATM   35  C           1      -2.566  -0.162 -31.049  0.00  0.00     0.001 A 
HETATM   36  C           1      -3.332   0.881 -31.408  0.00  0.00     0.009 A 
ENDBRANCH   9  31
TORSDOF 10
ENDMDL
MODEL 4
REMARK VINA RESULT:      -6.6      1.269      2.256
REMARK  10 active torsions:
REMARK  status: ('A' for Active; 'I' for Inactive)
REMARK    1  A    between atoms: C_1  and  C_8 
REMARK    2  A    between atoms: C_1  and  S_9 
REMARK    3  A    between atoms: C_3  and  C_24 
REMARK    4  A    between atoms: C_7  and  C_8 
REMARK    5  A    between atoms: S_9  and  C_10 
REMARK    6  A    between atoms: C_10  and  S_11 
REMARK    7  A    between atoms: S_11  and  C_12 
REMARK    8  A    between atoms: C_12  and  C_13 
REMARK    9  A    between atoms: C_13  and  C_14 
REMARK   10  A    between atoms: C_18  and  C_19 
ROOT
HETATM    1  C           1      -8.449   1.135 -31.358  0.00  0.00     0.092 C 
HETATM    2  C           1      -9.388   3.316 -31.697  0.00  0.00     0.156 C 
HETATM    3  N           1      -9.547   1.840 -31.311  0.00  0.00    -0.350 N 
HETATM    4  N           1      -8.386  -0.109 -31.133  0.00  0.00    -0.388 N 
HETATM    5  C           1      -7.293   2.012 -31.764  0.00  0.00     0.127 C 
HETATM    6  C           1      -7.830   3.454 -31.531  0.00  0.00     0.136 C 
HETATM    7  C           1      -7.495   3.877 -30.136  0.00  0.00     0.079 C 
HETATM    8  N           1      -7.129   4.145 -29.069  0.00  0.00    -0.196 NA
HETATM    9  C           1      -6.708   1.860 -33.231  0.00  0.00     0.248 C 
HETATM   10  N           1      -5.513   2.824 -33.473  0.00  0.00    -0.040 N 
HETATM   11  C           1      -6.023   4.161 -33.230  0.00  0.00     0.105 C 
HETATM   12  C           1      -5.341   5.257 -34.009  0.00  0.00     0.075 C 
HETATM   13  C           1      -7.068   4.433 -32.415  0.00  0.00     0.036 C 
HETATM   14  H           1     -10.456   1.426 -31.063  0.00  0.00     0.163 HD
HETATM   15  H           1      -7.481  -0.629 -31.261  0.00  0.00     0.157 HD
HETATM   16  H           1      -9.242  -0.648 -30.854  0.00  0.00     0.157 HD
HETATM   17  H           1      -5.248   2.751 -34.482  0.00  0.00     0.284 HD
HETATM   18  H           1      -4.666   2.622 -32.906  0.00  0.00     0.284 HD
ENDROOT
BRANCH   2  19
HETATM   19  S           1     -10.341   4.303 -30.498  0.00  0.00    -0.125 SA
BRANCH  19  20
HETATM   20  C           1     -10.529   5.905 -31.336  0.00  0.00     0.077 C 
BRANCH  20  21
HETATM   21  C           1     -10.448   7.027 -30.288  0.00  0.00     0.010 C 
BRANCH  21  22
HETATM   22  C           1      -9.018   7.191 -29.746  0.00  0.00    -0.004 C 
HETATM   23  C           1      -8.985   7.190 -28.212  0.00  0.00     0.005 C 
ENDBRANCH  21  22
ENDBRANCH  20  21
ENDBRANCH  19  20
ENDBRANCH   2  19
BRANCH   2  24
HETATM   24  S           1      -9.824   3.511 -33.459  0.00  0.00    -0.125 SA
BRANCH  24  25
HETATM   25  C           1     -11.509   2.821 -33.468  0.00  0.00     0.077 C 
BRANCH  25  26
HETATM   26  C           1     -11.514   1.544 -34.324  0.00  0.00     0.010 C 
BRANCH  26  27
HETATM   27  C           1     -12.945   1.084 -34.646  0.00  0.00    -0.004 C 
HETATM   28  C           1     -13.398  -0.060 -33.729  0.00  0.00     0.005 C 
ENDBRANCH  26  27
ENDBRANCH  25  26
ENDBRANCH  24  25
ENDBRANCH   2  24
BRANCH   5  29
HETATM   29  C           1      -6.010   1.840 -31.044  0.00  0.00     0.105 C 
HETATM   30  N           1      -5.627   1.231 -30.137  0.00  0.00    -0.151 N 
ENDBRANCH   5  29
BRANCH   9  31
HETATM   31  C           1      -6.342   0.424 -33.579  0.00  0.00    -0.026 A 
HETATM   32  C           1      -7.225  -0.343 -34.250  0.00  0.00     0.009 A 
HETATM   33  C           1      -6.947  -1.615 -34.571  0.00  0.00     0.001 A 
HETATM   34  C           1      -5.765  -2.148 -34.230  0.00  0.00     0.000 A 
HETATM   35  C           1      -4.868  -1.398 -33.575  0.00  0.00     0.001 A 
HETATM   36  C           1      -5.156  -0.125 -33.258  0.00  0.00     0.009 A 
ENDBRANCH   9  31
TORSDOF 10
ENDMDL
MODEL 5
REMARK VINA RESULT:      -6.4      2.750      6.615
REMARK  10 active torsions:
REMARK  status: ('A' for Active; 'I' for Inactive)
REMARK    1  A    between atoms: C_1  and  C_8 
REMARK    2  A    between atoms: C_1  and  S_9 
REMARK    3  A    between atoms: C_3  and  C_24 
REMARK    4  A    between atoms: C_7  and  C_8 
REMARK    5  A    between atoms: S_9  and  C_10 
REMARK    6  A    between atoms: C_10  and  S_11 
REMARK    7  A    between atoms: S_11  and  C_12 
REMARK    8  A    between atoms: C_12  and  C_13 
REMARK    9  A    between atoms: C_13  and  C_14 
REMARK   10  A    between atoms: C_18  and  C_19 
ROOT
HETATM    1  C           1      -6.373   2.410 -33.792  0.00  0.00     0.092 C 
HETATM    2  C           1      -4.538   2.871 -32.318  0.00  0.00     0.156 C 
HETATM    3  N           1      -5.107   2.187 -33.567  0.00  0.00    -0.350 N 
HETATM    4  N           1      -7.036   1.888 -34.736  0.00  0.00    -0.388 N 
HETATM    5  C           1      -6.927   3.332 -32.737  0.00  0.00     0.127 C 
HETATM    6  C           1      -5.655   3.957 -32.095  0.00  0.00     0.136 C 
HETATM    7  C           1      -5.307   5.213 -32.830  0.00  0.00     0.079 C 
HETATM    8  N           1      -5.158   6.207 -33.408  0.00  0.00    -0.196 NA
HETATM    9  C           1      -7.878   2.723 -31.623  0.00  0.00     0.248 C 
HETATM   10  N           1      -8.370   3.814 -30.632  0.00  0.00    -0.040 N 
HETATM   11  C           1      -7.172   4.402 -30.058  0.00  0.00     0.105 C 
HETATM   12  C           1      -7.334   4.949 -28.662  0.00  0.00     0.075 C 
HETATM   13  C           1      -5.972   4.424 -30.680  0.00  0.00     0.036 C 
HETATM   14  H           1      -4.541   1.572 -34.169  0.00  0.00     0.163 HD
HETATM   15  H           1      -8.071   2.053 -34.815  0.00  0.00     0.157 HD
HETATM   16  H           1      -6.572   1.254 -35.431  0.00  0.00     0.157 HD
HETATM   17  H           1      -8.898   3.332 -29.868  0.00  0.00     0.284 HD
HETATM   18  H           1      -8.996   4.533 -31.046  0.00  0.00     0.284 HD
ENDROOT
BRANCH   2  19
HETATM   19  S           1      -2.916   3.571 -32.765  0.00  0.00    -0.125 SA
BRANCH  19  20
HETATM   20  C           1      -2.337   4.301 -31.204  0.00  0.00     0.077 C 
BRANCH  20  21
HETATM   21  C           1      -1.160   5.245 -31.504  0.00  0.00     0.010 C 
BRANCH  21  22
HETATM   22  C           1      -1.198   5.751 -32.956  0.00  0.00    -0.004 C 
HETATM   23  C           1      -1.417   7.268 -33.027  0.00  0.00     0.005 C 
ENDBRANCH  21  22
ENDBRANCH  20  21
ENDBRANCH  19  20
ENDBRANCH   2  19
BRANCH   2  24
HETATM   24  S           1      -4.572   1.683 -30.933  0.00  0.00    -0.125 SA
BRANCH  24  25
HETATM   25  C           1      -4.091   0.152 -31.791  0.00  0.00     0.077 C 
BRANCH  25  26
HETATM   26  C           1      -5.346  -0.711 -32.000  0.00  0.00     0.010 C 
BRANCH  26  27
HETATM   27  C           1      -5.324  -1.422 -33.364  0.00  0.00    -0.004 C 
HETATM   28  C           1      -6.738  -1.633 -33.921  0.00  0.00     0.005 C 
ENDBRANCH  26  27
ENDBRANCH  25  26
ENDBRANCH  24  25
ENDBRANCH   2  24
BRANCH   5  29
HETATM   29  C           1      -7.841   4.413 -33.176  0.00  0.00     0.105 C 
HETATM   30  N           1      -8.233   4.829 -34.183  0.00  0.00    -0.151 N 
ENDBRANCH   5  29
BRANCH   9  31
HETATM   31  C           1      -9.043   1.933 -32.203  0.00  0.00    -0.026 A 
HETATM   32  C           1      -9.011   0.586 -32.176  0.00  0.00     0.009 A 
HETATM   33  C           1     -10.013  -0.149 -32.682  0.00  0.00     0.001 A 
HETATM   34  C           1     -11.080   0.456 -33.223  0.00  0.00     0.000 A 
HETATM   35  C           1     -11.137   1.795 -33.246  0.00  0.00     0.001 A 
HETATM   36  C           1     -10.129   2.522 -32.737  0.00  0.00     0.009 A 
ENDBRANCH   9  31
TORSDOF 10
ENDMDL
MODEL 6
REMARK VINA RESULT:      -6.4      4.310      7.632
REMARK  10 active torsions:
REMARK  status: ('A' for Active; 'I' for Inactive)
REMARK    1  A    between atoms: C_1  and  C_8 
REMARK    2  A    between atoms: C_1  and  S_9 
REMARK    3  A    between atoms: C_3  and  C_24 
REMARK    4  A    between atoms: C_7  and  C_8 
REMARK    5  A    between atoms: S_9  and  C_10 
REMARK    6  A    between atoms: C_10  and  S_11 
REMARK    7  A    between atoms: S_11  and  C_12 
REMARK    8  A    between atoms: C_12  and  C_13 
REMARK    9  A    between atoms: C_13  and  C_14 
REMARK   10  A    between atoms: C_18  and  C_19 
ROOT
HETATM    1  C           1      -4.100   5.449 -29.956  0.00  0.00     0.092 C 
HETATM    2  C           1      -4.665   3.725 -31.525  0.00  0.00     0.156 C 
HETATM    3  N           1      -4.749   4.327 -30.117  0.00  0.00    -0.350 N 
HETATM    4  N           1      -4.001   6.067 -28.856  0.00  0.00    -0.388 N 
HETATM    5  C           1      -3.455   5.859 -31.254  0.00  0.00     0.127 C 
HETATM    6  C           1      -4.198   5.000 -32.318  0.00  0.00     0.136 C 
HETATM    7  C           1      -5.385   5.762 -32.814  0.00  0.00     0.079 C 
HETATM    8  N           1      -6.236   6.454 -33.191  0.00  0.00    -0.196 NA
HETATM    9  C           1      -1.884   5.701 -31.401  0.00  0.00     0.248 C 
HETATM   10  N           1      -1.387   6.188 -32.791  0.00  0.00    -0.040 N 
HETATM   11  C           1      -2.105   5.393 -33.772  0.00  0.00     0.105 C 
HETATM   12  C           1      -1.373   5.169 -35.072  0.00  0.00     0.075 C 
HETATM   13  C           1      -3.315   4.834 -33.549  0.00  0.00     0.036 C 
HETATM   14  H           1      -5.253   3.868 -29.346  0.00  0.00     0.163 HD
HETATM   15  H           1      -3.401   6.928 -28.781  0.00  0.00     0.157 HD
HETATM   16  H           1      -4.484   5.712 -27.995  0.00  0.00     0.157 HD
HETATM   17  H           1      -0.369   5.956 -32.862  0.00  0.00     0.284 HD
HETATM   18  H           1      -1.494   7.207 -32.963  0.00  0.00     0.284 HD
ENDROOT
BRANCH   2  19
HETATM   19  S           1      -6.334   3.152 -31.978  0.00  0.00    -0.125 SA
BRANCH  19  20
HETATM   20  C           1      -6.077   2.367 -33.597  0.00  0.00     0.077 C 
BRANCH  20  21
HETATM   21  C           1      -7.303   1.501 -33.930  0.00  0.00     0.010 C 
BRANCH  21  22
HETATM   22  C           1      -7.060   0.632 -35.176  0.00  0.00    -0.004 C 
HETATM   23  C           1      -7.154  -0.865 -34.856  0.00  0.00     0.005 C 
ENDBRANCH  21  22
ENDBRANCH  20  21
ENDBRANCH  19  20
ENDBRANCH   2  19
BRANCH   2  24
HETATM   24  S           1      -3.329   2.480 -31.550  0.00  0.00    -0.125 SA
BRANCH  24  25
HETATM   25  C           1      -4.208   1.029 -30.891  0.00  0.00     0.077 C 
BRANCH  25  26
HETATM   26  C           1      -3.504  -0.242 -31.392  0.00  0.00     0.010 C 
BRANCH  26  27
HETATM   27  C           1      -3.804  -0.508 -32.877  0.00  0.00    -0.004 C 
HETATM   28  C           1      -4.098  -1.990 -33.145  0.00  0.00     0.005 C 
ENDBRANCH  26  27
ENDBRANCH  25  26
ENDBRANCH  24  25
ENDBRANCH   2  24
BRANCH   5  29
HETATM   29  C           1      -3.524   7.289 -31.638  0.00  0.00     0.105 C 
HETATM   30  N           1      -4.090   8.233 -31.276  0.00  0.00    -0.151 N 
ENDBRANCH   5  29
BRANCH   9  31
HETATM   31  C           1      -1.111   6.367 -30.271  0.00  0.00    -0.026 A 
HETATM   32  C           1      -1.190   7.703 -30.109  0.00  0.00     0.009 A 
HETATM   33  C           1      -0.520   8.331 -29.132  0.00  0.00     0.001 A 
HETATM   34  C           1       0.244   7.627 -28.284  0.00  0.00     0.000 A 
HETATM   35  C           1       0.324   6.297 -28.420  0.00  0.00     0.001 A 
HETATM   36  C           1      -0.350   5.676 -29.402  0.00  0.00     0.009 A 
ENDBRANCH   9  31
TORSDOF 10
ENDMDL
MODEL 7
REMARK VINA RESULT:      -6.2      5.463      9.186
REMARK  10 active torsions:
REMARK  status: ('A' for Active; 'I' for Inactive)
REMARK    1  A    between atoms: C_1  and  C_8 
REMARK    2  A    between atoms: C_1  and  S_9 
REMARK    3  A    between atoms: C_3  and  C_24 
REMARK    4  A    between atoms: C_7  and  C_8 
REMARK    5  A    between atoms: S_9  and  C_10 
REMARK    6  A    between atoms: C_10  and  S_11 
REMARK    7  A    between atoms: S_11  and  C_12 
REMARK    8  A    between atoms: C_12  and  C_13 
REMARK    9  A    between atoms: C_13  and  C_14 
REMARK   10  A    between atoms: C_18  and  C_19 
ROOT
HETATM    1  C           1      -2.892   4.759 -31.556  0.00  0.00     0.092 C 
HETATM    2  C           1      -2.825   6.651 -30.084  0.00  0.00     0.156 C 
HETATM    3  N           1      -2.324   5.260 -30.493  0.00  0.00    -0.350 N 
HETATM    4  N           1      -2.658   3.602 -32.015  0.00  0.00    -0.388 N 
HETATM    5  C           1      -3.891   5.738 -32.114  0.00  0.00     0.127 C 
HETATM    6  C           1      -3.501   7.083 -31.437  0.00  0.00     0.136 C 
HETATM    7  C           1      -2.511   7.794 -32.305  0.00  0.00     0.079 C 
HETATM    8  N           1      -1.808   8.303 -33.073  0.00  0.00    -0.196 NA
HETATM    9  C           1      -5.436   5.437 -31.917  0.00  0.00     0.248 C 
HETATM   10  N           1      -6.322   6.535 -32.569  0.00  0.00    -0.040 N 
HETATM   11  C           1      -5.930   7.786 -31.943  0.00  0.00     0.105 C 
HETATM   12  C           1      -7.015   8.831 -31.870  0.00  0.00     0.075 C 
HETATM   13  C           1      -4.709   8.010 -31.407  0.00  0.00     0.036 C 
HETATM   14  H           1      -1.615   4.745 -29.953  0.00  0.00     0.163 HD
HETATM   15  H           1      -3.205   3.233 -32.833  0.00  0.00     0.157 HD
HETATM   16  H           1      -1.942   2.980 -31.565  0.00  0.00     0.157 HD
HETATM   17  H           1      -7.315   6.336 -32.310  0.00  0.00     0.284 HD
HETATM   18  H           1      -6.266   6.585 -33.606  0.00  0.00     0.284 HD
ENDROOT
BRANCH   2  19
HETATM   19  S           1      -1.367   7.652 -29.644  0.00  0.00    -0.125 SA
BRANCH  19  20
HETATM   20  C           1      -0.065   6.405 -29.408  0.00  0.00     0.077 C 
BRANCH  20  21
HETATM   21  C           1       0.715   6.737 -28.126  0.00  0.00     0.010 C 
BRANCH  21  22
HETATM   22  C           1       1.147   8.213 -28.094  0.00  0.00    -0.004 C 
HETATM   23  C           1       1.838   8.577 -26.773  0.00  0.00     0.005 C 
ENDBRANCH  21  22
ENDBRANCH  20  21
ENDBRANCH  19  20
ENDBRANCH   2  19
BRANCH   2  24
HETATM   24  S           1      -4.112   6.458 -28.805  0.00  0.00    -0.125 SA
BRANCH  24  25
HETATM   25  C           1      -3.563   7.693 -27.585  0.00  0.00     0.077 C 
BRANCH  25  26
HETATM   26  C           1      -3.053   6.957 -26.335  0.00  0.00     0.010 C 
BRANCH  26  27
HETATM   27  C           1      -1.872   7.697 -25.684  0.00  0.00    -0.004 C 
HETATM   28  C           1      -1.883   9.196 -26.015  0.00  0.00     0.005 C 
ENDBRANCH  26  27
ENDBRANCH  25  26
ENDBRANCH  24  25
ENDBRANCH   2  24
BRANCH   5  29
HETATM   29  C           1      -3.934   5.919 -33.584  0.00  0.00     0.105 C 
HETATM   30  N           1      -3.353   5.513 -34.501  0.00  0.00    -0.151 N 
ENDBRANCH   5  29
BRANCH   9  31
HETATM   31  C           1      -5.836   4.047 -32.393  0.00  0.00    -0.026 A 
HETATM   32  C           1      -5.895   3.033 -31.508  0.00  0.00     0.009 A 
HETATM   33  C           1      -6.236   1.791 -31.885  0.00  0.00     0.001 A 
HETATM   34  C           1      -6.535   1.540 -33.167  0.00  0.00     0.000 A 
HETATM   35  C           1      -6.497   2.538 -34.060  0.00  0.00     0.001 A 
HETATM   36  C           1      -6.154   3.778 -33.673  0.00  0.00     0.009 A 
ENDBRANCH   9  31
TORSDOF 10
ENDMDL
MODEL 8
REMARK VINA RESULT:      -6.0      5.046      8.785
REMARK  10 active torsions:
REMARK  status: ('A' for Active; 'I' for Inactive)
REMARK    1  A    between atoms: C_1  and  C_8 
REMARK    2  A    between atoms: C_1  and  S_9 
REMARK    3  A    between atoms: C_3  and  C_24 
REMARK    4  A    between atoms: C_7  and  C_8 
REMARK    5  A    between atoms: S_9  and  C_10 
REMARK    6  A    between atoms: C_10  and  S_11 
REMARK    7  A    between atoms: S_11  and  C_12 
REMARK    8  A    between atoms: C_12  and  C_13 
REMARK    9  A    between atoms: C_13  and  C_14 
REMARK   10  A    between atoms: C_18  and  C_19 
ROOT
HETATM    1  C           1      -3.210   5.104 -31.124  0.00  0.00     0.092 C 
HETATM    2  C           1      -3.469   6.924 -29.584  0.00  0.00     0.156 C 
HETATM    3  N           1      -2.845   5.575 -29.962  0.00  0.00    -0.350 N 
HETATM    4  N           1      -2.852   3.980 -31.585  0.00  0.00    -0.388 N 
HETATM    5  C           1      -4.152   6.068 -31.797  0.00  0.00     0.127 C 
HETATM    6  C           1      -3.938   7.394 -31.010  0.00  0.00     0.136 C 
HETATM    7  C           1      -2.856   8.184 -31.675  0.00  0.00     0.079 C 
HETATM    8  N           1      -2.063   8.757 -32.297  0.00  0.00    -0.196 NA
HETATM    9  C           1      -5.692   5.697 -31.867  0.00  0.00     0.248 C 
HETATM   10  N           1      -6.511   6.790 -32.608  0.00  0.00    -0.040 N 
HETATM   11  C           1      -6.284   8.024 -31.876  0.00  0.00     0.105 C 
HETATM   12  C           1      -7.414   9.021 -31.938  0.00  0.00     0.075 C 
HETATM   13  C           1      -5.178   8.270 -31.139  0.00  0.00     0.036 C 
HETATM   14  H           1      -2.210   5.063 -29.336  0.00  0.00     0.163 HD
HETATM   15  H           1      -3.242   3.630 -32.496  0.00  0.00     0.157 HD
HETATM   16  H           1      -2.190   3.366 -31.051  0.00  0.00     0.157 HD
HETATM   17  H           1      -7.523   6.539 -32.523  0.00  0.00     0.284 HD
HETATM   18  H           1      -6.292   6.892 -33.619  0.00  0.00     0.284 HD
ENDROOT
BRANCH   2  19
HETATM   19  S           1      -2.150   7.959 -28.871  0.00  0.00    -0.125 SA
BRANCH  19  20
HETATM   20  C           1      -0.716   6.841 -28.845  0.00  0.00     0.077 C 
BRANCH  20  21
HETATM   21  C           1       0.425   7.477 -29.656  0.00  0.00     0.010 C 
BRANCH  21  22
HETATM   22  C           1       0.655   6.735 -30.983  0.00  0.00    -0.004 C 
HETATM   23  C           1       0.717   5.215 -30.785  0.00  0.00     0.005 C 
ENDBRANCH  21  22
ENDBRANCH  20  21
ENDBRANCH  19  20
ENDBRANCH   2  19
BRANCH   2  24
HETATM   24  S           1      -4.935   6.620 -28.541  0.00  0.00    -0.125 SA
BRANCH  24  25
HETATM   25  C           1      -4.219   6.837 -26.881  0.00  0.00     0.077 C 
BRANCH  25  26
HETATM   26  C           1      -4.721   8.168 -26.298  0.00  0.00     0.010 C 
BRANCH  26  27
HETATM   27  C           1      -3.912   8.584 -25.058  0.00  0.00    -0.004 C 
HETATM   28  C           1      -2.505   7.972 -25.061  0.00  0.00     0.005 C 
ENDBRANCH  26  27
ENDBRANCH  25  26
ENDBRANCH  24  25
ENDBRANCH   2  24
BRANCH   5  29
HETATM   29  C           1      -3.965   6.317 -33.245  0.00  0.00     0.105 C 
HETATM   30  N           1      -3.198   6.020 -34.061  0.00  0.00    -0.151 N 
ENDBRANCH   5  29
BRANCH   9  31
HETATM   31  C           1      -5.945   4.317 -32.458  0.00  0.00    -0.026 A 
HETATM   32  C           1      -6.083   3.258 -31.637  0.00  0.00     0.009 A 
HETATM   33  C           1      -6.300   2.023 -32.115  0.00  0.00     0.001 A 
HETATM   34  C           1      -6.392   1.825 -33.438  0.00  0.00     0.000 A 
HETATM   35  C           1      -6.272   2.868 -34.270  0.00  0.00     0.001 A 
HETATM   36  C           1      -6.054   4.100 -33.781  0.00  0.00     0.009 A 
ENDBRANCH   9  31
TORSDOF 10
ENDMDL
MODEL 9
REMARK VINA RESULT:      -5.8      4.203      7.615
REMARK  10 active torsions:
REMARK  status: ('A' for Active; 'I' for Inactive)
REMARK    1  A    between atoms: C_1  and  C_8 
REMARK    2  A    between atoms: C_1  and  S_9 
REMARK    3  A    between atoms: C_3  and  C_24 
REMARK    4  A    between atoms: C_7  and  C_8 
REMARK    5  A    between atoms: S_9  and  C_10 
REMARK    6  A    between atoms: C_10  and  S_11 
REMARK    7  A    between atoms: S_11  and  C_12 
REMARK    8  A    between atoms: C_12  and  C_13 
REMARK    9  A    between atoms: C_13  and  C_14 
REMARK   10  A    between atoms: C_18  and  C_19 
ROOT
HETATM    1  C           1      -4.569   7.145 -31.304  0.00  0.00     0.092 C 
HETATM    2  C           1      -6.367   5.665 -30.732  0.00  0.00     0.156 C 
HETATM    3  N           1      -5.777   7.078 -30.813  0.00  0.00    -0.350 N 
HETATM    4  N           1      -3.891   8.210 -31.397  0.00  0.00    -0.388 N 
HETATM    5  C           1      -4.095   5.768 -31.691  0.00  0.00     0.127 C 
HETATM    6  C           1      -5.406   4.932 -31.738  0.00  0.00     0.136 C 
HETATM    7  C           1      -5.969   4.988 -33.123  0.00  0.00     0.079 C 
HETATM    8  N           1      -6.289   5.028 -34.237  0.00  0.00    -0.196 NA
HETATM    9  C           1      -3.008   5.058 -30.780  0.00  0.00     0.248 C 
HETATM   10  N           1      -2.622   3.658 -31.334  0.00  0.00    -0.040 N 
HETATM   11  C           1      -3.858   2.898 -31.393  0.00  0.00     0.105 C 
HETATM   12  C           1      -3.700   1.407 -31.234  0.00  0.00     0.075 C 
HETATM   13  C           1      -5.082   3.459 -31.524  0.00  0.00     0.036 C 
HETATM   14  H           1      -6.281   7.910 -30.477  0.00  0.00     0.163 HD
HETATM   15  H           1      -2.896   8.181 -31.734  0.00  0.00     0.157 HD
HETATM   16  H           1      -4.297   9.132 -31.104  0.00  0.00     0.157 HD
HETATM   17  H           1      -1.990   3.205 -30.635  0.00  0.00     0.284 HD
HETATM   18  H           1      -2.129   3.670 -32.249  0.00  0.00     0.284 HD
ENDROOT
BRANCH   2  19
HETATM   19  S           1      -8.094   5.758 -31.305  0.00  0.00    -0.125 SA
BRANCH  19  20
HETATM   20  C           1      -8.988   4.738 -30.095  0.00  0.00     0.077 C 
BRANCH  20  21
HETATM   21  C           1      -8.944   3.271 -30.553  0.00  0.00     0.010 C 
BRANCH  21  22
HETATM   22  C           1      -9.007   3.155 -32.085  0.00  0.00    -0.004 C 
HETATM   23  C           1      -9.268   1.713 -32.539  0.00  0.00     0.005 C 
ENDBRANCH  21  22
ENDBRANCH  20  21
ENDBRANCH  19  20
ENDBRANCH   2  19
BRANCH   2  24
HETATM   24  S           1      -6.089   5.010 -29.051  0.00  0.00    -0.125 SA
BRANCH  24  25
HETATM   25  C           1      -5.773   6.551 -28.136  0.00  0.00     0.077 C 
BRANCH  25  26
HETATM   26  C           1      -4.653   6.296 -27.114  0.00  0.00     0.010 C 
BRANCH  26  27
HETATM   27  C           1      -4.059   7.612 -26.584  0.00  0.00    -0.004 C 
HETATM   28  C           1      -2.714   7.390 -25.879  0.00  0.00     0.005 C 
ENDBRANCH  26  27
ENDBRANCH  25  26
ENDBRANCH  24  25
ENDBRANCH   2  24
BRANCH   5  29
HETATM   29  C           1      -3.370   5.623 -32.975  0.00  0.00     0.105 C 
HETATM   30  N           1      -3.034   6.320 -33.837  0.00  0.00    -0.151 N 
ENDBRANCH   5  29
BRANCH   9  31
HETATM   31  C           1      -1.775   5.920 -30.544  0.00  0.00    -0.026 A 
HETATM   32  C           1      -0.722   5.816 -31.378  0.00  0.00     0.009 A 
HETATM   33  C           1       0.387   6.551 -31.203  0.00  0.00     0.001 A 
HETATM   34  C           1       0.460   7.419 -30.183  0.00  0.00     0.000 A 
HETATM   35  C           1      -0.583   7.548 -29.352  0.00  0.00     0.001 A 
HETATM   36  C           1      -1.688   6.807 -29.535  0.00  0.00     0.009 A 
ENDBRANCH   9  31
TORSDOF 10
ENDMDL
MODEL 10
REMARK VINA RESULT:      -5.8      2.152      4.859
REMARK  10 active torsions:
REMARK  status: ('A' for Active; 'I' for Inactive)
REMARK    1  A    between atoms: C_1  and  C_8 
REMARK    2  A    between atoms: C_1  and  S_9 
REMARK    3  A    between atoms: C_3  and  C_24 
REMARK    4  A    between atoms: C_7  and  C_8 
REMARK    5  A    between atoms: S_9  and  C_10 
REMARK    6  A    between atoms: C_10  and  S_11 
REMARK    7  A    between atoms: S_11  and  C_12 
REMARK    8  A    between atoms: C_12  and  C_13 
REMARK    9  A    between atoms: C_13  and  C_14 
REMARK   10  A    between atoms: C_18  and  C_19 
ROOT
HETATM    1  C           1      -5.603   3.408 -32.090  0.00  0.00     0.092 C 
HETATM    2  C           1      -7.998   3.475 -32.197  0.00  0.00     0.156 C 
HETATM    3  N           1      -6.680   2.694 -32.276  0.00  0.00    -0.350 N 
HETATM    4  N           1      -4.422   2.958 -32.176  0.00  0.00    -0.388 N 
HETATM    5  C           1      -5.977   4.840 -31.812  0.00  0.00     0.127 C 
HETATM    6  C           1      -7.487   4.756 -31.442  0.00  0.00     0.136 C 
HETATM    7  C           1      -7.614   4.570 -29.963  0.00  0.00     0.079 C 
HETATM    8  N           1      -7.617   4.501 -28.806  0.00  0.00    -0.196 NA
HETATM    9  C           1      -5.736   5.919 -32.950  0.00  0.00     0.248 C 
HETATM   10  N           1      -6.160   7.342 -32.488  0.00  0.00    -0.040 N 
HETATM   11  C           1      -7.562   7.242 -32.125  0.00  0.00     0.105 C 
HETATM   12  C           1      -8.359   8.511 -32.301  0.00  0.00     0.075 C 
HETATM   13  C           1      -8.154   6.099 -31.711  0.00  0.00     0.036 C 
HETATM   14  H           1      -6.644   1.688 -32.490  0.00  0.00     0.163 HD
HETATM   15  H           1      -3.598   3.605 -32.086  0.00  0.00     0.157 HD
HETATM   16  H           1      -4.247   1.942 -32.373  0.00  0.00     0.157 HD
HETATM   17  H           1      -6.078   7.979 -33.313  0.00  0.00     0.284 HD
HETATM   18  H           1      -5.587   7.741 -31.719  0.00  0.00     0.284 HD
ENDROOT
BRANCH   2  19
HETATM   19  S           1      -9.172   2.474 -31.226  0.00  0.00    -0.125 SA
BRANCH  19  20
HETATM   20  C           1      -8.620   0.771 -31.539  0.00  0.00     0.077 C 
BRANCH  20  21
HETATM   21  C           1      -9.462   0.177 -32.680  0.00  0.00     0.010 C 
BRANCH  21  22
HETATM   22  C           1      -8.673   0.136 -34.000  0.00  0.00    -0.004 C 
HETATM   23  C           1      -7.383  -0.685 -33.869  0.00  0.00     0.005 C 
ENDBRANCH  21  22
ENDBRANCH  20  21
ENDBRANCH  19  20
ENDBRANCH   2  19
BRANCH   2  24
HETATM   24  S           1      -8.508   3.937 -33.887  0.00  0.00    -0.125 SA
BRANCH  24  25
HETATM   25  C           1     -10.314   4.022 -33.684  0.00  0.00     0.077 C 
BRANCH  25  26
HETATM   26  C           1     -10.964   2.990 -34.619  0.00  0.00     0.010 C 
BRANCH  26  27
HETATM   27  C           1     -12.177   2.311 -33.959  0.00  0.00    -0.004 C 
HETATM   28  C           1     -12.837   1.287 -34.891  0.00  0.00     0.005 C 
ENDBRANCH  26  27
ENDBRANCH  25  26
ENDBRANCH  24  25
ENDBRANCH   2  24
BRANCH   5  29
HETATM   29  C           1      -5.244   5.550 -30.738  0.00  0.00     0.105 C 
HETATM   30  N           1      -4.405   5.297 -29.980  0.00  0.00    -0.151 N 
ENDBRANCH   5  29
BRANCH   9  31
HETATM   31  C           1      -4.311   5.911 -33.485  0.00  0.00    -0.026 A 
HETATM   32  C           1      -3.365   6.645 -32.867  0.00  0.00     0.009 A 
HETATM   33  C           1      -2.099   6.673 -33.309  0.00  0.00     0.001 A 
HETATM   34  C           1      -1.749   5.952 -34.384  0.00  0.00     0.000 A 
HETATM   35  C           1      -2.673   5.204 -35.004  0.00  0.00     0.001 A 
HETATM   36  C           1      -3.938   5.184 -34.554  0.00  0.00     0.009 A 
ENDBRANCH   9  31
TORSDOF 10
ENDMDL
