MODEL 1
REMARK VINA RESULT:      -7.4      0.000      0.000
REMARK  4 active torsions:
REMARK  status: ('A' for Active; 'I' for Inactive)
REMARK    1  A    between atoms: O_2  and  C_3 
REMARK    2  A    between atoms: C_4  and  C_5 
REMARK    3  A    between atoms: C_9  and  N_10 
REMARK    4  A    between atoms: C_13  and  C_14 
ROOT
HETATM    1  C   UNL     1      -7.659   2.501 -32.889  1.00  0.00     0.167 C 
HETATM    2  N   UNL     1      -8.968   1.960 -33.249  1.00  0.00    -0.074 N 
HETATM    3  C   UNL     1      -9.215   1.200 -34.363  1.00  0.00     0.736 A 
HETATM    4  N   UNL     1     -10.479   0.866 -34.375  1.00  0.00     0.131 NA
HETATM    5  C   UNL     1     -10.977   1.499 -33.275  1.00  0.00     0.753 A 
HETATM    6  N   UNL     1     -10.094   2.179 -32.546  1.00  0.00     0.037 NA
HETATM    7  N   UNL     1      -8.244   0.904 -35.247  1.00  0.00    -0.214 N 
HETATM    8  C   UNL     1      -6.851   1.241 -34.982  1.00  0.00     0.135 C 
HETATM    9  C   UNL     1      -6.787   2.551 -34.166  1.00  0.00     0.063 C 
HETATM   10  H   UNL     1      -8.435   0.230 -35.981  1.00  0.00     0.178 HD
ENDROOT
BRANCH   1  11
HETATM   11  C   UNL     1      -6.994   1.787 -31.707  1.00  0.00     0.001 A 
HETATM   12  C   UNL     1      -6.000   2.454 -30.956  1.00  0.00     0.076 A 
HETATM   13  C   UNL     1      -5.372   1.806 -29.884  1.00  0.00     0.037 A 
HETATM   14  C   UNL     1      -5.713   0.496 -29.550  1.00  0.00     0.003 A 
HETATM   15  C   UNL     1      -6.693  -0.170 -30.273  1.00  0.00     0.001 A 
HETATM   16  C   UNL     1      -7.331   0.470 -31.337  1.00  0.00     0.012 A 
BRANCH  12  17
HETATM   17  O   UNL     1      -5.729   3.747 -31.329  1.00  0.00    -0.355 OA
HETATM   18  C   UNL     1      -4.362   4.089 -31.528  1.00  0.00     0.210 C 
ENDBRANCH  12  17
ENDBRANCH   1  11
BRANCH   8  19
HETATM   19  C   UNL     1      -6.056   0.085 -34.385  1.00  0.00    -0.035 A 
HETATM   20  C   UNL     1      -4.874   0.269 -33.649  1.00  0.00     0.010 A 
HETATM   21  C   UNL     1      -4.158  -0.822 -33.147  1.00  0.00     0.019 A 
HETATM   22  C   UNL     1      -4.622  -2.116 -33.368  1.00  0.00     0.011 A 
HETATM   23 BR   UNL     1      -3.642  -3.592 -32.713  1.00  0.00    -0.051 Br
HETATM   24  C   UNL     1      -5.804  -2.326 -34.070  1.00  0.00     0.019 A 
HETATM   25  C   UNL     1      -6.519  -1.233 -34.567  1.00  0.00     0.010 A 
ENDBRANCH   8  19
BRANCH   5  26
HETATM   26  N   UNL     1     -12.269   1.365 -32.995  1.00  0.00    -0.229 N 
HETATM   27  H   UNL     1     -12.918   1.516 -33.756  1.00  0.00     0.174 HD
HETATM   28  H   UNL     1     -12.523   0.627 -32.352  1.00  0.00     0.174 HD
ENDBRANCH   5  26
TORSDOF 4
ENDMDL
MODEL 2
REMARK VINA RESULT:      -7.2      3.256      5.078
REMARK  4 active torsions:
REMARK  status: ('A' for Active; 'I' for Inactive)
REMARK    1  A    between atoms: O_2  and  C_3 
REMARK    2  A    between atoms: C_4  and  C_5 
REMARK    3  A    between atoms: C_9  and  N_10 
REMARK    4  A    between atoms: C_13  and  C_14 
ROOT
HETATM    1  C   UNL     1      -5.596   3.624 -31.845  1.00  0.00     0.167 C 
HETATM    2  N   UNL     1      -4.452   4.184 -32.563  1.00  0.00    -0.074 N 
HETATM    3  C   UNL     1      -3.188   3.656 -32.540  1.00  0.00     0.736 A 
HETATM    4  N   UNL     1      -2.412   4.385 -33.300  1.00  0.00     0.131 NA
HETATM    5  C   UNL     1      -3.239   5.384 -33.718  1.00  0.00     0.753 A 
HETATM    6  N   UNL     1      -4.501   5.307 -33.301  1.00  0.00     0.037 NA
HETATM    7  N   UNL     1      -2.890   2.561 -31.815  1.00  0.00    -0.214 N 
HETATM    8  C   UNL     1      -3.931   1.791 -31.147  1.00  0.00     0.135 C 
HETATM    9  C   UNL     1      -5.061   2.742 -30.693  1.00  0.00     0.063 C 
HETATM   10  H   UNL     1      -1.981   2.125 -31.931  1.00  0.00     0.178 HD
ENDROOT
BRANCH   1  11
HETATM   11  C   UNL     1      -6.614   2.921 -32.749  1.00  0.00     0.001 A 
HETATM   12  C   UNL     1      -7.956   2.790 -32.322  1.00  0.00     0.076 A 
HETATM   13  C   UNL     1      -8.893   2.133 -33.131  1.00  0.00     0.037 A 
HETATM   14  C   UNL     1      -8.514   1.595 -34.360  1.00  0.00     0.003 A 
HETATM   15  C   UNL     1      -7.202   1.722 -34.796  1.00  0.00     0.001 A 
HETATM   16  C   UNL     1      -6.264   2.382 -34.003  1.00  0.00     0.012 A 
BRANCH  12  17
HETATM   17  O   UNL     1      -8.262   3.360 -31.111  1.00  0.00    -0.355 OA
HETATM   18  C   UNL     1      -9.541   3.064 -30.563  1.00  0.00     0.210 C 
ENDBRANCH  12  17
ENDBRANCH   1  11
BRANCH   8  19
HETATM   19  C   UNL     1      -4.403   0.589 -31.958  1.00  0.00    -0.035 A 
HETATM   20  C   UNL     1      -3.651   0.028 -33.003  1.00  0.00     0.010 A 
HETATM   21  C   UNL     1      -4.138  -1.053 -33.743  1.00  0.00     0.019 A 
HETATM   22  C   UNL     1      -5.383  -1.596 -33.440  1.00  0.00     0.011 A 
HETATM   23 BR   UNL     1      -6.052  -3.041 -34.456  1.00  0.00    -0.051 Br
HETATM   24  C   UNL     1      -6.137  -1.078 -32.393  1.00  0.00     0.019 A 
HETATM   25  C   UNL     1      -5.646   0.001 -31.653  1.00  0.00     0.010 A 
ENDBRANCH   8  19
BRANCH   5  26
HETATM   26  N   UNL     1      -2.748   6.321 -34.523  1.00  0.00    -0.229 N 
HETATM   27  H   UNL     1      -1.795   6.614 -34.352  1.00  0.00     0.174 HD
HETATM   28  H   UNL     1      -3.017   6.274 -35.496  1.00  0.00     0.174 HD
ENDBRANCH   5  26
TORSDOF 4
ENDMDL
MODEL 3
REMARK VINA RESULT:      -6.9      2.800      4.886
REMARK  4 active torsions:
REMARK  status: ('A' for Active; 'I' for Inactive)
REMARK    1  A    between atoms: O_2  and  C_3 
REMARK    2  A    between atoms: C_4  and  C_5 
REMARK    3  A    between atoms: C_9  and  N_10 
REMARK    4  A    between atoms: C_13  and  C_14 
ROOT
HETATM    1  C   UNL     1      -8.863   3.311 -31.919  1.00  0.00     0.167 C 
HETATM    2  N   UNL     1      -8.221   4.623 -31.844  1.00  0.00    -0.074 N 
HETATM    3  C   UNL     1      -7.334   4.999 -30.870  1.00  0.00     0.736 A 
HETATM    4  N   UNL     1      -6.938   6.222 -31.108  1.00  0.00     0.131 NA
HETATM    5  C   UNL     1      -7.659   6.572 -32.211  1.00  0.00     0.753 A 
HETATM    6  N   UNL     1      -8.457   5.628 -32.706  1.00  0.00     0.037 NA
HETATM    7  N   UNL     1      -6.995   4.171 -29.864  1.00  0.00    -0.214 N 
HETATM    8  C   UNL     1      -7.428   2.780 -29.851  1.00  0.00     0.135 C 
HETATM    9  C   UNL     1      -8.819   2.670 -30.512  1.00  0.00     0.063 C 
HETATM   10  H   UNL     1      -6.237   4.435 -29.242  1.00  0.00     0.178 HD
ENDROOT
BRANCH   1  11
HETATM   11  C   UNL     1      -8.313   2.413 -33.032  1.00  0.00     0.001 A 
HETATM   12  C   UNL     1      -9.095   1.337 -33.512  1.00  0.00     0.076 A 
HETATM   13  C   UNL     1      -8.598   0.496 -34.517  1.00  0.00     0.037 A 
HETATM   14  C   UNL     1      -7.326   0.705 -35.050  1.00  0.00     0.003 A 
HETATM   15  C   UNL     1      -6.550   1.763 -34.595  1.00  0.00     0.001 A 
HETATM   16  C   UNL     1      -7.040   2.610 -33.601  1.00  0.00     0.012 A 
BRANCH  12  17
HETATM   17  O   UNL     1     -10.343   1.202 -32.955  1.00  0.00    -0.355 OA
HETATM   18  C   UNL     1     -11.453   1.221 -33.845  1.00  0.00     0.210 C 
ENDBRANCH  12  17
ENDBRANCH   1  11
BRANCH   8  19
HETATM   19  C   UNL     1      -6.384   1.820 -30.411  1.00  0.00    -0.035 A 
HETATM   20  C   UNL     1      -5.058   2.201 -30.676  1.00  0.00     0.010 A 
HETATM   21  C   UNL     1      -4.141   1.297 -31.221  1.00  0.00     0.019 A 
HETATM   22  C   UNL     1      -4.538  -0.008 -31.500  1.00  0.00     0.011 A 
HETATM   23 BR   UNL     1      -3.308  -1.222 -32.261  1.00  0.00    -0.051 Br
HETATM   24  C   UNL     1      -5.837  -0.420 -31.222  1.00  0.00     0.019 A 
HETATM   25  C   UNL     1      -6.749   0.485 -30.674  1.00  0.00     0.010 A 
ENDBRANCH   8  19
BRANCH   5  26
HETATM   26  N   UNL     1      -7.491   7.787 -32.721  1.00  0.00    -0.229 N 
HETATM   27  H   UNL     1      -7.633   7.886 -33.718  1.00  0.00     0.174 HD
HETATM   28  H   UNL     1      -7.811   8.565 -32.161  1.00  0.00     0.174 HD
ENDBRANCH   5  26
TORSDOF 4
ENDMDL
MODEL 4
REMARK VINA RESULT:      -6.9      2.276      4.125
REMARK  4 active torsions:
REMARK  status: ('A' for Active; 'I' for Inactive)
REMARK    1  A    between atoms: O_2  and  C_3 
REMARK    2  A    between atoms: C_4  and  C_5 
REMARK    3  A    between atoms: C_9  and  N_10 
REMARK    4  A    between atoms: C_13  and  C_14 
ROOT
HETATM    1  C   UNL     1      -8.908   1.142 -32.016  1.00  0.00     0.167 C 
HETATM    2  N   UNL     1      -9.832   1.656 -33.025  1.00  0.00    -0.074 N 
HETATM    3  C   UNL     1     -10.083   2.986 -33.243  1.00  0.00     0.736 A 
HETATM    4  N   UNL     1     -10.940   3.099 -34.224  1.00  0.00     0.131 NA
HETATM    5  C   UNL     1     -11.228   1.803 -34.535  1.00  0.00     0.753 A 
HETATM    6  N   UNL     1     -10.574   0.879 -33.835  1.00  0.00     0.037 NA
HETATM    7  N   UNL     1      -9.497   3.946 -32.505  1.00  0.00    -0.214 N 
HETATM    8  C   UNL     1      -8.445   3.629 -31.547  1.00  0.00     0.135 C 
HETATM    9  C   UNL     1      -8.710   2.234 -30.939  1.00  0.00     0.063 C 
HETATM   10  H   UNL     1      -9.604   4.916 -32.783  1.00  0.00     0.178 HD
ENDROOT
BRANCH   1  11
HETATM   11  C   UNL     1      -7.600   0.590 -32.594  1.00  0.00     0.001 A 
HETATM   12  C   UNL     1      -6.604   0.095 -31.721  1.00  0.00     0.076 A 
HETATM   13  C   UNL     1      -5.396  -0.396 -32.235  1.00  0.00     0.037 A 
HETATM   14  C   UNL     1      -5.159  -0.395 -33.609  1.00  0.00     0.003 A 
HETATM   15  C   UNL     1      -6.130   0.081 -34.479  1.00  0.00     0.001 A 
HETATM   16  C   UNL     1      -7.340   0.563 -33.978  1.00  0.00     0.012 A 
BRANCH  12  17
HETATM   17  O   UNL     1      -6.913   0.107 -30.384  1.00  0.00    -0.355 OA
HETATM   18  C   UNL     1      -5.874   0.473 -29.484  1.00  0.00     0.210 C 
ENDBRANCH  12  17
ENDBRANCH   1  11
BRANCH   8  19
HETATM   19  C   UNL     1      -7.042   3.816 -32.112  1.00  0.00    -0.035 A 
HETATM   20  C   UNL     1      -6.796   4.155 -33.453  1.00  0.00     0.010 A 
HETATM   21  C   UNL     1      -5.490   4.283 -33.938  1.00  0.00     0.019 A 
HETATM   22  C   UNL     1      -4.411   4.084 -33.082  1.00  0.00     0.011 A 
HETATM   23 BR   UNL     1      -2.647   4.233 -33.742  1.00  0.00    -0.051 Br
HETATM   24  C   UNL     1      -4.626   3.775 -31.743  1.00  0.00     0.019 A 
HETATM   25  C   UNL     1      -5.931   3.651 -31.261  1.00  0.00     0.010 A 
ENDBRANCH   8  19
BRANCH   5  26
HETATM   26  N   UNL     1     -12.093   1.562 -35.515  1.00  0.00    -0.229 N 
HETATM   27  H   UNL     1     -12.499   2.367 -35.972  1.00  0.00     0.174 HD
HETATM   28  H   UNL     1     -11.889   0.779 -36.121  1.00  0.00     0.174 HD
ENDBRANCH   5  26
TORSDOF 4
ENDMDL
MODEL 5
REMARK VINA RESULT:      -6.8      3.568      5.716
REMARK  4 active torsions:
REMARK  status: ('A' for Active; 'I' for Inactive)
REMARK    1  A    between atoms: O_2  and  C_3 
REMARK    2  A    between atoms: C_4  and  C_5 
REMARK    3  A    between atoms: C_9  and  N_10 
REMARK    4  A    between atoms: C_13  and  C_14 
ROOT
HETATM    1  C   UNL     1      -4.480   1.378 -32.096  1.00  0.00     0.167 C 
HETATM    2  N   UNL     1      -5.312   0.309 -32.645  1.00  0.00    -0.074 N 
HETATM    3  C   UNL     1      -6.371  -0.264 -31.991  1.00  0.00     0.736 A 
HETATM    4  N   UNL     1      -6.907  -1.170 -32.767  1.00  0.00     0.131 NA
HETATM    5  C   UNL     1      -6.100  -1.154 -33.865  1.00  0.00     0.753 A 
HETATM    6  N   UNL     1      -5.111  -0.263 -33.846  1.00  0.00     0.037 NA
HETATM    7  N   UNL     1      -6.720   0.110 -30.746  1.00  0.00    -0.214 N 
HETATM    8  C   UNL     1      -6.092   1.253 -30.095  1.00  0.00     0.135 C 
HETATM    9  C   UNL     1      -4.621   1.360 -30.557  1.00  0.00     0.063 C 
HETATM   10  H   UNL     1      -7.587  -0.240 -30.350  1.00  0.00     0.178 HD
ENDROOT
BRANCH   1  11
HETATM   11  C   UNL     1      -4.731   2.750 -32.731  1.00  0.00     0.001 A 
HETATM   12  C   UNL     1      -3.763   3.771 -32.594  1.00  0.00     0.076 A 
HETATM   13  C   UNL     1      -3.988   5.036 -33.155  1.00  0.00     0.037 A 
HETATM   14  C   UNL     1      -5.168   5.305 -33.846  1.00  0.00     0.003 A 
HETATM   15  C   UNL     1      -6.125   4.310 -33.995  1.00  0.00     0.001 A 
HETATM   16  C   UNL     1      -5.906   3.045 -33.449  1.00  0.00     0.012 A 
BRANCH  12  17
HETATM   17  O   UNL     1      -2.618   3.431 -31.918  1.00  0.00    -0.355 OA
HETATM   18  C   UNL     1      -1.745   4.493 -31.549  1.00  0.00     0.210 C 
ENDBRANCH  12  17
ENDBRANCH   1  11
BRANCH   8  19
HETATM   19  C   UNL     1      -6.895   2.541 -30.237  1.00  0.00    -0.035 A 
HETATM   20  C   UNL     1      -8.192   2.579 -30.777  1.00  0.00     0.010 A 
HETATM   21  C   UNL     1      -8.879   3.788 -30.920  1.00  0.00     0.019 A 
HETATM   22  C   UNL     1      -8.281   4.978 -30.514  1.00  0.00     0.011 A 
HETATM   23 BR   UNL     1      -9.199   6.614 -30.730  1.00  0.00    -0.051 Br
HETATM   24  C   UNL     1      -7.009   4.966 -29.951  1.00  0.00     0.019 A 
HETATM   25  C   UNL     1      -6.326   3.756 -29.806  1.00  0.00     0.010 A 
ENDBRANCH   8  19
BRANCH   5  26
HETATM   26  N   UNL     1      -6.374  -1.982 -34.867  1.00  0.00    -0.229 N 
HETATM   27  H   UNL     1      -6.325  -2.972 -34.666  1.00  0.00     0.174 HD
HETATM   28  H   UNL     1      -7.115  -1.707 -35.498  1.00  0.00     0.174 HD
ENDBRANCH   5  26
TORSDOF 4
ENDMDL
MODEL 6
REMARK VINA RESULT:      -6.6      3.438      5.147
REMARK  4 active torsions:
REMARK  status: ('A' for Active; 'I' for Inactive)
REMARK    1  A    between atoms: O_2  and  C_3 
REMARK    2  A    between atoms: C_4  and  C_5 
REMARK    3  A    between atoms: C_9  and  N_10 
REMARK    4  A    between atoms: C_13  and  C_14 
ROOT
HETATM    1  C   UNL     1     -12.394   3.908 -33.851  1.00  0.00     0.167 C 
HETATM    2  N   UNL     1     -13.515   3.092 -33.389  1.00  0.00    -0.074 N 
HETATM    3  C   UNL     1     -13.690   1.768 -33.695  1.00  0.00     0.736 A 
HETATM    4  N   UNL     1     -14.777   1.339 -33.109  1.00  0.00     0.131 NA
HETATM    5  C   UNL     1     -15.265   2.458 -32.503  1.00  0.00     0.753 A 
HETATM    6  N   UNL     1     -14.528   3.559 -32.637  1.00  0.00     0.037 NA
HETATM    7  N   UNL     1     -12.827   1.105 -34.487  1.00  0.00    -0.214 N 
HETATM    8  C   UNL     1     -11.580   1.717 -34.928  1.00  0.00     0.135 C 
HETATM    9  C   UNL     1     -11.792   3.237 -35.107  1.00  0.00     0.063 C 
HETATM   10  H   UNL     1     -12.917   0.098 -34.580  1.00  0.00     0.178 HD
ENDROOT
BRANCH   1  11
HETATM   11  C   UNL     1     -11.365   4.227 -32.760  1.00  0.00     0.001 A 
HETATM   12  C   UNL     1     -10.414   5.250 -32.974  1.00  0.00     0.076 A 
HETATM   13  C   UNL     1      -9.456   5.540 -31.992  1.00  0.00     0.037 A 
HETATM   14  C   UNL     1      -9.426   4.820 -30.798  1.00  0.00     0.003 A 
HETATM   15  C   UNL     1     -10.358   3.817 -30.571  1.00  0.00     0.001 A 
HETATM   16  C   UNL     1     -11.321   3.527 -31.538  1.00  0.00     0.012 A 
BRANCH  12  17
HETATM   17  O   UNL     1     -10.515   5.930 -34.162  1.00  0.00    -0.355 OA
HETATM   18  C   UNL     1     -10.702   7.338 -34.088  1.00  0.00     0.210 C 
ENDBRANCH  12  17
ENDBRANCH   1  11
BRANCH   8  19
HETATM   19  C   UNL     1     -10.387   1.344 -34.056  1.00  0.00    -0.035 A 
HETATM   20  C   UNL     1     -10.445   0.349 -33.064  1.00  0.00     0.010 A 
HETATM   21  C   UNL     1      -9.335   0.062 -32.264  1.00  0.00     0.019 A 
HETATM   22  C   UNL     1      -8.146   0.760 -32.452  1.00  0.00     0.011 A 
HETATM   23 BR   UNL     1      -6.654   0.390 -31.354  1.00  0.00    -0.051 Br
HETATM   24  C   UNL     1      -8.052   1.731 -33.444  1.00  0.00     0.019 A 
HETATM   25  C   UNL     1      -9.162   2.013 -34.244  1.00  0.00     0.010 A 
ENDBRANCH   8  19
BRANCH   5  26
HETATM   26  N   UNL     1     -16.393   2.364 -31.807  1.00  0.00    -0.229 N 
HETATM   27  H   UNL     1     -16.988   3.182 -31.792  1.00  0.00     0.174 HD
HETATM   28  H   UNL     1     -16.879   1.479 -31.842  1.00  0.00     0.174 HD
ENDBRANCH   5  26
TORSDOF 4
ENDMDL
MODEL 7
REMARK VINA RESULT:      -6.4      3.305      5.476
REMARK  4 active torsions:
REMARK  status: ('A' for Active; 'I' for Inactive)
REMARK    1  A    between atoms: O_2  and  C_3 
REMARK    2  A    between atoms: C_4  and  C_5 
REMARK    3  A    between atoms: C_9  and  N_10 
REMARK    4  A    between atoms: C_13  and  C_14 
ROOT
HETATM    1  C   UNL     1      -6.209   1.366 -31.709  1.00  0.00     0.167 C 
HETATM    2  N   UNL     1      -6.268   0.220 -32.614  1.00  0.00    -0.074 N 
HETATM    3  C   UNL     1      -7.425  -0.403 -33.004  1.00  0.00     0.736 A 
HETATM    4  N   UNL     1      -7.125  -1.375 -33.826  1.00  0.00     0.131 NA
HETATM    5  C   UNL     1      -5.763  -1.343 -33.859  1.00  0.00     0.753 A 
HETATM    6  N   UNL     1      -5.186  -0.383 -33.139  1.00  0.00     0.037 NA
HETATM    7  N   UNL     1      -8.629  -0.007 -32.551  1.00  0.00    -0.214 N 
HETATM    8  C   UNL     1      -8.777   1.203 -31.753  1.00  0.00     0.135 C 
HETATM    9  C   UNL     1      -7.515   1.399 -30.882  1.00  0.00     0.063 C 
HETATM   10  H   UNL     1      -9.466  -0.404 -32.966  1.00  0.00     0.178 HD
ENDROOT
BRANCH   1  11
HETATM   11  C   UNL     1      -5.878   2.691 -32.406  1.00  0.00     0.001 A 
HETATM   12  C   UNL     1      -5.422   3.788 -31.640  1.00  0.00     0.076 A 
HETATM   13  C   UNL     1      -5.133   5.011 -32.262  1.00  0.00     0.037 A 
HETATM   14  C   UNL     1      -5.298   5.162 -33.638  1.00  0.00     0.003 A 
HETATM   15  C   UNL     1      -5.738   4.091 -34.404  1.00  0.00     0.001 A 
HETATM   16  C   UNL     1      -6.020   2.868 -33.796  1.00  0.00     0.012 A 
BRANCH  12  17
HETATM   17  O   UNL     1      -5.265   3.563 -30.295  1.00  0.00    -0.355 OA
HETATM   18  C   UNL     1      -5.782   4.549 -29.410  1.00  0.00     0.210 C 
ENDBRANCH  12  17
ENDBRANCH   1  11
BRANCH   8  19
HETATM   19  C   UNL     1      -9.172   2.423 -32.577  1.00  0.00    -0.035 A 
HETATM   20  C   UNL     1      -9.590   2.338 -33.916  1.00  0.00     0.010 A 
HETATM   21  C   UNL     1      -9.911   3.487 -34.646  1.00  0.00     0.019 A 
HETATM   22  C   UNL     1      -9.828   4.738 -34.041  1.00  0.00     0.011 A 
HETATM   23 BR   UNL     1     -10.236   6.292 -35.034  1.00  0.00    -0.051 Br
HETATM   24  C   UNL     1      -9.443   4.848 -32.709  1.00  0.00     0.019 A 
HETATM   25  C   UNL     1      -9.126   3.698 -31.982  1.00  0.00     0.010 A 
ENDBRANCH   8  19
BRANCH   5  26
HETATM   26  N   UNL     1      -5.124  -2.228 -34.618  1.00  0.00    -0.229 N 
HETATM   27  H   UNL     1      -5.678  -2.721 -35.306  1.00  0.00     0.174 HD
HETATM   28  H   UNL     1      -4.188  -1.986 -34.912  1.00  0.00     0.174 HD
ENDBRANCH   5  26
TORSDOF 4
ENDMDL
MODEL 8
REMARK VINA RESULT:      -6.4      2.130      3.037
REMARK  4 active torsions:
REMARK  status: ('A' for Active; 'I' for Inactive)
REMARK    1  A    between atoms: O_2  and  C_3 
REMARK    2  A    between atoms: C_4  and  C_5 
REMARK    3  A    between atoms: C_9  and  N_10 
REMARK    4  A    between atoms: C_13  and  C_14 
ROOT
HETATM    1  C   UNL     1      -8.765   4.613 -32.286  1.00  0.00     0.167 C 
HETATM    2  N   UNL     1     -10.104   4.232 -31.840  1.00  0.00    -0.074 N 
HETATM    3  C   UNL     1     -10.975   3.464 -32.568  1.00  0.00     0.736 A 
HETATM    4  N   UNL     1     -12.071   3.297 -31.875  1.00  0.00     0.131 NA
HETATM    5  C   UNL     1     -11.842   4.033 -30.751  1.00  0.00     0.753 A 
HETATM    6  N   UNL     1     -10.651   4.623 -30.675  1.00  0.00     0.037 NA
HETATM    7  N   UNL     1     -10.662   3.009 -33.796  1.00  0.00    -0.214 N 
HETATM    8  C   UNL     1      -9.322   3.174 -34.345  1.00  0.00     0.135 C 
HETATM    9  C   UNL     1      -8.716   4.498 -33.827  1.00  0.00     0.063 C 
HETATM   10  H   UNL     1     -11.276   2.336 -34.243  1.00  0.00     0.178 HD
ENDROOT
BRANCH   1  11
HETATM   11  C   UNL     1      -7.634   3.868 -31.568  1.00  0.00     0.001 A 
HETATM   12  C   UNL     1      -6.317   4.378 -31.621  1.00  0.00     0.076 A 
HETATM   13  C   UNL     1      -5.271   3.697 -30.983  1.00  0.00     0.037 A 
HETATM   14  C   UNL     1      -5.514   2.509 -30.297  1.00  0.00     0.003 A 
HETATM   15  C   UNL     1      -6.804   2.000 -30.229  1.00  0.00     0.001 A 
HETATM   16  C   UNL     1      -7.854   2.675 -30.852  1.00  0.00     0.012 A 
BRANCH  12  17
HETATM   17  O   UNL     1      -6.154   5.561 -32.298  1.00  0.00    -0.355 OA
HETATM   18  C   UNL     1      -5.161   5.592 -33.316  1.00  0.00     0.210 C 
ENDBRANCH  12  17
ENDBRANCH   1  11
BRANCH   8  19
HETATM   19  C   UNL     1      -8.436   1.951 -34.142  1.00  0.00    -0.035 A 
HETATM   20  C   UNL     1      -8.933   0.706 -33.719  1.00  0.00     0.010 A 
HETATM   21  C   UNL     1      -8.078  -0.381 -33.514  1.00  0.00     0.019 A 
HETATM   22  C   UNL     1      -6.712  -0.240 -33.740  1.00  0.00     0.011 A 
HETATM   23 BR   UNL     1      -5.554  -1.702 -33.438  1.00  0.00    -0.051 Br
HETATM   24  C   UNL     1      -6.196   0.972 -34.185  1.00  0.00     0.019 A 
HETATM   25  C   UNL     1      -7.053   2.055 -34.393  1.00  0.00     0.010 A 
ENDBRANCH   8  19
BRANCH   5  26
HETATM   26  N   UNL     1     -12.787   4.079 -29.818  1.00  0.00    -0.229 N 
HETATM   27  H   UNL     1     -12.551   3.697 -28.911  1.00  0.00     0.174 HD
HETATM   28  H   UNL     1     -13.371   4.904 -29.799  1.00  0.00     0.174 HD
ENDBRANCH   5  26
TORSDOF 4
ENDMDL
MODEL 9
REMARK VINA RESULT:      -6.3      4.129      6.232
REMARK  4 active torsions:
REMARK  status: ('A' for Active; 'I' for Inactive)
REMARK    1  A    between atoms: O_2  and  C_3 
REMARK    2  A    between atoms: C_4  and  C_5 
REMARK    3  A    between atoms: C_9  and  N_10 
REMARK    4  A    between atoms: C_13  and  C_14 
ROOT
HETATM    1  C   UNL     1      -5.319   5.363 -31.018  1.00  0.00     0.167 C 
HETATM    2  N   UNL     1      -4.097   4.933 -31.696  1.00  0.00    -0.074 N 
HETATM    3  C   UNL     1      -3.525   3.696 -31.552  1.00  0.00     0.736 A 
HETATM    4  N   UNL     1      -2.459   3.633 -32.307  1.00  0.00     0.131 NA
HETATM    5  C   UNL     1      -2.389   4.882 -32.848  1.00  0.00     0.753 A 
HETATM    6  N   UNL     1      -3.371   5.717 -32.512  1.00  0.00     0.037 NA
HETATM    7  N   UNL     1      -4.049   2.764 -30.734  1.00  0.00    -0.214 N 
HETATM    8  C   UNL     1      -5.338   2.966 -30.085  1.00  0.00     0.135 C 
HETATM    9  C   UNL     1      -5.525   4.468 -29.775  1.00  0.00     0.063 C 
HETATM   10  H   UNL     1      -3.676   1.821 -30.758  1.00  0.00     0.178 HD
ENDROOT
BRANCH   1  11
HETATM   11  C   UNL     1      -6.543   5.448 -31.938  1.00  0.00     0.001 A 
HETATM   12  C   UNL     1      -7.671   6.196 -31.532  1.00  0.00     0.076 A 
HETATM   13  C   UNL     1      -8.804   6.267 -32.355  1.00  0.00     0.037 A 
HETATM   14  C   UNL     1      -8.835   5.595 -33.577  1.00  0.00     0.003 A 
HETATM   15  C   UNL     1      -7.731   4.862 -33.992  1.00  0.00     0.001 A 
HETATM   16  C   UNL     1      -6.595   4.794 -33.184  1.00  0.00     0.012 A 
BRANCH  12  17
HETATM   17  O   UNL     1      -7.564   6.846 -30.328  1.00  0.00    -0.355 OA
HETATM   18  C   UNL     1      -8.563   6.570 -29.353  1.00  0.00     0.210 C 
ENDBRANCH  12  17
ENDBRANCH   1  11
BRANCH   8  19
HETATM   19  C   UNL     1      -6.498   2.326 -30.840  1.00  0.00    -0.035 A 
HETATM   20  C   UNL     1      -6.315   1.407 -31.887  1.00  0.00     0.010 A 
HETATM   21  C   UNL     1      -7.407   0.870 -32.575  1.00  0.00     0.019 A 
HETATM   22  C   UNL     1      -8.701   1.239 -32.217  1.00  0.00     0.011 A 
HETATM   23 BR   UNL     1     -10.176   0.534 -33.164  1.00  0.00    -0.051 Br
HETATM   24  C   UNL     1      -8.912   2.126 -31.167  1.00  0.00     0.019 A 
HETATM   25  C   UNL     1      -7.818   2.658 -30.479  1.00  0.00     0.010 A 
ENDBRANCH   8  19
BRANCH   5  26
HETATM   26  N   UNL     1      -1.392   5.160 -33.681  1.00  0.00    -0.229 N 
HETATM   27  H   UNL     1      -0.467   4.859 -33.401  1.00  0.00     0.174 HD
HETATM   28  H   UNL     1      -1.588   5.084 -34.670  1.00  0.00     0.174 HD
ENDBRANCH   5  26
TORSDOF 4
ENDMDL
MODEL 10
REMARK VINA RESULT:      -6.3      3.327      5.670
REMARK  4 active torsions:
REMARK  status: ('A' for Active; 'I' for Inactive)
REMARK    1  A    between atoms: O_2  and  C_3 
REMARK    2  A    between atoms: C_4  and  C_5 
REMARK    3  A    between atoms: C_9  and  N_10 
REMARK    4  A    between atoms: C_13  and  C_14 
ROOT
HETATM    1  C   UNL     1      -6.327   1.679 -31.617  1.00  0.00     0.167 C 
HETATM    2  N   UNL     1      -7.637   1.716 -32.263  1.00  0.00    -0.074 N 
HETATM    3  C   UNL     1      -8.756   2.290 -31.718  1.00  0.00     0.736 A 
HETATM    4  N   UNL     1      -9.749   2.166 -32.560  1.00  0.00     0.131 NA
HETATM    5  C   UNL     1      -9.198   1.453 -33.583  1.00  0.00     0.753 A 
HETATM    6  N   UNL     1      -7.907   1.156 -33.456  1.00  0.00     0.037 NA
HETATM    7  N   UNL     1      -8.736   2.861 -30.499  1.00  0.00    -0.214 N 
HETATM    8  C   UNL     1      -7.488   3.039 -29.767  1.00  0.00     0.135 C 
HETATM    9  C   UNL     1      -6.531   1.872 -30.096  1.00  0.00     0.063 C 
HETATM   10  H   UNL     1      -9.544   3.391 -30.189  1.00  0.00     0.178 HD
ENDROOT
BRANCH   1  11
HETATM   11  C   UNL     1      -5.301   2.635 -32.236  1.00  0.00     0.001 A 
HETATM   12  C   UNL     1      -3.929   2.482 -31.930  1.00  0.00     0.076 A 
HETATM   13  C   UNL     1      -2.983   3.360 -32.475  1.00  0.00     0.037 A 
HETATM   14  C   UNL     1      -3.381   4.397 -33.317  1.00  0.00     0.003 A 
HETATM   15  C   UNL     1      -4.724   4.555 -33.634  1.00  0.00     0.001 A 
HETATM   16  C   UNL     1      -5.673   3.680 -33.104  1.00  0.00     0.012 A 
BRANCH  12  17
HETATM   17  O   UNL     1      -3.608   1.429 -31.109  1.00  0.00    -0.355 OA
HETATM   18  C   UNL     1      -3.135   0.243 -31.735  1.00  0.00     0.210 C 
ENDBRANCH  12  17
ENDBRANCH   1  11
BRANCH   8  19
HETATM   19  C   UNL     1      -6.880   4.426 -29.945  1.00  0.00    -0.035 A 
HETATM   20  C   UNL     1      -7.551   5.478 -30.592  1.00  0.00     0.010 A 
HETATM   21  C   UNL     1      -6.942   6.725 -30.763  1.00  0.00     0.019 A 
HETATM   22  C   UNL     1      -5.654   6.939 -30.279  1.00  0.00     0.011 A 
HETATM   23 BR   UNL     1      -4.822   8.616 -30.533  1.00  0.00    -0.051 Br
HETATM   24  C   UNL     1      -4.978   5.924 -29.611  1.00  0.00     0.019 A 
HETATM   25  C   UNL     1      -5.591   4.680 -29.439  1.00  0.00     0.010 A 
ENDBRANCH   8  19
BRANCH   5  26
HETATM   26  N   UNL     1      -9.962   1.145 -34.627  1.00  0.00    -0.229 N 
HETATM   27  H   UNL     1     -10.762   0.553 -34.446  1.00  0.00     0.174 HD
HETATM   28  H   UNL     1     -10.110   1.871 -35.314  1.00  0.00     0.174 HD
ENDBRANCH   5  26
TORSDOF 4
ENDMDL
