MODEL 1
REMARK VINA RESULT:      -9.3      0.000      0.000
REMARK  5 active torsions:
REMARK  status: ('A' for Active; 'I' for Inactive)
REMARK    1  A    between atoms: O_2  and  C_3 
REMARK    2  A    between atoms: C_6  and  C_7 
REMARK    3  A    between atoms: C_7  and  C_8 
REMARK       I    between atoms: C_8  and  N_9 
REMARK    4  A    between atoms: N_9  and  C_10 
REMARK    5  A    between atoms: C_13  and  C_14 
ROOT
HETATM    1  C   UNL     1      -3.508   3.774 -31.606  1.00  0.00     0.034 A 
HETATM    2  C   UNL     1      -3.012   2.529 -31.221  1.00  0.00     0.030 A 
HETATM    3  C   UNL     1      -3.557   1.351 -31.749  1.00  0.00     0.017 A 
HETATM    4  C   UNL     1      -4.603   1.400 -32.676  1.00  0.00     0.010 A 
HETATM    5  C   UNL     1      -5.132   2.645 -33.035  1.00  0.00     0.017 A 
HETATM    6  C   UNL     1      -4.583   3.822 -32.504  1.00  0.00     0.030 A 
ENDROOT
BRANCH   1   7
HETATM    7  N   UNL     1      -2.963   5.003 -31.176  1.00  0.00    -0.327 N 
HETATM    8  C   UNL     1      -1.676   5.471 -31.392  1.00  0.00     0.226 C 
HETATM    9  O   UNL     1      -0.742   4.834 -31.871  1.00  0.00    -0.273 OA
HETATM   10  H   UNL     1      -3.579   5.609 -30.647  1.00  0.00     0.169 HD
BRANCH   8  11
HETATM   11  C   UNL     1      -1.498   6.928 -30.994  1.00  0.00     0.141 C 
BRANCH  11  12
HETATM   12  C   UNL     1      -0.862   7.142 -29.643  1.00  0.00    -0.049 A 
HETATM   13  C   UNL     1       0.499   7.446 -29.513  1.00  0.00     0.010 A 
HETATM   14  C   UNL     1       1.060   7.706 -28.257  1.00  0.00     0.037 A 
HETATM   15  C   UNL     1       0.264   7.683 -27.114  1.00  0.00     0.068 A 
HETATM   16  C   UNL     1      -1.097   7.396 -27.239  1.00  0.00     0.037 A 
HETATM   17  C   UNL     1      -1.659   7.132 -28.490  1.00  0.00     0.010 A 
BRANCH  15  18
HETATM   18  O   UNL     1       0.680   7.931 -25.834  1.00  0.00    -0.356 OA
HETATM   19  C   UNL     1       2.019   8.377 -25.670  1.00  0.00     0.210 C 
ENDBRANCH  15  18
ENDBRANCH  11  12
ENDBRANCH   8  11
ENDBRANCH   1   7
BRANCH   4  20
HETATM   20  C   UNL     1      -5.092   0.118 -33.261  1.00  0.00     0.141 A 
HETATM   21  N   UNL     1      -4.392  -0.967 -33.148  1.00  0.00    -0.230 NA
HETATM   22  C   UNL     1      -4.868  -2.141 -33.755  1.00  0.00     0.074 A 
HETATM   23  C   UNL     1      -6.059  -2.183 -34.481  1.00  0.00     0.061 A 
HETATM   24  C   UNL     1      -4.112  -3.311 -33.648  1.00  0.00     0.032 A 
HETATM   25  C   UNL     1      -6.826  -0.932 -34.590  1.00  0.00     0.259 A 
HETATM   26  C   UNL     1      -6.498  -3.360 -35.097  1.00  0.00     0.019 A 
HETATM   27  O   UNL     1      -7.872  -0.856 -35.222  1.00  0.00    -0.267 OA
HETATM   28  N   UNL     1      -6.285   0.154 -33.949  1.00  0.00    -0.307 N 
HETATM   29  H   UNL     1      -6.793   1.013 -34.088  1.00  0.00     0.170 HD
HETATM   30  C   UNL     1      -5.731  -4.518 -34.984  1.00  0.00     0.001 A 
HETATM   31  C   UNL     1      -4.539  -4.494 -34.259  1.00  0.00     0.002 A 
ENDBRANCH   4  20
TORSDOF 5
ENDMDL
MODEL 2
REMARK VINA RESULT:      -8.6      3.621      5.000
REMARK  5 active torsions:
REMARK  status: ('A' for Active; 'I' for Inactive)
REMARK    1  A    between atoms: O_2  and  C_3 
REMARK    2  A    between atoms: C_6  and  C_7 
REMARK    3  A    between atoms: C_7  and  C_8 
REMARK       I    between atoms: C_8  and  N_9 
REMARK    4  A    between atoms: N_9  and  C_10 
REMARK    5  A    between atoms: C_13  and  C_14 
ROOT
HETATM    1  C   UNL     1      -4.512   4.886 -33.027  1.00  0.00     0.034 A 
HETATM    2  C   UNL     1      -4.670   3.502 -32.953  1.00  0.00     0.030 A 
HETATM    3  C   UNL     1      -5.932   2.919 -33.127  1.00  0.00     0.017 A 
HETATM    4  C   UNL     1      -7.056   3.710 -33.384  1.00  0.00     0.010 A 
HETATM    5  C   UNL     1      -6.911   5.101 -33.419  1.00  0.00     0.017 A 
HETATM    6  C   UNL     1      -5.645   5.681 -33.245  1.00  0.00     0.030 A 
ENDROOT
BRANCH   1   7
HETATM    7  N   UNL     1      -3.265   5.540 -32.938  1.00  0.00    -0.327 N 
HETATM    8  C   UNL     1      -2.329   5.703 -33.947  1.00  0.00     0.226 C 
HETATM    9  O   UNL     1      -2.360   5.182 -35.059  1.00  0.00    -0.273 OA
HETATM   10  H   UNL     1      -3.024   5.929 -32.034  1.00  0.00     0.169 HD
BRANCH   8  11
HETATM   11  C   UNL     1      -1.205   6.655 -33.569  1.00  0.00     0.141 C 
BRANCH  11  12
HETATM   12  C   UNL     1      -0.707   6.515 -32.152  1.00  0.00    -0.049 A 
HETATM   13  C   UNL     1      -0.909   7.522 -31.199  1.00  0.00     0.010 A 
HETATM   14  C   UNL     1      -0.497   7.348 -29.873  1.00  0.00     0.037 A 
HETATM   15  C   UNL     1       0.108   6.157 -29.475  1.00  0.00     0.068 A 
HETATM   16  C   UNL     1       0.297   5.144 -30.417  1.00  0.00     0.037 A 
HETATM   17  C   UNL     1      -0.109   5.315 -31.742  1.00  0.00     0.010 A 
BRANCH  15  18
HETATM   18  O   UNL     1       0.542   5.854 -28.214  1.00  0.00    -0.356 OA
HETATM   19  C   UNL     1      -0.207   6.387 -27.130  1.00  0.00     0.210 C 
ENDBRANCH  15  18
ENDBRANCH  11  12
ENDBRANCH   8  11
ENDBRANCH   1   7
BRANCH   4  20
HETATM   20  C   UNL     1      -8.358   3.029 -33.636  1.00  0.00     0.141 A 
HETATM   21  N   UNL     1      -9.288   3.616 -34.321  1.00  0.00    -0.230 NA
HETATM   22  C   UNL     1     -10.517   2.956 -34.493  1.00  0.00     0.074 A 
HETATM   23  C   UNL     1     -10.777   1.697 -33.948  1.00  0.00     0.061 A 
HETATM   24  C   UNL     1     -11.528   3.589 -35.219  1.00  0.00     0.032 A 
HETATM   25  C   UNL     1      -9.699   1.062 -33.174  1.00  0.00     0.259 A 
HETATM   26  C   UNL     1     -12.018   1.073 -34.113  1.00  0.00     0.019 A 
HETATM   27  O   UNL     1      -9.832  -0.031 -32.637  1.00  0.00    -0.267 OA
HETATM   28  N   UNL     1      -8.534   1.780 -33.078  1.00  0.00    -0.307 N 
HETATM   29  H   UNL     1      -7.831   1.356 -32.494  1.00  0.00     0.170 HD
HETATM   30  C   UNL     1     -13.018   1.719 -34.837  1.00  0.00     0.001 A 
HETATM   31  C   UNL     1     -12.773   2.976 -35.391  1.00  0.00     0.002 A 
ENDBRANCH   4  20
TORSDOF 5
ENDMDL
MODEL 3
REMARK VINA RESULT:      -8.5      7.657     11.893
REMARK  5 active torsions:
REMARK  status: ('A' for Active; 'I' for Inactive)
REMARK    1  A    between atoms: O_2  and  C_3 
REMARK    2  A    between atoms: C_6  and  C_7 
REMARK    3  A    between atoms: C_7  and  C_8 
REMARK       I    between atoms: C_8  and  N_9 
REMARK    4  A    between atoms: N_9  and  C_10 
REMARK    5  A    between atoms: C_13  and  C_14 
ROOT
HETATM    1  C   UNL     1     -10.467   1.847 -34.052  1.00  0.00     0.034 A 
HETATM    2  C   UNL     1     -11.613   1.053 -34.041  1.00  0.00     0.030 A 
HETATM    3  C   UNL     1     -12.823   1.556 -33.545  1.00  0.00     0.017 A 
HETATM    4  C   UNL     1     -12.908   2.864 -33.059  1.00  0.00     0.010 A 
HETATM    5  C   UNL     1     -11.752   3.652 -33.030  1.00  0.00     0.017 A 
HETATM    6  C   UNL     1     -10.542   3.144 -33.528  1.00  0.00     0.030 A 
ENDROOT
BRANCH   1   7
HETATM    7  N   UNL     1      -9.233   1.438 -34.603  1.00  0.00    -0.327 N 
HETATM    8  C   UNL     1      -8.349   0.508 -34.079  1.00  0.00     0.226 C 
HETATM    9  O   UNL     1      -8.417  -0.017 -32.971  1.00  0.00    -0.273 OA
HETATM   10  H   UNL     1      -8.962   1.876 -35.475  1.00  0.00     0.169 HD
BRANCH   8  11
HETATM   11  C   UNL     1      -7.234   0.139 -35.045  1.00  0.00     0.141 C 
BRANCH  11  12
HETATM   12  C   UNL     1      -6.545  -1.170 -34.746  1.00  0.00    -0.049 A 
HETATM   13  C   UNL     1      -7.093  -2.396 -35.146  1.00  0.00     0.010 A 
HETATM   14  C   UNL     1      -6.410  -3.596 -34.917  1.00  0.00     0.037 A 
HETATM   15  C   UNL     1      -5.159  -3.587 -34.303  1.00  0.00     0.068 A 
HETATM   16  C   UNL     1      -4.601  -2.366 -33.917  1.00  0.00     0.037 A 
HETATM   17  C   UNL     1      -5.282  -1.168 -34.139  1.00  0.00     0.010 A 
BRANCH  15  18
HETATM   18  O   UNL     1      -4.382  -4.680 -34.035  1.00  0.00    -0.356 OA
HETATM   19  C   UNL     1      -3.318  -4.502 -33.110  1.00  0.00     0.210 C 
ENDBRANCH  15  18
ENDBRANCH  11  12
ENDBRANCH   8  11
ENDBRANCH   1   7
BRANCH   4  20
HETATM   20  C   UNL     1     -14.239   3.370 -32.614  1.00  0.00     0.141 A 
HETATM   21  N   UNL     1     -14.340   4.499 -31.986  1.00  0.00    -0.230 NA
HETATM   22  C   UNL     1     -15.608   4.913 -31.545  1.00  0.00     0.074 A 
HETATM   23  C   UNL     1     -16.761   4.152 -31.749  1.00  0.00     0.061 A 
HETATM   24  C   UNL     1     -15.721   6.122 -30.856  1.00  0.00     0.032 A 
HETATM   25  C   UNL     1     -16.607   2.876 -32.463  1.00  0.00     0.259 A 
HETATM   26  C   UNL     1     -18.007   4.575 -31.277  1.00  0.00     0.019 A 
HETATM   27  O   UNL     1     -17.551   2.124 -32.675  1.00  0.00    -0.267 OA
HETATM   28  N   UNL     1     -15.332   2.569 -32.867  1.00  0.00    -0.307 N 
HETATM   29  H   UNL     1     -15.239   1.664 -33.299  1.00  0.00     0.170 HD
HETATM   30  C   UNL     1     -18.104   5.783 -30.588  1.00  0.00     0.001 A 
HETATM   31  C   UNL     1     -16.962   6.557 -30.379  1.00  0.00     0.002 A 
ENDBRANCH   4  20
TORSDOF 5
ENDMDL
MODEL 4
REMARK VINA RESULT:      -8.5      1.639      2.199
REMARK  5 active torsions:
REMARK  status: ('A' for Active; 'I' for Inactive)
REMARK    1  A    between atoms: O_2  and  C_3 
REMARK    2  A    between atoms: C_6  and  C_7 
REMARK    3  A    between atoms: C_7  and  C_8 
REMARK       I    between atoms: C_8  and  N_9 
REMARK    4  A    between atoms: N_9  and  C_10 
REMARK    5  A    between atoms: C_13  and  C_14 
ROOT
HETATM    1  C   UNL     1      -3.041   5.550 -31.246  1.00  0.00     0.034 A 
HETATM    2  C   UNL     1      -2.351   4.380 -31.565  1.00  0.00     0.030 A 
HETATM    3  C   UNL     1      -3.035   3.258 -32.047  1.00  0.00     0.017 A 
HETATM    4  C   UNL     1      -4.422   3.289 -32.225  1.00  0.00     0.010 A 
HETATM    5  C   UNL     1      -5.125   4.445 -31.869  1.00  0.00     0.017 A 
HETATM    6  C   UNL     1      -4.435   5.566 -31.386  1.00  0.00     0.030 A 
ENDROOT
BRANCH   1   7
HETATM    7  N   UNL     1      -2.414   6.743 -30.826  1.00  0.00    -0.327 N 
HETATM    8  C   UNL     1      -2.419   7.289 -29.553  1.00  0.00     0.226 C 
HETATM    9  O   UNL     1      -3.090   6.906 -28.599  1.00  0.00    -0.273 OA
HETATM   10  H   UNL     1      -1.908   7.259 -31.536  1.00  0.00     0.169 HD
BRANCH   8  11
HETATM   11  C   UNL     1      -1.453   8.454 -29.402  1.00  0.00     0.141 C 
BRANCH  11  12
HETATM   12  C   UNL     1      -0.517   8.352 -28.223  1.00  0.00    -0.049 A 
HETATM   13  C   UNL     1       0.641   7.566 -28.271  1.00  0.00     0.010 A 
HETATM   14  C   UNL     1       1.532   7.533 -27.192  1.00  0.00     0.037 A 
HETATM   15  C   UNL     1       1.287   8.302 -26.055  1.00  0.00     0.068 A 
HETATM   16  C   UNL     1       0.143   9.099 -26.009  1.00  0.00     0.037 A 
HETATM   17  C   UNL     1      -0.751   9.131 -27.081  1.00  0.00     0.010 A 
BRANCH  15  18
HETATM   18  O   UNL     1       2.079   8.372 -24.943  1.00  0.00    -0.356 OA
HETATM   19  C   UNL     1       2.095   9.610 -24.243  1.00  0.00     0.210 C 
ENDBRANCH  15  18
ENDBRANCH  11  12
ENDBRANCH   8  11
ENDBRANCH   1   7
BRANCH   4  20
HETATM   20  C   UNL     1      -5.087   2.090 -32.814  1.00  0.00     0.141 A 
HETATM   21  N   UNL     1      -4.494   0.937 -32.806  1.00  0.00    -0.230 NA
HETATM   22  C   UNL     1      -5.137  -0.154 -33.414  1.00  0.00     0.074 A 
HETATM   23  C   UNL     1      -6.384  -0.044 -34.032  1.00  0.00     0.061 A 
HETATM   24  C   UNL     1      -4.498  -1.396 -33.421  1.00  0.00     0.032 A 
HETATM   25  C   UNL     1      -7.025   1.280 -34.023  1.00  0.00     0.259 A 
HETATM   26  C   UNL     1      -6.991  -1.141 -34.652  1.00  0.00     0.019 A 
HETATM   27  O   UNL     1      -8.109   1.488 -34.556  1.00  0.00    -0.267 OA
HETATM   28  N   UNL     1      -6.324   2.276 -33.391  1.00  0.00    -0.307 N 
HETATM   29  H   UNL     1      -6.752   3.186 -33.450  1.00  0.00     0.170 HD
HETATM   30  C   UNL     1      -6.339  -2.373 -34.654  1.00  0.00     0.001 A 
HETATM   31  C   UNL     1      -5.094  -2.501 -34.038  1.00  0.00     0.002 A 
ENDBRANCH   4  20
TORSDOF 5
ENDMDL
MODEL 5
REMARK VINA RESULT:      -8.4      2.177      2.801
REMARK  5 active torsions:
REMARK  status: ('A' for Active; 'I' for Inactive)
REMARK    1  A    between atoms: O_2  and  C_3 
REMARK    2  A    between atoms: C_6  and  C_7 
REMARK    3  A    between atoms: C_7  and  C_8 
REMARK       I    between atoms: C_8  and  N_9 
REMARK    4  A    between atoms: N_9  and  C_10 
REMARK    5  A    between atoms: C_13  and  C_14 
ROOT
HETATM    1  C   UNL     1      -4.439   3.724 -32.112  1.00  0.00     0.034 A 
HETATM    2  C   UNL     1      -3.364   2.940 -31.694  1.00  0.00     0.030 A 
HETATM    3  C   UNL     1      -3.353   1.560 -31.930  1.00  0.00     0.017 A 
HETATM    4  C   UNL     1      -4.416   0.941 -32.596  1.00  0.00     0.010 A 
HETATM    5  C   UNL     1      -5.516   1.715 -32.982  1.00  0.00     0.017 A 
HETATM    6  C   UNL     1      -5.522   3.097 -32.743  1.00  0.00     0.030 A 
ENDROOT
BRANCH   1   7
HETATM    7  N   UNL     1      -4.487   5.128 -31.978  1.00  0.00    -0.327 N 
HETATM    8  C   UNL     1      -4.934   5.850 -30.882  1.00  0.00     0.226 C 
HETATM    9  O   UNL     1      -5.501   5.395 -29.893  1.00  0.00    -0.273 OA
HETATM   10  H   UNL     1      -4.164   5.668 -32.771  1.00  0.00     0.169 HD
BRANCH   8  11
HETATM   11  C   UNL     1      -4.630   7.336 -30.985  1.00  0.00     0.141 C 
BRANCH  11  12
HETATM   12  C   UNL     1      -3.371   7.776 -30.280  1.00  0.00    -0.049 A 
HETATM   13  C   UNL     1      -3.174   9.106 -29.889  1.00  0.00     0.010 A 
HETATM   14  C   UNL     1      -2.029   9.484 -29.178  1.00  0.00     0.037 A 
HETATM   15  C   UNL     1      -1.072   8.532 -28.831  1.00  0.00     0.068 A 
HETATM   16  C   UNL     1      -1.270   7.202 -29.204  1.00  0.00     0.037 A 
HETATM   17  C   UNL     1      -2.409   6.822 -29.917  1.00  0.00     0.010 A 
BRANCH  15  18
HETATM   18  O   UNL     1       0.079   8.763 -28.129  1.00  0.00    -0.356 OA
HETATM   19  C   UNL     1       0.952   7.656 -27.944  1.00  0.00     0.210 C 
ENDBRANCH  15  18
ENDBRANCH  11  12
ENDBRANCH   8  11
ENDBRANCH   1   7
BRANCH   4  20
HETATM   20  C   UNL     1      -4.315  -0.519 -32.887  1.00  0.00     0.141 A 
HETATM   21  N   UNL     1      -5.064  -1.064 -33.793  1.00  0.00    -0.230 NA
HETATM   22  C   UNL     1      -4.969  -2.450 -34.001  1.00  0.00     0.074 A 
HETATM   23  C   UNL     1      -4.107  -3.264 -33.263  1.00  0.00     0.061 A 
HETATM   24  C   UNL     1      -5.783  -3.046 -34.967  1.00  0.00     0.032 A 
HETATM   25  C   UNL     1      -3.274  -2.611 -32.241  1.00  0.00     0.259 A 
HETATM   26  C   UNL     1      -4.050  -4.646 -33.472  1.00  0.00     0.019 A 
HETATM   27  O   UNL     1      -2.501  -3.236 -31.526  1.00  0.00    -0.267 OA
HETATM   28  N   UNL     1      -3.429  -1.252 -32.128  1.00  0.00    -0.307 N 
HETATM   29  H   UNL     1      -2.896  -0.834 -31.381  1.00  0.00     0.170 HD
HETATM   30  C   UNL     1      -4.870  -5.226 -34.438  1.00  0.00     0.001 A 
HETATM   31  C   UNL     1      -5.735  -4.426 -35.186  1.00  0.00     0.002 A 
ENDBRANCH   4  20
TORSDOF 5
ENDMDL
MODEL 6
REMARK VINA RESULT:      -8.3     17.743     20.309
REMARK  5 active torsions:
REMARK  status: ('A' for Active; 'I' for Inactive)
REMARK    1  A    between atoms: O_2  and  C_3 
REMARK    2  A    between atoms: C_6  and  C_7 
REMARK    3  A    between atoms: C_7  and  C_8 
REMARK       I    between atoms: C_8  and  N_9 
REMARK    4  A    between atoms: N_9  and  C_10 
REMARK    5  A    between atoms: C_13  and  C_14 
ROOT
HETATM    1  C   UNL     1      -6.770 -13.898 -36.340  1.00  0.00     0.034 A 
HETATM    2  C   UNL     1      -7.229 -13.352 -35.142  1.00  0.00     0.030 A 
HETATM    3  C   UNL     1      -6.870 -13.924 -33.915  1.00  0.00     0.017 A 
HETATM    4  C   UNL     1      -6.039 -15.048 -33.866  1.00  0.00     0.010 A 
HETATM    5  C   UNL     1      -5.609 -15.624 -35.066  1.00  0.00     0.017 A 
HETATM    6  C   UNL     1      -5.971 -15.048 -36.293  1.00  0.00     0.030 A 
ENDROOT
BRANCH   1   7
HETATM    7  N   UNL     1      -7.027 -13.335 -37.609  1.00  0.00    -0.327 N 
HETATM    8  C   UNL     1      -6.121 -12.700 -38.443  1.00  0.00     0.226 C 
HETATM    9  O   UNL     1      -4.967 -12.388 -38.161  1.00  0.00    -0.273 OA
HETATM   10  H   UNL     1      -7.980 -13.399 -37.945  1.00  0.00     0.169 HD
BRANCH   8  11
HETATM   11  C   UNL     1      -6.682 -12.422 -39.829  1.00  0.00     0.141 C 
BRANCH  11  12
HETATM   12  C   UNL     1      -8.078 -12.944 -40.064  1.00  0.00    -0.049 A 
HETATM   13  C   UNL     1      -9.208 -12.151 -39.822  1.00  0.00     0.010 A 
HETATM   14  C   UNL     1     -10.493 -12.628 -40.106  1.00  0.00     0.037 A 
HETATM   15  C   UNL     1     -10.666 -13.898 -40.653  1.00  0.00     0.068 A 
HETATM   16  C   UNL     1      -9.543 -14.686 -40.910  1.00  0.00     0.037 A 
HETATM   17  C   UNL     1      -8.260 -14.215 -40.624  1.00  0.00     0.010 A 
BRANCH  15  18
HETATM   18  O   UNL     1     -11.859 -14.477 -40.989  1.00  0.00    -0.356 OA
HETATM   19  C   UNL     1     -11.809 -15.582 -41.881  1.00  0.00     0.210 C 
ENDBRANCH  15  18
ENDBRANCH  11  12
ENDBRANCH   8  11
ENDBRANCH   1   7
BRANCH   4  20
HETATM   20  C   UNL     1      -5.629 -15.567 -32.529  1.00  0.00     0.141 A 
HETATM   21  N   UNL     1      -6.440 -16.295 -31.828  1.00  0.00    -0.230 NA
HETATM   22  C   UNL     1      -6.029 -16.723 -30.554  1.00  0.00     0.074 A 
HETATM   23  C   UNL     1      -4.787 -16.388 -30.012  1.00  0.00     0.061 A 
HETATM   24  C   UNL     1      -6.903 -17.497 -29.787  1.00  0.00     0.032 A 
HETATM   25  C   UNL     1      -3.895 -15.558 -30.836  1.00  0.00     0.259 A 
HETATM   26  C   UNL     1      -4.412 -16.806 -28.731  1.00  0.00     0.019 A 
HETATM   27  O   UNL     1      -2.793 -15.191 -30.446  1.00  0.00    -0.267 OA
HETATM   28  N   UNL     1      -4.381 -15.207 -32.070  1.00  0.00    -0.307 N 
HETATM   29  H   UNL     1      -3.781 -14.588 -32.592  1.00  0.00     0.170 HD
HETATM   30  C   UNL     1      -5.297 -17.575 -27.976  1.00  0.00     0.001 A 
HETATM   31  C   UNL     1      -6.541 -17.921 -28.505  1.00  0.00     0.002 A 
ENDBRANCH   4  20
TORSDOF 5
ENDMDL
MODEL 7
REMARK VINA RESULT:      -8.3     17.131     18.952
REMARK  5 active torsions:
REMARK  status: ('A' for Active; 'I' for Inactive)
REMARK    1  A    between atoms: O_2  and  C_3 
REMARK    2  A    between atoms: C_6  and  C_7 
REMARK    3  A    between atoms: C_7  and  C_8 
REMARK       I    between atoms: C_8  and  N_9 
REMARK    4  A    between atoms: N_9  and  C_10 
REMARK    5  A    between atoms: C_13  and  C_14 
ROOT
HETATM    1  C   UNL     1      -6.065 -15.191 -32.166  1.00  0.00     0.034 A 
HETATM    2  C   UNL     1      -6.593 -15.854 -33.274  1.00  0.00     0.030 A 
HETATM    3  C   UNL     1      -6.574 -15.254 -34.539  1.00  0.00     0.017 A 
HETATM    4  C   UNL     1      -6.019 -13.983 -34.719  1.00  0.00     0.010 A 
HETATM    5  C   UNL     1      -5.525 -13.296 -33.605  1.00  0.00     0.017 A 
HETATM    6  C   UNL     1      -5.546 -13.901 -32.339  1.00  0.00     0.030 A 
ENDROOT
BRANCH   1   7
HETATM    7  N   UNL     1      -5.980 -15.760 -30.877  1.00  0.00    -0.327 N 
HETATM    8  C   UNL     1      -5.172 -16.812 -30.476  1.00  0.00     0.226 C 
HETATM    9  O   UNL     1      -4.493 -17.527 -31.207  1.00  0.00    -0.273 OA
HETATM   10  H   UNL     1      -6.581 -15.357 -30.167  1.00  0.00     0.169 HD
BRANCH   8  11
HETATM   11  C   UNL     1      -5.163 -17.014 -28.969  1.00  0.00     0.141 C 
BRANCH  11  12
HETATM   12  C   UNL     1      -3.791 -17.149 -28.357  1.00  0.00    -0.049 A 
HETATM   13  C   UNL     1      -3.425 -18.281 -27.617  1.00  0.00     0.010 A 
HETATM   14  C   UNL     1      -2.127 -18.420 -27.111  1.00  0.00     0.037 A 
HETATM   15  C   UNL     1      -1.170 -17.436 -27.353  1.00  0.00     0.068 A 
HETATM   16  C   UNL     1      -1.525 -16.313 -28.102  1.00  0.00     0.037 A 
HETATM   17  C   UNL     1      -2.819 -16.169 -28.605  1.00  0.00     0.010 A 
BRANCH  15  18
HETATM   18  O   UNL     1       0.131 -17.454 -26.930  1.00  0.00    -0.356 OA
HETATM   19  C   UNL     1       0.959 -16.380 -27.356  1.00  0.00     0.210 C 
ENDBRANCH  15  18
ENDBRANCH  11  12
ENDBRANCH   8  11
ENDBRANCH   1   7
BRANCH   4  20
HETATM   20  C   UNL     1      -5.958 -13.426 -36.101  1.00  0.00     0.141 A 
HETATM   21  N   UNL     1      -7.007 -13.437 -36.863  1.00  0.00    -0.230 NA
HETATM   22  C   UNL     1      -6.891 -12.946 -38.175  1.00  0.00     0.074 A 
HETATM   23  C   UNL     1      -5.690 -12.456 -38.691  1.00  0.00     0.061 A 
HETATM   24  C   UNL     1      -8.014 -12.967 -39.005  1.00  0.00     0.032 A 
HETATM   25  C   UNL     1      -4.521 -12.462 -37.798  1.00  0.00     0.259 A 
HETATM   26  C   UNL     1      -5.595 -11.996 -40.009  1.00  0.00     0.019 A 
HETATM   27  O   UNL     1      -3.417 -12.073 -38.160  1.00  0.00    -0.267 OA
HETATM   28  N   UNL     1      -4.741 -12.945 -36.533  1.00  0.00    -0.307 N 
HETATM   29  H   UNL     1      -3.915 -12.998 -35.959  1.00  0.00     0.170 HD
HETATM   30  C   UNL     1      -6.724 -12.026 -40.826  1.00  0.00     0.001 A 
HETATM   31  C   UNL     1      -7.932 -12.510 -40.324  1.00  0.00     0.002 A 
ENDBRANCH   4  20
TORSDOF 5
ENDMDL
MODEL 8
REMARK VINA RESULT:      -8.2      2.055     10.562
REMARK  5 active torsions:
REMARK  status: ('A' for Active; 'I' for Inactive)
REMARK    1  A    between atoms: O_2  and  C_3 
REMARK    2  A    between atoms: C_6  and  C_7 
REMARK    3  A    between atoms: C_7  and  C_8 
REMARK       I    between atoms: C_8  and  N_9 
REMARK    4  A    between atoms: N_9  and  C_10 
REMARK    5  A    between atoms: C_13  and  C_14 
ROOT
HETATM    1  C   UNL     1      -5.772   2.082 -32.585  1.00  0.00     0.034 A 
HETATM    2  C   UNL     1      -4.402   1.953 -32.356  1.00  0.00     0.030 A 
HETATM    3  C   UNL     1      -3.675   2.998 -31.772  1.00  0.00     0.017 A 
HETATM    4  C   UNL     1      -4.309   4.189 -31.401  1.00  0.00     0.010 A 
HETATM    5  C   UNL     1      -5.675   4.340 -31.665  1.00  0.00     0.017 A 
HETATM    6  C   UNL     1      -6.398   3.290 -32.250  1.00  0.00     0.030 A 
ENDROOT
BRANCH   1   7
HETATM    7  N   UNL     1      -6.584   1.048 -33.098  1.00  0.00    -0.327 N 
HETATM    8  C   UNL     1      -6.958   0.853 -34.418  1.00  0.00     0.226 C 
HETATM    9  O   UNL     1      -6.766   1.628 -35.351  1.00  0.00    -0.273 OA
HETATM   10  H   UNL     1      -6.936   0.376 -32.427  1.00  0.00     0.169 HD
BRANCH   8  11
HETATM   11  C   UNL     1      -7.641  -0.486 -34.651  1.00  0.00     0.141 C 
BRANCH  11  12
HETATM   12  C   UNL     1      -6.717  -1.679 -34.640  1.00  0.00    -0.049 A 
HETATM   13  C   UNL     1      -5.334  -1.535 -34.473  1.00  0.00     0.010 A 
HETATM   14  C   UNL     1      -4.499  -2.656 -34.400  1.00  0.00     0.037 A 
HETATM   15  C   UNL     1      -5.037  -3.939 -34.476  1.00  0.00     0.068 A 
HETATM   16  C   UNL     1      -6.417  -4.089 -34.627  1.00  0.00     0.037 A 
HETATM   17  C   UNL     1      -7.252  -2.973 -34.705  1.00  0.00     0.010 A 
BRANCH  15  18
HETATM   18  O   UNL     1      -4.340  -5.113 -34.405  1.00  0.00    -0.356 OA
HETATM   19  C   UNL     1      -3.276  -5.173 -33.463  1.00  0.00     0.210 C 
ENDBRANCH  15  18
ENDBRANCH  11  12
ENDBRANCH   8  11
ENDBRANCH   1   7
BRANCH   4  20
HETATM   20  C   UNL     1      -3.499   5.237 -30.715  1.00  0.00     0.141 A 
HETATM   21  N   UNL     1      -2.229   5.345 -30.946  1.00  0.00    -0.230 NA
HETATM   22  C   UNL     1      -1.496   6.316 -30.242  1.00  0.00     0.074 A 
HETATM   23  C   UNL     1      -2.082   7.161 -29.298  1.00  0.00     0.061 A 
HETATM   24  C   UNL     1      -0.125   6.429 -30.477  1.00  0.00     0.032 A 
HETATM   25  C   UNL     1      -3.525   7.007 -29.059  1.00  0.00     0.259 A 
HETATM   26  C   UNL     1      -1.326   8.102 -28.592  1.00  0.00     0.019 A 
HETATM   27  O   UNL     1      -4.131   7.684 -28.237  1.00  0.00    -0.267 OA
HETATM   28  N   UNL     1      -4.152   6.044 -29.808  1.00  0.00    -0.307 N 
HETATM   29  H   UNL     1      -5.126   5.913 -29.586  1.00  0.00     0.170 HD
HETATM   30  C   UNL     1       0.043   8.201 -28.835  1.00  0.00     0.001 A 
HETATM   31  C   UNL     1       0.643   7.366 -29.778  1.00  0.00     0.002 A 
ENDBRANCH   4  20
TORSDOF 5
ENDMDL
MODEL 9
REMARK VINA RESULT:      -8.2      2.377     10.906
REMARK  5 active torsions:
REMARK  status: ('A' for Active; 'I' for Inactive)
REMARK    1  A    between atoms: O_2  and  C_3 
REMARK    2  A    between atoms: C_6  and  C_7 
REMARK    3  A    between atoms: C_7  and  C_8 
REMARK       I    between atoms: C_8  and  N_9 
REMARK    4  A    between atoms: N_9  and  C_10 
REMARK    5  A    between atoms: C_13  and  C_14 
ROOT
HETATM    1  C   UNL     1      -5.386   4.361 -31.718  1.00  0.00     0.034 A 
HETATM    2  C   UNL     1      -3.995   4.270 -31.785  1.00  0.00     0.030 A 
HETATM    3  C   UNL     1      -3.188   5.202 -31.120  1.00  0.00     0.017 A 
HETATM    4  C   UNL     1      -3.759   6.237 -30.371  1.00  0.00     0.010 A 
HETATM    5  C   UNL     1      -5.152   6.356 -30.334  1.00  0.00     0.017 A 
HETATM    6  C   UNL     1      -5.956   5.420 -31.001  1.00  0.00     0.030 A 
ENDROOT
BRANCH   1   7
HETATM    7  N   UNL     1      -6.263   3.419 -32.297  1.00  0.00    -0.327 N 
HETATM    8  C   UNL     1      -6.344   3.060 -33.633  1.00  0.00     0.226 C 
HETATM    9  O   UNL     1      -5.766   3.604 -34.569  1.00  0.00    -0.273 OA
HETATM   10  H   UNL     1      -6.908   2.957 -31.667  1.00  0.00     0.169 HD
BRANCH   8  11
HETATM   11  C   UNL     1      -7.236   1.851 -33.871  1.00  0.00     0.141 C 
BRANCH  11  12
HETATM   12  C   UNL     1      -6.504   0.537 -33.988  1.00  0.00    -0.049 A 
HETATM   13  C   UNL     1      -5.295   0.308 -33.317  1.00  0.00     0.010 A 
HETATM   14  C   UNL     1      -4.662  -0.939 -33.384  1.00  0.00     0.037 A 
HETATM   15  C   UNL     1      -5.238  -1.981 -34.109  1.00  0.00     0.068 A 
HETATM   16  C   UNL     1      -6.450  -1.763 -34.766  1.00  0.00     0.037 A 
HETATM   17  C   UNL     1      -7.082  -0.519 -34.705  1.00  0.00     0.010 A 
BRANCH  15  18
HETATM   18  O   UNL     1      -4.734  -3.245 -34.244  1.00  0.00    -0.356 OA
HETATM   19  C   UNL     1      -5.589  -4.219 -34.828  1.00  0.00     0.210 C 
ENDBRANCH  15  18
ENDBRANCH  11  12
ENDBRANCH   8  11
ENDBRANCH   1   7
BRANCH   4  20
HETATM   20  C   UNL     1      -2.850   7.153 -29.624  1.00  0.00     0.141 A 
HETATM   21  N   UNL     1      -1.579   6.907 -29.551  1.00  0.00    -0.230 NA
HETATM   22  C   UNL     1      -0.768   7.772 -28.797  1.00  0.00     0.074 A 
HETATM   23  C   UNL     1      -1.278   8.879 -28.116  1.00  0.00     0.061 A 
HETATM   24  C   UNL     1       0.599   7.505 -28.704  1.00  0.00     0.032 A 
HETATM   25  C   UNL     1      -2.725   9.125 -28.219  1.00  0.00     0.259 A 
HETATM   26  C   UNL     1      -0.453   9.709 -27.351  1.00  0.00     0.019 A 
HETATM   27  O   UNL     1      -3.275  10.055 -27.643  1.00  0.00    -0.267 OA
HETATM   28  N   UNL     1      -3.426   8.234 -28.992  1.00  0.00    -0.307 N 
HETATM   29  H   UNL     1      -4.422   8.384 -28.999  1.00  0.00     0.170 HD
HETATM   30  C   UNL     1       0.910   9.429 -27.266  1.00  0.00     0.001 A 
HETATM   31  C   UNL     1       1.436   8.328 -27.943  1.00  0.00     0.002 A 
ENDBRANCH   4  20
TORSDOF 5
ENDMDL
MODEL 10
REMARK VINA RESULT:      -8.1     17.337     20.363
REMARK  5 active torsions:
REMARK  status: ('A' for Active; 'I' for Inactive)
REMARK    1  A    between atoms: O_2  and  C_3 
REMARK    2  A    between atoms: C_6  and  C_7 
REMARK    3  A    between atoms: C_7  and  C_8 
REMARK       I    between atoms: C_8  and  N_9 
REMARK    4  A    between atoms: N_9  and  C_10 
REMARK    5  A    between atoms: C_13  and  C_14 
ROOT
HETATM    1  C   UNL     1      -6.489 -13.618 -35.044  1.00  0.00     0.034 A 
HETATM    2  C   UNL     1      -5.759 -13.091 -33.979  1.00  0.00     0.030 A 
HETATM    3  C   UNL     1      -5.625 -13.808 -32.783  1.00  0.00     0.017 A 
HETATM    4  C   UNL     1      -6.214 -15.068 -32.635  1.00  0.00     0.010 A 
HETATM    5  C   UNL     1      -6.981 -15.584 -33.685  1.00  0.00     0.017 A 
HETATM    6  C   UNL     1      -7.113 -14.862 -34.880  1.00  0.00     0.030 A 
ENDROOT
BRANCH   1   7
HETATM    7  N   UNL     1      -6.606 -12.991 -36.303  1.00  0.00    -0.327 N 
HETATM    8  C   UNL     1      -6.093 -13.434 -37.511  1.00  0.00     0.226 C 
HETATM    9  O   UNL     1      -5.324 -14.378 -37.673  1.00  0.00    -0.273 OA
HETATM   10  H   UNL     1      -7.118 -12.117 -36.325  1.00  0.00     0.169 HD
BRANCH   8  11
HETATM   11  C   UNL     1      -6.603 -12.638 -38.702  1.00  0.00     0.141 C 
BRANCH  11  12
HETATM   12  C   UNL     1      -7.969 -13.044 -39.197  1.00  0.00    -0.049 A 
HETATM   13  C   UNL     1      -8.994 -12.106 -39.376  1.00  0.00     0.010 A 
HETATM   14  C   UNL     1     -10.235 -12.490 -39.897  1.00  0.00     0.037 A 
HETATM   15  C   UNL     1     -10.464 -13.815 -40.266  1.00  0.00     0.068 A 
HETATM   16  C   UNL     1      -9.440 -14.750 -40.105  1.00  0.00     0.037 A 
HETATM   17  C   UNL     1      -8.202 -14.372 -39.581  1.00  0.00     0.010 A 
BRANCH  15  18
HETATM   18  O   UNL     1     -11.619 -14.317 -40.798  1.00  0.00    -0.356 OA
HETATM   19  C   UNL     1     -11.490 -15.414 -41.694  1.00  0.00     0.210 C 
ENDBRANCH  15  18
ENDBRANCH  11  12
ENDBRANCH   8  11
ENDBRANCH   1   7
BRANCH   4  20
HETATM   20  C   UNL     1      -5.973 -15.817 -31.368  1.00  0.00     0.141 A 
HETATM   21  N   UNL     1      -4.808 -15.796 -30.801  1.00  0.00    -0.230 NA
HETATM   22  C   UNL     1      -4.614 -16.554 -29.634  1.00  0.00     0.074 A 
HETATM   23  C   UNL     1      -5.624 -17.335 -29.067  1.00  0.00     0.061 A 
HETATM   24  C   UNL     1      -3.357 -16.547 -29.025  1.00  0.00     0.032 A 
HETATM   25  C   UNL     1      -6.932 -17.335 -29.739  1.00  0.00     0.259 A 
HETATM   26  C   UNL     1      -5.397 -18.101 -27.919  1.00  0.00     0.019 A 
HETATM   27  O   UNL     1      -7.877 -18.002 -29.336  1.00  0.00    -0.267 OA
HETATM   28  N   UNL     1      -7.024 -16.551 -30.861  1.00  0.00    -0.307 N 
HETATM   29  H   UNL     1      -7.908 -16.613 -31.340  1.00  0.00     0.170 HD
HETATM   30  C   UNL     1      -4.136 -18.085 -27.324  1.00  0.00     0.001 A 
HETATM   31  C   UNL     1      -3.117 -17.308 -27.877  1.00  0.00     0.002 A 
ENDBRANCH   4  20
TORSDOF 5
ENDMDL
