MODEL 1
REMARK VINA RESULT:      -8.7      0.000      0.000
REMARK  4 active torsions:
REMARK  status: ('A' for Active; 'I' for Inactive)
REMARK    1  A    between atoms: C_9  and  N_10 
REMARK    2  A    between atoms: N_10  and  C_12 
REMARK    3  A    between atoms: C_12  and  C_13 
REMARK    4  A    between atoms: C_14  and  C_15 
ROOT
HETATM    1  C   UNL     1      -7.635   1.880 -34.006  1.00  0.00     0.016 A 
HETATM    2  C   UNL     1      -7.157   3.206 -33.718  1.00  0.00     0.096 A 
HETATM    3  N   UNL     1      -8.165   4.082 -33.678  1.00  0.00    -0.174 NA
HETATM    4  N   UNL     1      -9.249   3.384 -34.017  1.00  0.00    -0.288 N 
HETATM    5  H   UNL     1     -10.137   3.876 -34.080  1.00  0.00     0.188 HD
HETATM    6  C   UNL     1      -8.989   2.058 -34.222  1.00  0.00     0.120 A 
ENDROOT
BRANCH   1   7
HETATM    7  C   UNL     1      -6.784   0.660 -34.057  1.00  0.00     0.277 C 
BRANCH   7   8
HETATM    8  N   UNL     1      -6.216   0.057 -32.786  1.00  0.00    -0.065 N 
HETATM    9  H   UNL     1      -5.410   0.645 -32.544  1.00  0.00     0.280 HD
HETATM   10  C   UNL     1      -7.174   0.111 -31.633  1.00  0.00     0.270 C 
BRANCH   8  11
HETATM   11  C   UNL     1      -5.771  -1.359 -33.003  1.00  0.00     0.205 C 
HETATM   12  C   UNL     1      -4.217  -1.576 -33.133  1.00  0.00     0.008 C 
HETATM   13  C   UNL     1      -3.304  -0.385 -33.440  1.00  0.00     0.020 C 
HETATM   14  C   UNL     1      -3.643  -2.415 -31.988  1.00  0.00     0.020 C 
HETATM   15  C   UNL     1      -4.483  -2.382 -34.429  1.00  0.00     0.137 C 
HETATM   16  C   UNL     1      -5.935  -1.878 -34.463  1.00  0.00     0.049 C 
HETATM   17  O   UNL     1      -4.518  -3.820 -34.370  1.00  0.00    -0.385 OA
HETATM   18  C   UNL     1      -6.732  -3.179 -34.629  1.00  0.00     0.035 C 
HETATM   19  C   UNL     1      -5.712  -4.240 -35.035  1.00  0.00     0.168 C 
ENDBRANCH   8  11
ENDBRANCH   7   8
ENDBRANCH   1   7
BRANCH   2  20
HETATM   20  C   UNL     1      -5.785   3.641 -33.465  1.00  0.00    -0.002 A 
HETATM   21  C   UNL     1      -5.189   4.622 -34.269  1.00  0.00     0.053 A 
HETATM   22  C   UNL     1      -3.876   5.024 -34.021  1.00  0.00     0.103 A 
HETATM   23  C   UNL     1      -3.144   4.446 -32.983  1.00  0.00     0.102 A 
HETATM   24  O   UNL     1      -3.369   5.996 -34.848  1.00  0.00    -0.346 OA
HETATM   25  O   UNL     1      -1.846   4.777 -32.702  1.00  0.00    -0.346 OA
HETATM   26  C   UNL     1      -3.740   3.493 -32.161  1.00  0.00     0.040 A 
HETATM   27  C   UNL     1      -1.247   5.541 -33.756  1.00  0.00     0.202 C 
HETATM   28  C   UNL     1      -2.205   6.605 -34.269  1.00  0.00     0.202 C 
HETATM   29  C   UNL     1      -5.057   3.092 -32.398  1.00  0.00     0.017 A 
ENDBRANCH   2  20
TORSDOF 4
ENDMDL
MODEL 2
REMARK VINA RESULT:      -8.3      2.415      7.646
REMARK  4 active torsions:
REMARK  status: ('A' for Active; 'I' for Inactive)
REMARK    1  A    between atoms: C_9  and  N_10 
REMARK    2  A    between atoms: N_10  and  C_12 
REMARK    3  A    between atoms: C_12  and  C_13 
REMARK    4  A    between atoms: C_14  and  C_15 
ROOT
HETATM    1  C   UNL     1      -4.504   2.594 -30.941  1.00  0.00     0.016 A 
HETATM    2  C   UNL     1      -5.189   1.329 -30.944  1.00  0.00     0.096 A 
HETATM    3  N   UNL     1      -6.295   1.380 -30.196  1.00  0.00    -0.174 NA
HETATM    4  N   UNL     1      -6.292   2.595 -29.649  1.00  0.00    -0.288 N 
HETATM    5  H   UNL     1      -7.044   2.835 -29.007  1.00  0.00     0.188 HD
HETATM    6  C   UNL     1      -5.242   3.366 -30.063  1.00  0.00     0.120 A 
ENDROOT
BRANCH   1   7
HETATM    7  C   UNL     1      -3.275   2.900 -31.724  1.00  0.00     0.277 C 
BRANCH   7   8
HETATM    8  N   UNL     1      -3.292   3.955 -32.813  1.00  0.00    -0.065 N 
HETATM    9  H   UNL     1      -2.872   3.503 -33.634  1.00  0.00     0.280 HD
HETATM   10  C   UNL     1      -4.679   4.380 -33.195  1.00  0.00     0.270 C 
BRANCH   8  11
HETATM   11  C   UNL     1      -2.487   5.158 -32.422  1.00  0.00     0.205 C 
HETATM   12  C   UNL     1      -1.723   5.881 -33.594  1.00  0.00     0.008 C 
HETATM   13  C   UNL     1      -1.492   5.148 -34.920  1.00  0.00     0.020 C 
HETATM   14  C   UNL     1      -2.240   7.300 -33.845  1.00  0.00     0.020 C 
HETATM   15  C   UNL     1      -0.437   5.825 -32.732  1.00  0.00     0.137 C 
HETATM   16  C   UNL     1      -1.112   4.838 -31.764  1.00  0.00     0.049 C 
HETATM   17  O   UNL     1      -0.046   6.984 -31.974  1.00  0.00    -0.385 OA
HETATM   18  C   UNL     1      -0.852   5.487 -30.397  1.00  0.00     0.035 C 
HETATM   19  C   UNL     1       0.220   6.546 -30.640  1.00  0.00     0.168 C 
ENDBRANCH   8  11
ENDBRANCH   7   8
ENDBRANCH   1   7
BRANCH   2  20
HETATM   20  C   UNL     1      -4.826   0.102 -31.649  1.00  0.00    -0.002 A 
HETATM   21  C   UNL     1      -5.637  -0.395 -32.679  1.00  0.00     0.053 A 
HETATM   22  C   UNL     1      -5.283  -1.571 -33.340  1.00  0.00     0.103 A 
HETATM   23  C   UNL     1      -4.132  -2.269 -32.973  1.00  0.00     0.102 A 
HETATM   24  O   UNL     1      -6.125  -1.985 -34.343  1.00  0.00    -0.346 OA
HETATM   25  O   UNL     1      -3.741  -3.441 -33.563  1.00  0.00    -0.346 OA
HETATM   26  C   UNL     1      -3.305  -1.766 -31.971  1.00  0.00     0.040 A 
HETATM   27  C   UNL     1      -4.782  -4.009 -34.367  1.00  0.00     0.202 C 
HETATM   28  C   UNL     1      -5.475  -2.939 -35.196  1.00  0.00     0.202 C 
HETATM   29  C   UNL     1      -3.649  -0.583 -31.312  1.00  0.00     0.017 A 
ENDBRANCH   2  20
TORSDOF 4
ENDMDL
MODEL 3
REMARK VINA RESULT:      -8.2      2.537      7.098
REMARK  4 active torsions:
REMARK  status: ('A' for Active; 'I' for Inactive)
REMARK    1  A    between atoms: C_9  and  N_10 
REMARK    2  A    between atoms: N_10  and  C_12 
REMARK    3  A    between atoms: C_12  and  C_13 
REMARK    4  A    between atoms: C_14  and  C_15 
ROOT
HETATM    1  C   UNL     1      -3.529   0.139 -32.349  1.00  0.00     0.016 A 
HETATM    2  C   UNL     1      -4.726  -0.616 -32.603  1.00  0.00     0.096 A 
HETATM    3  N   UNL     1      -4.567  -1.898 -32.261  1.00  0.00    -0.174 NA
HETATM    4  N   UNL     1      -3.293  -2.004 -31.884  1.00  0.00    -0.288 N 
HETATM    5  H   UNL     1      -2.948  -2.921 -31.609  1.00  0.00     0.188 HD
HETATM    6  C   UNL     1      -2.624  -0.812 -31.915  1.00  0.00     0.120 A 
ENDROOT
BRANCH   1   7
HETATM    7  C   UNL     1      -3.388   1.607 -32.555  1.00  0.00     0.277 C 
BRANCH   7   8
HETATM    8  N   UNL     1      -4.427   2.570 -32.014  1.00  0.00    -0.065 N 
HETATM    9  H   UNL     1      -5.317   2.269 -32.427  1.00  0.00     0.280 HD
HETATM   10  C   UNL     1      -4.576   2.493 -30.523  1.00  0.00     0.270 C 
BRANCH   8  11
HETATM   11  C   UNL     1      -4.127   3.983 -32.416  1.00  0.00     0.205 C 
HETATM   12  C   UNL     1      -5.129   4.629 -33.444  1.00  0.00     0.008 C 
HETATM   13  C   UNL     1      -6.062   3.734 -34.267  1.00  0.00     0.020 C 
HETATM   14  C   UNL     1      -5.902   5.809 -32.847  1.00  0.00     0.020 C 
HETATM   15  C   UNL     1      -3.910   5.049 -34.303  1.00  0.00     0.137 C 
HETATM   16  C   UNL     1      -2.994   4.132 -33.475  1.00  0.00     0.049 C 
HETATM   17  O   UNL     1      -3.401   6.391 -34.197  1.00  0.00    -0.385 OA
HETATM   18  C   UNL     1      -1.840   5.073 -33.098  1.00  0.00     0.035 C 
HETATM   19  C   UNL     1      -1.988   6.292 -34.006  1.00  0.00     0.168 C 
ENDBRANCH   8  11
ENDBRANCH   7   8
ENDBRANCH   1   7
BRANCH   2  20
HETATM   20  C   UNL     1      -6.002  -0.145 -33.139  1.00  0.00    -0.002 A 
HETATM   21  C   UNL     1      -6.999   0.341 -32.282  1.00  0.00     0.053 A 
HETATM   22  C   UNL     1      -8.215   0.782 -32.805  1.00  0.00     0.103 A 
HETATM   23  C   UNL     1      -8.452   0.730 -34.179  1.00  0.00     0.102 A 
HETATM   24  O   UNL     1      -9.134   1.250 -31.899  1.00  0.00    -0.346 OA
HETATM   25  O   UNL     1      -9.631   1.123 -34.754  1.00  0.00    -0.346 OA
HETATM   26  C   UNL     1      -7.456   0.277 -35.039  1.00  0.00     0.040 A 
HETATM   27  C   UNL     1     -10.669   1.301 -33.782  1.00  0.00     0.202 C 
HETATM   28  C   UNL     1     -10.146   2.030 -32.554  1.00  0.00     0.202 C 
HETATM   29  C   UNL     1      -6.232  -0.157 -34.522  1.00  0.00     0.017 A 
ENDBRANCH   2  20
TORSDOF 4
ENDMDL
MODEL 4
REMARK VINA RESULT:      -8.1      3.335      5.684
REMARK  4 active torsions:
REMARK  status: ('A' for Active; 'I' for Inactive)
REMARK    1  A    between atoms: C_9  and  N_10 
REMARK    2  A    between atoms: N_10  and  C_12 
REMARK    3  A    between atoms: C_12  and  C_13 
REMARK    4  A    between atoms: C_14  and  C_15 
ROOT
HETATM    1  C   UNL     1      -6.750   2.500 -33.110  1.00  0.00     0.016 A 
HETATM    2  C   UNL     1      -7.824   3.374 -33.498  1.00  0.00     0.096 A 
HETATM    3  N   UNL     1      -7.355   4.482 -34.081  1.00  0.00    -0.174 NA
HETATM    4  N   UNL     1      -6.028   4.386 -33.998  1.00  0.00    -0.288 N 
HETATM    5  H   UNL     1      -5.468   5.154 -34.360  1.00  0.00     0.188 HD
HETATM    6  C   UNL     1      -5.611   3.217 -33.427  1.00  0.00     0.120 A 
ENDROOT
BRANCH   1   7
HETATM    7  C   UNL     1      -6.926   1.155 -32.496  1.00  0.00     0.277 C 
BRANCH   7   8
HETATM    8  N   UNL     1      -5.775   0.473 -31.782  1.00  0.00    -0.065 N 
HETATM    9  H   UNL     1      -4.963   1.083 -31.931  1.00  0.00     0.280 HD
HETATM   10  C   UNL     1      -5.988   0.363 -30.300  1.00  0.00     0.270 C 
BRANCH   8  11
HETATM   11  C   UNL     1      -5.506  -0.888 -32.352  1.00  0.00     0.205 C 
HETATM   12  C   UNL     1      -4.014  -1.175 -32.763  1.00  0.00     0.008 C 
HETATM   13  C   UNL     1      -3.038  -0.009 -32.954  1.00  0.00     0.020 C 
HETATM   14  C   UNL     1      -3.374  -2.281 -31.918  1.00  0.00     0.020 C 
HETATM   15  C   UNL     1      -4.532  -1.658 -34.141  1.00  0.00     0.137 C 
HETATM   16  C   UNL     1      -5.918  -1.062 -33.844  1.00  0.00     0.049 C 
HETATM   17  O   UNL     1      -4.701  -3.068 -34.376  1.00  0.00    -0.385 OA
HETATM   18  C   UNL     1      -6.855  -2.239 -34.151  1.00  0.00     0.035 C 
HETATM   19  C   UNL     1      -6.010  -3.251 -34.920  1.00  0.00     0.168 C 
ENDBRANCH   8  11
ENDBRANCH   7   8
ENDBRANCH   1   7
BRANCH   2  20
HETATM   20  C   UNL     1      -9.263   3.170 -33.345  1.00  0.00    -0.002 A 
HETATM   21  C   UNL     1      -9.960   2.323 -34.219  1.00  0.00     0.053 A 
HETATM   22  C   UNL     1     -11.334   2.141 -34.066  1.00  0.00     0.103 A 
HETATM   23  C   UNL     1     -12.027   2.810 -33.055  1.00  0.00     0.102 A 
HETATM   24  O   UNL     1     -11.940   1.290 -34.956  1.00  0.00    -0.346 OA
HETATM   25  O   UNL     1     -13.378   2.695 -32.865  1.00  0.00    -0.346 OA
HETATM   26  C   UNL     1     -11.337   3.628 -32.165  1.00  0.00     0.040 A 
HETATM   27  C   UNL     1     -14.024   2.069 -33.981  1.00  0.00     0.202 C 
HETATM   28  C   UNL     1     -13.225   0.872 -34.472  1.00  0.00     0.202 C 
HETATM   29  C   UNL     1      -9.958   3.807 -32.307  1.00  0.00     0.017 A 
ENDBRANCH   2  20
TORSDOF 4
ENDMDL
MODEL 5
REMARK VINA RESULT:      -7.9      3.013      7.096
REMARK  4 active torsions:
REMARK  status: ('A' for Active; 'I' for Inactive)
REMARK    1  A    between atoms: C_9  and  N_10 
REMARK    2  A    between atoms: N_10  and  C_12 
REMARK    3  A    between atoms: C_12  and  C_13 
REMARK    4  A    between atoms: C_14  and  C_15 
ROOT
HETATM    1  C   UNL     1      -4.749   2.135 -32.527  1.00  0.00     0.016 A 
HETATM    2  C   UNL     1      -4.463   0.734 -32.372  1.00  0.00     0.096 A 
HETATM    3  N   UNL     1      -3.472   0.540 -31.496  1.00  0.00    -0.174 NA
HETATM    4  N   UNL     1      -3.060   1.762 -31.158  1.00  0.00    -0.288 N 
HETATM    5  H   UNL     1      -2.278   1.843 -30.512  1.00  0.00     0.188 HD
HETATM    6  C   UNL     1      -3.792   2.755 -31.745  1.00  0.00     0.120 A 
ENDROOT
BRANCH   1   7
HETATM    7  C   UNL     1      -5.837   2.693 -33.376  1.00  0.00     0.277 C 
BRANCH   7   8
HETATM    8  N   UNL     1      -6.582   3.946 -32.956  1.00  0.00    -0.065 N 
HETATM    9  H   UNL     1      -6.243   4.159 -32.011  1.00  0.00     0.280 HD
HETATM   10  C   UNL     1      -6.270   5.130 -33.823  1.00  0.00     0.270 C 
BRANCH   8  11
HETATM   11  C   UNL     1      -8.064   3.719 -32.931  1.00  0.00     0.205 C 
HETATM   12  C   UNL     1      -8.700   3.508 -31.506  1.00  0.00     0.008 C 
HETATM   13  C   UNL     1      -7.805   3.142 -30.318  1.00  0.00     0.020 C 
HETATM   14  C   UNL     1      -9.671   4.629 -31.125  1.00  0.00     0.020 C 
HETATM   15  C   UNL     1      -9.394   2.235 -32.052  1.00  0.00     0.137 C 
HETATM   16  C   UNL     1      -8.509   2.275 -33.309  1.00  0.00     0.049 C 
HETATM   17  O   UNL     1     -10.767   2.309 -32.479  1.00  0.00    -0.385 OA
HETATM   18  C   UNL     1      -9.540   2.163 -34.442  1.00  0.00     0.035 C 
HETATM   19  C   UNL     1     -10.838   1.713 -33.776  1.00  0.00     0.168 C 
ENDBRANCH   8  11
ENDBRANCH   7   8
ENDBRANCH   1   7
BRANCH   2  20
HETATM   20  C   UNL     1      -5.116  -0.403 -33.016  1.00  0.00    -0.002 A 
HETATM   21  C   UNL     1      -4.376  -1.534 -33.389  1.00  0.00     0.053 A 
HETATM   22  C   UNL     1      -5.011  -2.610 -34.009  1.00  0.00     0.103 A 
HETATM   23  C   UNL     1      -6.380  -2.564 -34.276  1.00  0.00     0.102 A 
HETATM   24  O   UNL     1      -4.216  -3.682 -34.334  1.00  0.00    -0.346 OA
HETATM   25  O   UNL     1      -7.059  -3.575 -34.902  1.00  0.00    -0.346 OA
HETATM   26  C   UNL     1      -7.127  -1.458 -33.881  1.00  0.00     0.040 A 
HETATM   27  C   UNL     1      -6.170  -4.522 -35.508  1.00  0.00     0.202 C 
HETATM   28  C   UNL     1      -5.011  -4.852 -34.581  1.00  0.00     0.202 C 
HETATM   29  C   UNL     1      -6.499  -0.381 -33.251  1.00  0.00     0.017 A 
ENDBRANCH   2  20
TORSDOF 4
ENDMDL
MODEL 6
REMARK VINA RESULT:      -7.9      3.858      5.550
REMARK  4 active torsions:
REMARK  status: ('A' for Active; 'I' for Inactive)
REMARK    1  A    between atoms: C_9  and  N_10 
REMARK    2  A    between atoms: N_10  and  C_12 
REMARK    3  A    between atoms: C_12  and  C_13 
REMARK    4  A    between atoms: C_14  and  C_15 
ROOT
HETATM    1  C   UNL     1      -2.520   4.838 -33.398  1.00  0.00     0.016 A 
HETATM    2  C   UNL     1      -1.769   5.908 -32.797  1.00  0.00     0.096 A 
HETATM    3  N   UNL     1      -1.689   6.959 -33.617  1.00  0.00    -0.174 NA
HETATM    4  N   UNL     1      -2.280   6.568 -34.746  1.00  0.00    -0.288 N 
HETATM    5  H   UNL     1      -2.301   7.219 -35.528  1.00  0.00     0.188 HD
HETATM    6  C   UNL     1      -2.798   5.305 -34.669  1.00  0.00     0.120 A 
ENDROOT
BRANCH   1   7
HETATM    7  C   UNL     1      -2.853   3.550 -32.730  1.00  0.00     0.277 C 
BRANCH   7   8
HETATM    8  N   UNL     1      -4.244   3.299 -32.180  1.00  0.00    -0.065 N 
HETATM    9  H   UNL     1      -4.189   3.537 -31.183  1.00  0.00     0.280 HD
HETATM   10  C   UNL     1      -5.286   4.186 -32.796  1.00  0.00     0.270 C 
BRANCH   8  11
HETATM   11  C   UNL     1      -4.647   1.864 -32.344  1.00  0.00     0.205 C 
HETATM   12  C   UNL     1      -5.613   1.294 -31.239  1.00  0.00     0.008 C 
HETATM   13  C   UNL     1      -5.763   2.030 -29.903  1.00  0.00     0.020 C 
HETATM   14  C   UNL     1      -6.985   0.911 -31.800  1.00  0.00     0.020 C 
HETATM   15  C   UNL     1      -4.646   0.095 -31.073  1.00  0.00     0.137 C 
HETATM   16  C   UNL     1      -3.572   0.830 -31.893  1.00  0.00     0.049 C 
HETATM   17  O   UNL     1      -4.938  -1.144 -31.743  1.00  0.00    -0.385 OA
HETATM   18  C   UNL     1      -3.174  -0.225 -32.936  1.00  0.00     0.035 C 
HETATM   19  C   UNL     1      -3.749  -1.545 -32.428  1.00  0.00     0.168 C 
ENDBRANCH   8  11
ENDBRANCH   7   8
ENDBRANCH   1   7
BRANCH   2  20
HETATM   20  C   UNL     1      -1.155   5.953 -31.472  1.00  0.00    -0.002 A 
HETATM   21  C   UNL     1      -1.786   6.624 -30.415  1.00  0.00     0.053 A 
HETATM   22  C   UNL     1      -1.186   6.665 -29.157  1.00  0.00     0.103 A 
HETATM   23  C   UNL     1       0.050   6.054 -28.944  1.00  0.00     0.102 A 
HETATM   24  O   UNL     1      -1.874   7.335 -28.175  1.00  0.00    -0.346 OA
HETATM   25  O   UNL     1       0.704   6.078 -27.741  1.00  0.00    -0.346 OA
HETATM   26  C   UNL     1       0.669   5.360 -29.980  1.00  0.00     0.040 A 
HETATM   27  C   UNL     1       0.134   7.036 -26.840  1.00  0.00     0.202 C 
HETATM   28  C   UNL     1      -1.385   6.977 -26.873  1.00  0.00     0.202 C 
HETATM   29  C   UNL     1       0.069   5.307 -31.240  1.00  0.00     0.017 A 
ENDBRANCH   2  20
TORSDOF 4
ENDMDL
MODEL 7
REMARK VINA RESULT:      -7.9      2.082      3.543
REMARK  4 active torsions:
REMARK  status: ('A' for Active; 'I' for Inactive)
REMARK    1  A    between atoms: C_9  and  N_10 
REMARK    2  A    between atoms: N_10  and  C_12 
REMARK    3  A    between atoms: C_12  and  C_13 
REMARK    4  A    between atoms: C_14  and  C_15 
ROOT
HETATM    1  C   UNL     1      -4.534   1.006 -31.216  1.00  0.00     0.016 A 
HETATM    2  C   UNL     1      -4.747   2.421 -31.071  1.00  0.00     0.096 A 
HETATM    3  N   UNL     1      -5.520   2.685 -30.013  1.00  0.00    -0.174 NA
HETATM    4  N   UNL     1      -5.877   1.493 -29.536  1.00  0.00    -0.288 N 
HETATM    5  H   UNL     1      -6.504   1.465 -28.735  1.00  0.00     0.188 HD
HETATM    6  C   UNL     1      -5.313   0.451 -30.217  1.00  0.00     0.120 A 
ENDROOT
BRANCH   1   7
HETATM    7  C   UNL     1      -3.668   0.376 -32.250  1.00  0.00     0.277 C 
BRANCH   7   8
HETATM    8  N   UNL     1      -4.105  -0.890 -32.961  1.00  0.00    -0.065 N 
HETATM    9  H   UNL     1      -3.537  -0.931 -33.816  1.00  0.00     0.280 HD
HETATM   10  C   UNL     1      -3.819  -2.134 -32.173  1.00  0.00     0.270 C 
BRANCH   8  11
HETATM   11  C   UNL     1      -5.561  -0.844 -33.316  1.00  0.00     0.205 C 
HETATM   12  C   UNL     1      -6.011  -1.794 -34.488  1.00  0.00     0.008 C 
HETATM   13  C   UNL     1      -4.964  -2.375 -35.443  1.00  0.00     0.020 C 
HETATM   14  C   UNL     1      -6.979  -2.885 -34.021  1.00  0.00     0.020 C 
HETATM   15  C   UNL     1      -6.708  -0.578 -35.148  1.00  0.00     0.137 C 
HETATM   16  C   UNL     1      -5.983   0.378 -34.186  1.00  0.00     0.049 C 
HETATM   17  O   UNL     1      -8.124  -0.393 -34.968  1.00  0.00    -0.385 OA
HETATM   18  C   UNL     1      -7.136   1.230 -33.636  1.00  0.00     0.035 C 
HETATM   19  C   UNL     1      -8.323   0.963 -34.559  1.00  0.00     0.168 C 
ENDBRANCH   8  11
ENDBRANCH   7   8
ENDBRANCH   1   7
BRANCH   2  20
HETATM   20  C   UNL     1      -4.221   3.507 -31.894  1.00  0.00    -0.002 A 
HETATM   21  C   UNL     1      -3.057   4.191 -31.516  1.00  0.00     0.053 A 
HETATM   22  C   UNL     1      -2.570   5.231 -32.307  1.00  0.00     0.103 A 
HETATM   23  C   UNL     1      -3.242   5.607 -33.471  1.00  0.00     0.102 A 
HETATM   24  O   UNL     1      -1.420   5.842 -31.871  1.00  0.00    -0.346 OA
HETATM   25  O   UNL     1      -2.831   6.634 -34.279  1.00  0.00    -0.346 OA
HETATM   26  C   UNL     1      -4.381   4.914 -33.869  1.00  0.00     0.040 A 
HETATM   27  C   UNL     1      -1.836   7.448 -33.646  1.00  0.00     0.202 C 
HETATM   28  C   UNL     1      -0.804   6.589 -32.930  1.00  0.00     0.202 C 
HETATM   29  C   UNL     1      -4.869   3.865 -33.086  1.00  0.00     0.017 A 
ENDBRANCH   2  20
TORSDOF 4
ENDMDL
MODEL 8
REMARK VINA RESULT:      -7.7      3.539      6.728
REMARK  4 active torsions:
REMARK  status: ('A' for Active; 'I' for Inactive)
REMARK    1  A    between atoms: C_9  and  N_10 
REMARK    2  A    between atoms: N_10  and  C_12 
REMARK    3  A    between atoms: C_12  and  C_13 
REMARK    4  A    between atoms: C_14  and  C_15 
ROOT
HETATM    1  C   UNL     1      -7.335   2.431 -31.439  1.00  0.00     0.016 A 
HETATM    2  C   UNL     1      -6.443   1.347 -31.126  1.00  0.00     0.096 A 
HETATM    3  N   UNL     1      -6.155   1.323 -29.821  1.00  0.00    -0.174 NA
HETATM    4  N   UNL     1      -6.757   2.398 -29.311  1.00  0.00    -0.288 N 
HETATM    5  H   UNL     1      -6.637   2.589 -28.318  1.00  0.00     0.188 HD
HETATM    6  C   UNL     1      -7.479   3.097 -30.236  1.00  0.00     0.120 A 
ENDROOT
BRANCH   1   7
HETATM    7  C   UNL     1      -7.904   2.703 -32.787  1.00  0.00     0.277 C 
BRANCH   7   8
HETATM    8  N   UNL     1      -9.245   3.396 -32.937  1.00  0.00    -0.065 N 
HETATM    9  H   UNL     1      -9.281   4.084 -32.175  1.00  0.00     0.280 HD
HETATM   10  C   UNL     1      -9.373   4.150 -34.228  1.00  0.00     0.270 C 
BRANCH   8  11
HETATM   11  C   UNL     1     -10.381   2.426 -32.808  1.00  0.00     0.205 C 
HETATM   12  C   UNL     1     -10.211   1.066 -33.581  1.00  0.00     0.008 C 
HETATM   13  C   UNL     1      -9.170   0.948 -34.699  1.00  0.00     0.020 C 
HETATM   14  C   UNL     1     -10.127  -0.139 -32.638  1.00  0.00     0.020 C 
HETATM   15  C   UNL     1     -11.617   1.287 -34.192  1.00  0.00     0.137 C 
HETATM   16  C   UNL     1     -11.615   2.745 -33.704  1.00  0.00     0.049 C 
HETATM   17  O   UNL     1     -12.753   0.627 -33.604  1.00  0.00    -0.385 OA
HETATM   18  C   UNL     1     -12.965   2.851 -32.978  1.00  0.00     0.035 C 
HETATM   19  C   UNL     1     -13.761   1.621 -33.407  1.00  0.00     0.168 C 
ENDBRANCH   8  11
ENDBRANCH   7   8
ENDBRANCH   1   7
BRANCH   2  20
HETATM   20  C   UNL     1      -5.885   0.340 -32.026  1.00  0.00    -0.002 A 
HETATM   21  C   UNL     1      -6.709  -0.635 -32.603  1.00  0.00     0.053 A 
HETATM   22  C   UNL     1      -6.162  -1.595 -33.456  1.00  0.00     0.103 A 
HETATM   23  C   UNL     1      -4.794  -1.599 -33.729  1.00  0.00     0.102 A 
HETATM   24  O   UNL     1      -7.038  -2.509 -33.987  1.00  0.00    -0.346 OA
HETATM   25  O   UNL     1      -4.191  -2.526 -34.537  1.00  0.00    -0.346 OA
HETATM   26  C   UNL     1      -3.974  -0.615 -33.183  1.00  0.00     0.040 A 
HETATM   27  C   UNL     1      -5.052  -3.637 -34.814  1.00  0.00     0.202 C 
HETATM   28  C   UNL     1      -6.464  -3.166 -35.127  1.00  0.00     0.202 C 
HETATM   29  C   UNL     1      -4.517   0.354 -32.336  1.00  0.00     0.017 A 
ENDBRANCH   2  20
TORSDOF 4
ENDMDL
MODEL 9
REMARK VINA RESULT:      -7.7      3.764      5.468
REMARK  4 active torsions:
REMARK  status: ('A' for Active; 'I' for Inactive)
REMARK    1  A    between atoms: C_9  and  N_10 
REMARK    2  A    between atoms: N_10  and  C_12 
REMARK    3  A    between atoms: C_12  and  C_13 
REMARK    4  A    between atoms: C_14  and  C_15 
ROOT
HETATM    1  C   UNL     1      -6.292   1.463 -31.460  1.00  0.00     0.016 A 
HETATM    2  C   UNL     1      -7.566   2.112 -31.303  1.00  0.00     0.096 A 
HETATM    3  N   UNL     1      -7.711   2.593 -30.065  1.00  0.00    -0.174 NA
HETATM    4  N   UNL     1      -6.621   2.199 -29.407  1.00  0.00    -0.288 N 
HETATM    5  H   UNL     1      -6.543   2.437 -28.421  1.00  0.00     0.188 HD
HETATM    6  C   UNL     1      -5.735   1.520 -30.196  1.00  0.00     0.120 A 
ENDROOT
BRANCH   1   7
HETATM    7  C   UNL     1      -5.785   0.877 -32.732  1.00  0.00     0.277 C 
BRANCH   7   8
HETATM    8  N   UNL     1      -6.608  -0.139 -33.500  1.00  0.00    -0.065 N 
HETATM    9  H   UNL     1      -7.540  -0.115 -33.069  1.00  0.00     0.280 HD
HETATM   10  C   UNL     1      -6.773   0.216 -34.948  1.00  0.00     0.270 C 
BRANCH   8  11
HETATM   11  C   UNL     1      -6.025  -1.516 -33.384  1.00  0.00     0.205 C 
HETATM   12  C   UNL     1      -4.455  -1.589 -33.290  1.00  0.00     0.008 C 
HETATM   13  C   UNL     1      -3.608  -0.385 -33.716  1.00  0.00     0.020 C 
HETATM   14  C   UNL     1      -3.972  -2.139 -31.945  1.00  0.00     0.020 C 
HETATM   15  C   UNL     1      -4.479  -2.642 -34.426  1.00  0.00     0.137 C 
HETATM   16  C   UNL     1      -5.950  -2.307 -34.724  1.00  0.00     0.049 C 
HETATM   17  O   UNL     1      -4.406  -4.041 -34.092  1.00  0.00    -0.385 OA
HETATM   18  C   UNL     1      -6.611  -3.694 -34.724  1.00  0.00     0.035 C 
HETATM   19  C   UNL     1      -5.462  -4.698 -34.795  1.00  0.00     0.168 C 
ENDBRANCH   8  11
ENDBRANCH   7   8
ENDBRANCH   1   7
BRANCH   2  20
HETATM   20  C   UNL     1      -8.621   2.295 -32.298  1.00  0.00    -0.002 A 
HETATM   21  C   UNL     1      -9.649   1.352 -32.430  1.00  0.00     0.053 A 
HETATM   22  C   UNL     1     -10.646   1.536 -33.388  1.00  0.00     0.103 A 
HETATM   23  C   UNL     1     -10.620   2.648 -34.230  1.00  0.00     0.102 A 
HETATM   24  O   UNL     1     -11.621   0.571 -33.447  1.00  0.00    -0.346 OA
HETATM   25  O   UNL     1     -11.553   2.876 -35.206  1.00  0.00    -0.346 OA
HETATM   26  C   UNL     1      -9.619   3.605 -34.084  1.00  0.00     0.040 A 
HETATM   27  C   UNL     1     -12.359   1.718 -35.457  1.00  0.00     0.202 C 
HETATM   28  C   UNL     1     -12.773   1.050 -34.155  1.00  0.00     0.202 C 
HETATM   29  C   UNL     1      -8.623   3.432 -33.120  1.00  0.00     0.017 A 
ENDBRANCH   2  20
TORSDOF 4
ENDMDL
MODEL 10
REMARK VINA RESULT:      -7.7      2.130      7.055
REMARK  4 active torsions:
REMARK  status: ('A' for Active; 'I' for Inactive)
REMARK    1  A    between atoms: C_9  and  N_10 
REMARK    2  A    between atoms: N_10  and  C_12 
REMARK    3  A    between atoms: C_12  and  C_13 
REMARK    4  A    between atoms: C_14  and  C_15 
ROOT
HETATM    1  C   UNL     1      -7.395   2.579 -31.314  1.00  0.00     0.016 A 
HETATM    2  C   UNL     1      -7.614   1.183 -31.582  1.00  0.00     0.096 A 
HETATM    3  N   UNL     1      -8.881   0.838 -31.333  1.00  0.00    -0.174 NA
HETATM    4  N   UNL     1      -9.450   1.936 -30.836  1.00  0.00    -0.288 N 
HETATM    5  H   UNL     1     -10.424   1.882 -30.545  1.00  0.00     0.188 HD
HETATM    6  C   UNL     1      -8.606   3.010 -30.803  1.00  0.00     0.120 A 
ENDROOT
BRANCH   1   7
HETATM    7  C   UNL     1      -6.115   3.301 -31.549  1.00  0.00     0.277 C 
BRANCH   7   8
HETATM    8  N   UNL     1      -5.695   3.701 -32.950  1.00  0.00    -0.065 N 
HETATM    9  H   UNL     1      -5.025   2.983 -33.247  1.00  0.00     0.280 HD
HETATM   10  C   UNL     1      -6.832   3.686 -33.928  1.00  0.00     0.270 C 
BRANCH   8  11
HETATM   11  C   UNL     1      -5.040   5.050 -32.962  1.00  0.00     0.205 C 
HETATM   12  C   UNL     1      -3.477   5.051 -33.152  1.00  0.00     0.008 C 
HETATM   13  C   UNL     1      -2.679   3.765 -32.911  1.00  0.00     0.020 C 
HETATM   14  C   UNL     1      -3.046   5.715 -34.463  1.00  0.00     0.020 C 
HETATM   15  C   UNL     1      -3.370   5.976 -31.915  1.00  0.00     0.137 C 
HETATM   16  C   UNL     1      -4.838   5.689 -31.555  1.00  0.00     0.049 C 
HETATM   17  O   UNL     1      -3.235   7.396 -32.106  1.00  0.00    -0.385 OA
HETATM   18  C   UNL     1      -5.414   7.100 -31.367  1.00  0.00     0.035 C 
HETATM   19  C   UNL     1      -4.206   8.029 -31.270  1.00  0.00     0.168 C 
ENDBRANCH   8  11
ENDBRANCH   7   8
ENDBRANCH   1   7
BRANCH   2  20
HETATM   20  C   UNL     1      -6.661   0.194 -32.081  1.00  0.00    -0.002 A 
HETATM   21  C   UNL     1      -6.991  -0.633 -33.164  1.00  0.00     0.053 A 
HETATM   22  C   UNL     1      -6.074  -1.578 -33.625  1.00  0.00     0.103 A 
HETATM   23  C   UNL     1      -4.832  -1.718 -33.006  1.00  0.00     0.102 A 
HETATM   24  O   UNL     1      -6.471  -2.341 -34.696  1.00  0.00    -0.346 OA
HETATM   25  O   UNL     1      -3.897  -2.641 -33.393  1.00  0.00    -0.346 OA
HETATM   26  C   UNL     1      -4.485  -0.880 -31.949  1.00  0.00     0.040 A 
HETATM   27  C   UNL     1      -4.448  -3.620 -34.282  1.00  0.00     0.202 C 
HETATM   28  C   UNL     1      -5.343  -2.967 -35.324  1.00  0.00     0.202 C 
HETATM   29  C   UNL     1      -5.395   0.075 -31.488  1.00  0.00     0.017 A 
ENDBRANCH   2  20
TORSDOF 4
ENDMDL
