MODEL 1
REMARK VINA RESULT:      -9.9      0.000      0.000
REMARK  5 active torsions:
REMARK  status: ('A' for Active; 'I' for Inactive)
REMARK    1  A    between atoms: C_10  and  C_11 
REMARK    2  A    between atoms: C_13  and  O_14 
REMARK    3  A    between atoms: C_16  and  O_17 
REMARK    4  A    between atoms: O_17  and  C_18 
REMARK    5  A    between atoms: C_18  and  C_19 
ROOT
HETATM    1  C   UNL     1      -3.112   4.547 -32.684  1.00  0.00    -0.013 A 
HETATM    2  C   UNL     1      -4.299   4.479 -33.442  1.00  0.00     0.050 A 
HETATM    3  C   UNL     1      -5.336   3.611 -33.089  1.00  0.00     0.102 A 
HETATM    4  C   UNL     1      -5.199   2.832 -31.933  1.00  0.00     0.112 A 
HETATM    5  C   UNL     1      -4.022   2.850 -31.187  1.00  0.00     0.041 A 
HETATM    6  C   UNL     1      -2.990   3.713 -31.557  1.00  0.00     0.014 A 
ENDROOT
BRANCH   1   7
HETATM    7  C   UNL     1      -2.003   5.541 -32.991  1.00  0.00     0.219 C 
HETATM    8  N   UNL     1      -2.284   6.873 -32.491  1.00  0.00    -0.358 N 
HETATM    9  C   UNL     1      -1.744   7.280 -31.323  1.00  0.00     0.088 A 
HETATM   10  H   UNL     1      -3.140   7.293 -32.841  1.00  0.00     0.162 HD
HETATM   11  C   UNL     1      -0.727   6.607 -30.689  1.00  0.00     0.073 A 
HETATM   12  S   UNL     1      -2.254   8.655 -30.463  1.00  0.00    -0.074 SA
HETATM   13  C   UNL     1      -0.354   7.241 -29.461  1.00  0.00    -0.023 A 
HETATM   14  C   UNL     1      -0.180   5.413 -31.305  1.00  0.00     0.256 C 
HETATM   15  C   UNL     1      -1.123   8.365 -29.225  1.00  0.00     0.018 A 
HETATM   16  C   UNL     1       0.703   6.792 -28.495  1.00  0.00     0.068 C 
HETATM   17  C   UNL     1      -0.985   9.263 -28.045  1.00  0.00     0.281 C 
HETATM   18  N   UNL     1      -0.191   8.570 -26.944  1.00  0.00    -0.070 N 
HETATM   19  C   UNL     1       0.099   9.487 -25.800  1.00  0.00     0.270 C 
HETATM   20  H   UNL     1      -0.796   7.816 -26.591  1.00  0.00     0.279 HD
HETATM   21  C   UNL     1       1.068   7.903 -27.494  1.00  0.00     0.239 C 
HETATM   22  N   UNL     1      -0.734   5.063 -32.503  1.00  0.00    -0.332 N 
HETATM   23  O   UNL     1       0.739   4.775 -30.805  1.00  0.00    -0.267 OA
HETATM   24  H   UNL     1      -0.391   4.189 -32.875  1.00  0.00     0.165 HD
ENDBRANCH   1   7
BRANCH   3  25
HETATM   25  O   UNL     1      -6.515   3.481 -33.773  1.00  0.00    -0.353 OA
HETATM   26  C   UNL     1      -7.392   4.598 -33.765  1.00  0.00     0.210 C 
ENDBRANCH   3  25
BRANCH   4  27
HETATM   27  O   UNL     1      -6.273   1.992 -31.590  1.00  0.00    -0.272 OA
BRANCH  27  28
HETATM   28  C   UNL     1      -5.935   0.804 -30.977  1.00  0.00     0.300 C 
HETATM   29  O   UNL     1      -5.743   0.567 -29.798  1.00  0.00    -0.259 OA
BRANCH  28  30
HETATM   30  C   UNL     1      -5.790  -0.200 -32.037  1.00  0.00     0.061 A 
HETATM   31  C   UNL     1      -4.566  -0.842 -32.255  1.00  0.00     0.051 A 
HETATM   32 CL   UNL     1      -3.163  -0.502 -31.307  1.00  0.00    -0.083 Cl
HETATM   33  C   UNL     1      -4.450  -1.779 -33.284  1.00  0.00     0.048 A 
HETATM   34  C   UNL     1      -5.554  -2.061 -34.089  1.00  0.00     0.035 A 
HETATM   35 CL   UNL     1      -5.408  -3.215 -35.356  1.00  0.00    -0.084 Cl
HETATM   36  C   UNL     1      -6.772  -1.412 -33.881  1.00  0.00     0.025 A 
HETATM   37  C   UNL     1      -6.893  -0.474 -32.854  1.00  0.00     0.021 A 
ENDBRANCH  28  30
ENDBRANCH  27  28
ENDBRANCH   4  27
TORSDOF 5
ENDMDL
MODEL 2
REMARK VINA RESULT:      -9.2      4.057      9.327
REMARK  5 active torsions:
REMARK  status: ('A' for Active; 'I' for Inactive)
REMARK    1  A    between atoms: C_10  and  C_11 
REMARK    2  A    between atoms: C_13  and  O_14 
REMARK    3  A    between atoms: C_16  and  O_17 
REMARK    4  A    between atoms: O_17  and  C_18 
REMARK    5  A    between atoms: C_18  and  C_19 
ROOT
HETATM    1  C   UNL     1      -4.330   3.246 -31.357  1.00  0.00    -0.013 A 
HETATM    2  C   UNL     1      -5.038   4.465 -31.382  1.00  0.00     0.050 A 
HETATM    3  C   UNL     1      -4.609   5.535 -32.172  1.00  0.00     0.102 A 
HETATM    4  C   UNL     1      -3.480   5.365 -32.983  1.00  0.00     0.112 A 
HETATM    5  C   UNL     1      -2.740   4.184 -32.949  1.00  0.00     0.041 A 
HETATM    6  C   UNL     1      -3.172   3.128 -32.147  1.00  0.00     0.014 A 
ENDROOT
BRANCH   1   7
HETATM    7  C   UNL     1      -4.818   2.035 -30.577  1.00  0.00     0.219 C 
HETATM    8  N   UNL     1      -6.036   1.466 -31.119  1.00  0.00    -0.358 N 
HETATM    9  C   UNL     1      -5.972   0.387 -31.926  1.00  0.00     0.088 A 
HETATM   10  H   UNL     1      -6.826   2.103 -31.167  1.00  0.00     0.162 HD
HETATM   11  C   UNL     1      -4.841  -0.380 -32.070  1.00  0.00     0.073 A 
HETATM   12  S   UNL     1      -7.260  -0.161 -32.892  1.00  0.00    -0.074 SA
HETATM   13  C   UNL     1      -5.037  -1.451 -33.000  1.00  0.00    -0.023 A 
HETATM   14  C   UNL     1      -3.656  -0.039 -31.304  1.00  0.00     0.256 C 
HETATM   15  C   UNL     1      -6.317  -1.431 -33.521  1.00  0.00     0.018 A 
HETATM   16  C   UNL     1      -4.031  -2.482 -33.420  1.00  0.00     0.068 C 
HETATM   17  C   UNL     1      -6.856  -2.412 -34.504  1.00  0.00     0.281 C 
HETATM   18  N   UNL     1      -5.715  -3.177 -35.165  1.00  0.00    -0.070 N 
HETATM   19  C   UNL     1      -6.214  -4.275 -36.049  1.00  0.00     0.270 C 
HETATM   20  H   UNL     1      -5.227  -2.496 -35.762  1.00  0.00     0.279 HD
HETATM   21  C   UNL     1      -4.698  -3.669 -34.137  1.00  0.00     0.239 C 
HETATM   22  N   UNL     1      -3.782   1.037 -30.474  1.00  0.00    -0.332 N 
HETATM   23  O   UNL     1      -2.620  -0.690 -31.369  1.00  0.00    -0.267 OA
HETATM   24  H   UNL     1      -2.926   1.301 -30.009  1.00  0.00     0.165 HD
ENDBRANCH   1   7
BRANCH   3  25
HETATM   25  O   UNL     1      -5.234   6.751 -32.248  1.00  0.00    -0.353 OA
HETATM   26  C   UNL     1      -6.649   6.743 -32.368  1.00  0.00     0.210 C 
ENDBRANCH   3  25
BRANCH   4  27
HETATM   27  O   UNL     1      -3.094   6.451 -33.788  1.00  0.00    -0.272 OA
BRANCH  27  28
HETATM   28  C   UNL     1      -1.786   6.867 -33.649  1.00  0.00     0.300 C 
HETATM   29  O   UNL     1      -0.855   6.772 -34.429  1.00  0.00    -0.259 OA
BRANCH  28  30
HETATM   30  C   UNL     1      -1.662   7.451 -32.308  1.00  0.00     0.061 A 
HETATM   31  C   UNL     1      -0.839   6.861 -31.343  1.00  0.00     0.051 A 
HETATM   32 CL   UNL     1       0.074   5.428 -31.657  1.00  0.00    -0.083 Cl
HETATM   33  C   UNL     1      -0.754   7.426 -30.068  1.00  0.00     0.048 A 
HETATM   34  C   UNL     1      -1.496   8.567 -29.768  1.00  0.00     0.035 A 
HETATM   35 CL   UNL     1      -1.390   9.260 -28.197  1.00  0.00    -0.084 Cl
HETATM   36  C   UNL     1      -2.328   9.149 -30.726  1.00  0.00     0.025 A 
HETATM   37  C   UNL     1      -2.417   8.589 -32.002  1.00  0.00     0.021 A 
ENDBRANCH  28  30
ENDBRANCH  27  28
ENDBRANCH   4  27
TORSDOF 5
ENDMDL
MODEL 3
REMARK VINA RESULT:      -9.2      2.077      2.515
REMARK  5 active torsions:
REMARK  status: ('A' for Active; 'I' for Inactive)
REMARK    1  A    between atoms: C_10  and  C_11 
REMARK    2  A    between atoms: C_13  and  O_14 
REMARK    3  A    between atoms: C_16  and  O_17 
REMARK    4  A    between atoms: O_17  and  C_18 
REMARK    5  A    between atoms: C_18  and  C_19 
ROOT
HETATM    1  C   UNL     1      -3.745   4.125 -32.578  1.00  0.00    -0.013 A 
HETATM    2  C   UNL     1      -5.080   4.437 -32.249  1.00  0.00     0.050 A 
HETATM    3  C   UNL     1      -5.929   3.482 -31.683  1.00  0.00     0.102 A 
HETATM    4  C   UNL     1      -5.419   2.208 -31.401  1.00  0.00     0.112 A 
HETATM    5  C   UNL     1      -4.115   1.861 -31.752  1.00  0.00     0.041 A 
HETATM    6  C   UNL     1      -3.281   2.821 -32.327  1.00  0.00     0.014 A 
ENDROOT
BRANCH   1   7
HETATM    7  C   UNL     1      -2.772   5.164 -33.114  1.00  0.00     0.219 C 
HETATM    8  N   UNL     1      -3.078   6.509 -32.666  1.00  0.00    -0.358 N 
HETATM    9  C   UNL     1      -2.406   7.039 -31.623  1.00  0.00     0.088 A 
HETATM   10  H   UNL     1      -4.005   6.844 -32.909  1.00  0.00     0.162 HD
HETATM   11  C   UNL     1      -1.259   6.485 -31.107  1.00  0.00     0.073 A 
HETATM   12  S   UNL     1      -2.889   8.439 -30.788  1.00  0.00    -0.074 SA
HETATM   13  C   UNL     1      -0.760   7.234 -29.993  1.00  0.00    -0.023 A 
HETATM   14  C   UNL     1      -0.718   5.286 -31.718  1.00  0.00     0.256 C 
HETATM   15  C   UNL     1      -1.571   8.320 -29.719  1.00  0.00     0.018 A 
HETATM   16  C   UNL     1       0.458   6.931 -29.171  1.00  0.00     0.068 C 
HETATM   17  C   UNL     1      -1.331   9.313 -28.634  1.00  0.00     0.281 C 
HETATM   18  N   UNL     1      -0.333   8.760 -27.624  1.00  0.00    -0.070 N 
HETATM   19  C   UNL     1       0.050   9.779 -26.599  1.00  0.00     0.270 C 
HETATM   20  H   UNL     1      -0.820   7.997 -27.134  1.00  0.00     0.279 HD
HETATM   21  C   UNL     1       0.880   8.137 -28.312  1.00  0.00     0.239 C 
HETATM   22  N   UNL     1      -1.412   4.810 -32.793  1.00  0.00    -0.332 N 
HETATM   23  O   UNL     1       0.311   4.750 -31.322  1.00  0.00    -0.267 OA
HETATM   24  H   UNL     1      -1.061   3.935 -33.155  1.00  0.00     0.165 HD
ENDBRANCH   1   7
BRANCH   3  25
HETATM   25  O   UNL     1      -7.236   3.702 -31.340  1.00  0.00    -0.353 OA
HETATM   26  C   UNL     1      -7.741   5.016 -31.532  1.00  0.00     0.210 C 
ENDBRANCH   3  25
BRANCH   4  27
HETATM   27  O   UNL     1      -6.290   1.281 -30.804  1.00  0.00    -0.272 OA
BRANCH  27  28
HETATM   28  C   UNL     1      -6.556   0.146 -31.541  1.00  0.00     0.300 C 
HETATM   29  O   UNL     1      -5.947  -0.908 -31.588  1.00  0.00    -0.259 OA
BRANCH  28  30
HETATM   30  C   UNL     1      -7.748   0.428 -32.349  1.00  0.00     0.061 A 
HETATM   31  C   UNL     1      -7.675   0.465 -33.746  1.00  0.00     0.051 A 
HETATM   32 CL   UNL     1      -6.201   0.187 -34.602  1.00  0.00    -0.083 Cl
HETATM   33  C   UNL     1      -8.821   0.755 -34.491  1.00  0.00     0.048 A 
HETATM   34  C   UNL     1     -10.024   1.012 -33.834  1.00  0.00     0.035 A 
HETATM   35 CL   UNL     1     -11.432   1.369 -34.754  1.00  0.00    -0.084 Cl
HETATM   36  C   UNL     1     -10.095   0.987 -32.441  1.00  0.00     0.025 A 
HETATM   37  C   UNL     1      -8.953   0.699 -31.691  1.00  0.00     0.021 A 
ENDBRANCH  28  30
ENDBRANCH  27  28
ENDBRANCH   4  27
TORSDOF 5
ENDMDL
MODEL 4
REMARK VINA RESULT:      -9.1      2.512      3.361
REMARK  5 active torsions:
REMARK  status: ('A' for Active; 'I' for Inactive)
REMARK    1  A    between atoms: C_10  and  C_11 
REMARK    2  A    between atoms: C_13  and  O_14 
REMARK    3  A    between atoms: C_16  and  O_17 
REMARK    4  A    between atoms: O_17  and  C_18 
REMARK    5  A    between atoms: C_18  and  C_19 
ROOT
HETATM    1  C   UNL     1      -3.312   4.512 -32.888  1.00  0.00    -0.013 A 
HETATM    2  C   UNL     1      -3.031   3.322 -32.186  1.00  0.00     0.050 A 
HETATM    3  C   UNL     1      -4.025   2.370 -31.947  1.00  0.00     0.102 A 
HETATM    4  C   UNL     1      -5.310   2.592 -32.458  1.00  0.00     0.112 A 
HETATM    5  C   UNL     1      -5.625   3.777 -33.122  1.00  0.00     0.041 A 
HETATM    6  C   UNL     1      -4.626   4.725 -33.344  1.00  0.00     0.014 A 
ENDROOT
BRANCH   1   7
HETATM    7  C   UNL     1      -2.236   5.527 -33.239  1.00  0.00     0.219 C 
HETATM    8  N   UNL     1      -2.542   6.863 -32.767  1.00  0.00    -0.358 N 
HETATM    9  C   UNL     1      -1.992   7.313 -31.620  1.00  0.00     0.088 A 
HETATM   10  H   UNL     1      -3.415   7.252 -33.111  1.00  0.00     0.162 HD
HETATM   11  C   UNL     1      -0.946   6.683 -30.989  1.00  0.00     0.073 A 
HETATM   12  S   UNL     1      -2.523   8.695 -30.785  1.00  0.00    -0.074 SA
HETATM   13  C   UNL     1      -0.568   7.357 -29.783  1.00  0.00    -0.023 A 
HETATM   14  C   UNL     1      -0.379   5.488 -31.585  1.00  0.00     0.256 C 
HETATM   15  C   UNL     1      -1.363   8.466 -29.561  1.00  0.00     0.018 A 
HETATM   16  C   UNL     1       0.518   6.959 -28.827  1.00  0.00     0.068 C 
HETATM   17  C   UNL     1      -1.227   9.397 -28.406  1.00  0.00     0.281 C 
HETATM   18  N   UNL     1      -0.395   8.752 -27.304  1.00  0.00    -0.070 N 
HETATM   19  C   UNL     1      -0.109   9.705 -26.187  1.00  0.00     0.270 C 
HETATM   20  H   UNL     1      -0.973   7.991 -26.921  1.00  0.00     0.279 HD
HETATM   21  C   UNL     1       0.871   8.104 -27.860  1.00  0.00     0.239 C 
HETATM   22  N   UNL     1      -0.945   5.094 -32.764  1.00  0.00    -0.332 N 
HETATM   23  O   UNL     1       0.565   4.887 -31.087  1.00  0.00    -0.267 OA
HETATM   24  H   UNL     1      -0.586   4.221 -33.121  1.00  0.00     0.165 HD
ENDBRANCH   1   7
BRANCH   3  25
HETATM   25  O   UNL     1      -3.836   1.195 -31.270  1.00  0.00    -0.353 OA
HETATM   26  C   UNL     1      -3.268   0.115 -31.998  1.00  0.00     0.210 C 
ENDBRANCH   3  25
BRANCH   4  27
HETATM   27  O   UNL     1      -6.278   1.600 -32.226  1.00  0.00    -0.272 OA
BRANCH  27  28
HETATM   28  C   UNL     1      -7.294   1.943 -31.359  1.00  0.00     0.300 C 
HETATM   29  O   UNL     1      -7.231   2.349 -30.212  1.00  0.00    -0.259 OA
BRANCH  28  30
HETATM   30  C   UNL     1      -8.559   1.692 -32.058  1.00  0.00     0.061 A 
HETATM   31  C   UNL     1      -9.387   2.751 -32.447  1.00  0.00     0.051 A 
HETATM   32 CL   UNL     1      -8.984   4.401 -32.136  1.00  0.00    -0.083 Cl
HETATM   33  C   UNL     1     -10.595   2.483 -33.095  1.00  0.00     0.048 A 
HETATM   34  C   UNL     1     -10.969   1.162 -33.340  1.00  0.00     0.035 A 
HETATM   35 CL   UNL     1     -12.457   0.835 -34.137  1.00  0.00    -0.084 Cl
HETATM   36  C   UNL     1     -10.150   0.104 -32.941  1.00  0.00     0.025 A 
HETATM   37  C   UNL     1      -8.941   0.366 -32.293  1.00  0.00     0.021 A 
ENDBRANCH  28  30
ENDBRANCH  27  28
ENDBRANCH   4  27
TORSDOF 5
ENDMDL
MODEL 5
REMARK VINA RESULT:      -9.1      1.450      2.422
REMARK  5 active torsions:
REMARK  status: ('A' for Active; 'I' for Inactive)
REMARK    1  A    between atoms: C_10  and  C_11 
REMARK    2  A    between atoms: C_13  and  O_14 
REMARK    3  A    between atoms: C_16  and  O_17 
REMARK    4  A    between atoms: O_17  and  C_18 
REMARK    5  A    between atoms: C_18  and  C_19 
ROOT
HETATM    1  C   UNL     1      -3.034   4.600 -32.258  1.00  0.00    -0.013 A 
HETATM    2  C   UNL     1      -2.946   3.350 -31.612  1.00  0.00     0.050 A 
HETATM    3  C   UNL     1      -4.069   2.529 -31.467  1.00  0.00     0.102 A 
HETATM    4  C   UNL     1      -5.287   2.948 -32.018  1.00  0.00     0.112 A 
HETATM    5  C   UNL     1      -5.410   4.196 -32.627  1.00  0.00     0.041 A 
HETATM    6  C   UNL     1      -4.285   5.010 -32.755  1.00  0.00     0.014 A 
ENDROOT
BRANCH   1   7
HETATM    7  C   UNL     1      -1.817   5.476 -32.509  1.00  0.00     0.219 C 
HETATM    8  N   UNL     1      -1.994   6.837 -32.040  1.00  0.00    -0.358 N 
HETATM    9  C   UNL     1      -1.486   7.209 -30.847  1.00  0.00     0.088 A 
HETATM   10  H   UNL     1      -2.783   7.333 -32.445  1.00  0.00     0.162 HD
HETATM   11  C   UNL     1      -0.578   6.451 -30.147  1.00  0.00     0.073 A 
HETATM   12  S   UNL     1      -1.908   8.641 -30.034  1.00  0.00    -0.074 SA
HETATM   13  C   UNL     1      -0.217   7.066 -28.904  1.00  0.00    -0.023 A 
HETATM   14  C   UNL     1      -0.116   5.199 -30.716  1.00  0.00     0.256 C 
HETATM   15  C   UNL     1      -0.886   8.263 -28.728  1.00  0.00     0.018 A 
HETATM   16  C   UNL     1       0.732   6.532 -27.872  1.00  0.00     0.068 C 
HETATM   17  C   UNL     1      -0.729   9.163 -27.550  1.00  0.00     0.281 C 
HETATM   18  N   UNL     1      -0.073   8.414 -26.397  1.00  0.00    -0.070 N 
HETATM   19  C   UNL     1       0.239   9.317 -25.247  1.00  0.00     0.270 C 
HETATM   20  H   UNL     1      -0.768   7.728 -26.073  1.00  0.00     0.279 HD
HETATM   21  C   UNL     1       1.145   7.619 -26.864  1.00  0.00     0.239 C 
HETATM   22  N   UNL     1      -0.631   4.885 -31.941  1.00  0.00    -0.332 N 
HETATM   23  O   UNL     1       0.705   4.483 -30.155  1.00  0.00    -0.267 OA
HETATM   24  H   UNL     1      -0.354   3.977 -32.283  1.00  0.00     0.165 HD
ENDBRANCH   1   7
BRANCH   3  25
HETATM   25  O   UNL     1      -4.070   1.308 -30.850  1.00  0.00    -0.353 OA
HETATM   26  C   UNL     1      -3.061   0.386 -31.240  1.00  0.00     0.210 C 
ENDBRANCH   3  25
BRANCH   4  27
HETATM   27  O   UNL     1      -6.388   2.085 -31.881  1.00  0.00    -0.272 OA
BRANCH  27  28
HETATM   28  C   UNL     1      -7.149   1.899 -33.015  1.00  0.00     0.300 C 
HETATM   29  O   UNL     1      -7.909   2.670 -33.574  1.00  0.00    -0.259 OA
BRANCH  28  30
HETATM   30  C   UNL     1      -6.925   0.519 -33.461  1.00  0.00     0.061 A 
HETATM   31  C   UNL     1      -7.966  -0.416 -33.455  1.00  0.00     0.051 A 
HETATM   32 CL   UNL     1      -9.562  -0.018 -32.929  1.00  0.00    -0.083 Cl
HETATM   33  C   UNL     1      -7.720  -1.728 -33.866  1.00  0.00     0.048 A 
HETATM   34  C   UNL     1      -6.437  -2.095 -34.272  1.00  0.00     0.035 A 
HETATM   35 CL   UNL     1      -6.137  -3.711 -34.778  1.00  0.00    -0.084 Cl
HETATM   36  C   UNL     1      -5.395  -1.167 -34.268  1.00  0.00     0.025 A 
HETATM   37  C   UNL     1      -5.635   0.146 -33.857  1.00  0.00     0.021 A 
ENDBRANCH  28  30
ENDBRANCH  27  28
ENDBRANCH   4  27
TORSDOF 5
ENDMDL
MODEL 6
REMARK VINA RESULT:      -9.0      7.024      9.766
REMARK  5 active torsions:
REMARK  status: ('A' for Active; 'I' for Inactive)
REMARK    1  A    between atoms: C_10  and  C_11 
REMARK    2  A    between atoms: C_13  and  O_14 
REMARK    3  A    between atoms: C_16  and  O_17 
REMARK    4  A    between atoms: O_17  and  C_18 
REMARK    5  A    between atoms: C_18  and  C_19 
ROOT
HETATM    1  C   UNL     1     -10.979   1.062 -33.028  1.00  0.00    -0.013 A 
HETATM    2  C   UNL     1     -10.182   2.143 -32.601  1.00  0.00     0.050 A 
HETATM    3  C   UNL     1      -8.834   1.966 -32.276  1.00  0.00     0.102 A 
HETATM    4  C   UNL     1      -8.266   0.695 -32.424  1.00  0.00     0.112 A 
HETATM    5  C   UNL     1      -9.039  -0.400 -32.807  1.00  0.00     0.041 A 
HETATM    6  C   UNL     1     -10.387  -0.212 -33.117  1.00  0.00     0.014 A 
ENDROOT
BRANCH   1   7
HETATM    7  C   UNL     1     -12.423   1.236 -33.471  1.00  0.00     0.219 C 
HETATM    8  N   UNL     1     -13.130   2.248 -32.709  1.00  0.00    -0.358 N 
HETATM    9  C   UNL     1     -13.272   3.491 -33.212  1.00  0.00     0.088 A 
HETATM   10  H   UNL     1     -13.164   2.086 -31.706  1.00  0.00     0.162 HD
HETATM   11  C   UNL     1     -13.014   3.806 -34.524  1.00  0.00     0.073 A 
HETATM   12  S   UNL     1     -13.761   4.840 -32.299  1.00  0.00    -0.074 SA
HETATM   13  C   UNL     1     -13.226   5.197 -34.790  1.00  0.00    -0.023 A 
HETATM   14  C   UNL     1     -12.591   2.756 -35.432  1.00  0.00     0.256 C 
HETATM   15  C   UNL     1     -13.628   5.867 -33.649  1.00  0.00     0.018 A 
HETATM   16  C   UNL     1     -13.036   5.909 -36.097  1.00  0.00     0.068 C 
HETATM   17  C   UNL     1     -13.947   7.321 -33.580  1.00  0.00     0.281 C 
HETATM   18  N   UNL     1     -13.385   8.043 -34.798  1.00  0.00    -0.070 N 
HETATM   19  C   UNL     1     -13.808   9.477 -34.845  1.00  0.00     0.270 C 
HETATM   20  H   UNL     1     -12.361   8.026 -34.690  1.00  0.00     0.279 HD
HETATM   21  C   UNL     1     -13.703   7.296 -36.092  1.00  0.00     0.239 C 
HETATM   22  N   UNL     1     -12.498   1.509 -34.884  1.00  0.00    -0.332 N 
HETATM   23  O   UNL     1     -12.363   2.962 -36.618  1.00  0.00    -0.267 OA
HETATM   24  H   UNL     1     -12.131   0.810 -35.514  1.00  0.00     0.165 HD
ENDBRANCH   1   7
BRANCH   3  25
HETATM   25  O   UNL     1      -7.995   2.961 -31.849  1.00  0.00    -0.353 OA
HETATM   26  C   UNL     1      -8.171   3.427 -30.519  1.00  0.00     0.210 C 
ENDBRANCH   3  25
BRANCH   4  27
HETATM   27  O   UNL     1      -6.901   0.558 -32.118  1.00  0.00    -0.272 OA
BRANCH  27  28
HETATM   28  C   UNL     1      -6.034   0.640 -33.188  1.00  0.00     0.300 C 
HETATM   29  O   UNL     1      -5.808   1.577 -33.932  1.00  0.00    -0.259 OA
BRANCH  28  30
HETATM   30  C   UNL     1      -5.406  -0.678 -33.333  1.00  0.00     0.061 A 
HETATM   31  C   UNL     1      -4.333  -1.055 -32.519  1.00  0.00     0.051 A 
HETATM   32 CL   UNL     1      -3.682  -0.013 -31.306  1.00  0.00    -0.083 Cl
HETATM   33  C   UNL     1      -3.740  -2.309 -32.692  1.00  0.00     0.048 A 
HETATM   34  C   UNL     1      -4.220  -3.169 -33.680  1.00  0.00     0.035 A 
HETATM   35 CL   UNL     1      -3.489  -4.711 -33.890  1.00  0.00    -0.084 Cl
HETATM   36  C   UNL     1      -5.283  -2.789 -34.501  1.00  0.00     0.025 A 
HETATM   37  C   UNL     1      -5.878  -1.537 -34.333  1.00  0.00     0.021 A 
ENDBRANCH  28  30
ENDBRANCH  27  28
ENDBRANCH   4  27
TORSDOF 5
ENDMDL
MODEL 7
REMARK VINA RESULT:      -8.7      3.904      8.829
REMARK  5 active torsions:
REMARK  status: ('A' for Active; 'I' for Inactive)
REMARK    1  A    between atoms: C_10  and  C_11 
REMARK    2  A    between atoms: C_13  and  O_14 
REMARK    3  A    between atoms: C_16  and  O_17 
REMARK    4  A    between atoms: O_17  and  C_18 
REMARK    5  A    between atoms: C_18  and  C_19 
ROOT
HETATM    1  C   UNL     1      -5.937   5.277 -31.041  1.00  0.00    -0.013 A 
HETATM    2  C   UNL     1      -5.425   6.128 -30.040  1.00  0.00     0.050 A 
HETATM    3  C   UNL     1      -4.461   7.097 -30.336  1.00  0.00     0.102 A 
HETATM    4  C   UNL     1      -4.038   7.243 -31.663  1.00  0.00     0.112 A 
HETATM    5  C   UNL     1      -4.498   6.390 -32.665  1.00  0.00     0.041 A 
HETATM    6  C   UNL     1      -5.452   5.421 -32.354  1.00  0.00     0.014 A 
ENDROOT
BRANCH   1   7
HETATM    7  C   UNL     1      -7.047   4.274 -30.769  1.00  0.00     0.219 C 
HETATM    8  N   UNL     1      -7.624   3.727 -31.982  1.00  0.00    -0.358 N 
HETATM    9  C   UNL     1      -7.224   2.520 -32.432  1.00  0.00     0.088 A 
HETATM   10  H   UNL     1      -8.018   4.414 -32.620  1.00  0.00     0.162 HD
HETATM   11  C   UNL     1      -6.485   1.642 -31.675  1.00  0.00     0.073 A 
HETATM   12  S   UNL     1      -7.552   1.925 -33.991  1.00  0.00    -0.074 SA
HETATM   13  C   UNL     1      -6.179   0.444 -32.397  1.00  0.00    -0.023 A 
HETATM   14  C   UNL     1      -6.130   2.008 -30.317  1.00  0.00     0.256 C 
HETATM   15  C   UNL     1      -6.701   0.485 -33.676  1.00  0.00     0.018 A 
HETATM   16  C   UNL     1      -5.384  -0.731 -31.906  1.00  0.00     0.068 C 
HETATM   17  C   UNL     1      -6.579  -0.605 -34.685  1.00  0.00     0.281 C 
HETATM   18  N   UNL     1      -5.473  -1.574 -34.282  1.00  0.00    -0.070 N 
HETATM   19  C   UNL     1      -5.415  -2.764 -35.186  1.00  0.00     0.270 C 
HETATM   20  H   UNL     1      -4.591  -1.057 -34.392  1.00  0.00     0.279 HD
HETATM   21  C   UNL     1      -5.575  -1.963 -32.809  1.00  0.00     0.239 C 
HETATM   22  N   UNL     1      -6.589   3.223 -29.896  1.00  0.00    -0.332 N 
HETATM   23  O   UNL     1      -5.489   1.267 -29.581  1.00  0.00    -0.267 OA
HETATM   24  H   UNL     1      -6.267   3.488 -28.977  1.00  0.00     0.165 HD
ENDBRANCH   1   7
BRANCH   3  25
HETATM   25  O   UNL     1      -3.910   7.956 -29.424  1.00  0.00    -0.353 OA
HETATM   26  C   UNL     1      -3.365   7.382 -28.244  1.00  0.00     0.210 C 
ENDBRANCH   3  25
BRANCH   4  27
HETATM   27  O   UNL     1      -3.091   8.247 -31.931  1.00  0.00    -0.272 OA
BRANCH  27  28
HETATM   28  C   UNL     1      -1.999   7.858 -32.679  1.00  0.00     0.300 C 
HETATM   29  O   UNL     1      -1.739   8.084 -33.848  1.00  0.00    -0.259 OA
BRANCH  28  30
HETATM   30  C   UNL     1      -1.150   7.039 -31.806  1.00  0.00     0.061 A 
HETATM   31  C   UNL     1      -0.878   5.703 -32.119  1.00  0.00     0.051 A 
HETATM   32 CL   UNL     1      -1.511   4.936 -33.531  1.00  0.00    -0.083 Cl
HETATM   33  C   UNL     1      -0.083   4.939 -31.261  1.00  0.00     0.048 A 
HETATM   34  C   UNL     1       0.425   5.515 -30.096  1.00  0.00     0.035 A 
HETATM   35 CL   UNL     1       1.403   4.572 -29.041  1.00  0.00    -0.084 Cl
HETATM   36  C   UNL     1       0.144   6.844 -29.776  1.00  0.00     0.025 A 
HETATM   37  C   UNL     1      -0.651   7.611 -30.630  1.00  0.00     0.021 A 
ENDBRANCH  28  30
ENDBRANCH  27  28
ENDBRANCH   4  27
TORSDOF 5
ENDMDL
MODEL 8
REMARK VINA RESULT:      -8.6      5.366      8.903
REMARK  5 active torsions:
REMARK  status: ('A' for Active; 'I' for Inactive)
REMARK    1  A    between atoms: C_10  and  C_11 
REMARK    2  A    between atoms: C_13  and  O_14 
REMARK    3  A    between atoms: C_16  and  O_17 
REMARK    4  A    between atoms: O_17  and  C_18 
REMARK    5  A    between atoms: C_18  and  C_19 
ROOT
HETATM    1  C   UNL     1      -9.697   3.151 -30.844  1.00  0.00    -0.013 A 
HETATM    2  C   UNL     1      -8.420   3.353 -30.282  1.00  0.00     0.050 A 
HETATM    3  C   UNL     1      -7.341   2.531 -30.620  1.00  0.00     0.102 A 
HETATM    4  C   UNL     1      -7.535   1.520 -31.570  1.00  0.00     0.112 A 
HETATM    5  C   UNL     1      -8.795   1.274 -32.112  1.00  0.00     0.041 A 
HETATM    6  C   UNL     1      -9.866   2.094 -31.757  1.00  0.00     0.014 A 
ENDROOT
BRANCH   1   7
HETATM    7  C   UNL     1     -10.868   4.079 -30.564  1.00  0.00     0.219 C 
HETATM    8  N   UNL     1     -10.583   5.463 -30.889  1.00  0.00    -0.358 N 
HETATM    9  C   UNL     1     -11.006   5.978 -32.062  1.00  0.00     0.088 A 
HETATM   10  H   UNL     1      -9.787   5.866 -30.403  1.00  0.00     0.162 HD
HETATM   11  C   UNL     1     -11.923   5.352 -32.872  1.00  0.00     0.073 A 
HETATM   12  S   UNL     1     -10.455   7.449 -32.713  1.00  0.00    -0.074 SA
HETATM   13  C   UNL     1     -12.182   6.103 -34.064  1.00  0.00    -0.023 A 
HETATM   14  C   UNL     1     -12.490   4.085 -32.448  1.00  0.00     0.256 C 
HETATM   15  C   UNL     1     -11.433   7.265 -34.094  1.00  0.00     0.018 A 
HETATM   16  C   UNL     1     -13.110   5.733 -35.184  1.00  0.00     0.068 C 
HETATM   17  C   UNL     1     -11.473   8.280 -35.184  1.00  0.00     0.281 C 
HETATM   18  N   UNL     1     -12.117   7.687 -36.432  1.00  0.00    -0.070 N 
HETATM   19  C   UNL     1     -12.313   8.714 -37.502  1.00  0.00     0.270 C 
HETATM   20  H   UNL     1     -11.450   6.990 -36.790  1.00  0.00     0.279 HD
HETATM   21  C   UNL     1     -13.403   6.935 -36.099  1.00  0.00     0.239 C 
HETATM   22  N   UNL     1     -12.058   3.624 -31.238  1.00  0.00    -0.332 N 
HETATM   23  O   UNL     1     -13.325   3.482 -33.112  1.00  0.00    -0.267 OA
HETATM   24  H   UNL     1     -12.408   2.708 -30.998  1.00  0.00     0.165 HD
ENDBRANCH   1   7
BRANCH   3  25
HETATM   25  O   UNL     1      -6.074   2.656 -30.116  1.00  0.00    -0.353 OA
HETATM   26  C   UNL     1      -5.623   3.971 -29.823  1.00  0.00     0.210 C 
ENDBRANCH   3  25
BRANCH   4  27
HETATM   27  O   UNL     1      -6.422   0.732 -31.910  1.00  0.00    -0.272 OA
BRANCH  27  28
HETATM   28  C   UNL     1      -6.048   0.761 -33.237  1.00  0.00     0.300 C 
HETATM   29  O   UNL     1      -5.889   1.716 -33.977  1.00  0.00    -0.259 OA
BRANCH  28  30
HETATM   30  C   UNL     1      -5.896  -0.632 -33.671  1.00  0.00     0.061 A 
HETATM   31  C   UNL     1      -4.645  -1.258 -33.652  1.00  0.00     0.051 A 
HETATM   32 CL   UNL     1      -3.214  -0.447 -33.124  1.00  0.00    -0.083 Cl
HETATM   33  C   UNL     1      -4.526  -2.579 -34.089  1.00  0.00     0.048 A 
HETATM   34  C   UNL     1      -5.653  -3.259 -34.548  1.00  0.00     0.035 A 
HETATM   35 CL   UNL     1      -5.503  -4.886 -35.086  1.00  0.00    -0.084 Cl
HETATM   36  C   UNL     1      -6.900  -2.632 -34.580  1.00  0.00     0.025 A 
HETATM   37  C   UNL     1      -7.025  -1.312 -34.144  1.00  0.00     0.021 A 
ENDBRANCH  28  30
ENDBRANCH  27  28
ENDBRANCH   4  27
TORSDOF 5
ENDMDL
MODEL 9
REMARK VINA RESULT:      -8.6      2.589      3.349
REMARK  5 active torsions:
REMARK  status: ('A' for Active; 'I' for Inactive)
REMARK    1  A    between atoms: C_10  and  C_11 
REMARK    2  A    between atoms: C_13  and  O_14 
REMARK    3  A    between atoms: C_16  and  O_17 
REMARK    4  A    between atoms: O_17  and  C_18 
REMARK    5  A    between atoms: C_18  and  C_19 
ROOT
HETATM    1  C   UNL     1      -5.883   5.118 -31.113  1.00  0.00    -0.013 A 
HETATM    2  C   UNL     1      -4.598   4.808 -31.604  1.00  0.00     0.050 A 
HETATM    3  C   UNL     1      -4.331   3.577 -32.210  1.00  0.00     0.102 A 
HETATM    4  C   UNL     1      -5.379   2.660 -32.366  1.00  0.00     0.112 A 
HETATM    5  C   UNL     1      -6.649   2.925 -31.856  1.00  0.00     0.041 A 
HETATM    6  C   UNL     1      -6.899   4.153 -31.243  1.00  0.00     0.014 A 
ENDROOT
BRANCH   1   7
HETATM    7  C   UNL     1      -6.227   6.478 -30.529  1.00  0.00     0.219 C 
HETATM    8  N   UNL     1      -6.041   6.540 -29.092  1.00  0.00    -0.358 N 
HETATM    9  C   UNL     1      -4.914   7.080 -28.583  1.00  0.00     0.088 A 
HETATM   10  H   UNL     1      -6.578   5.863 -28.558  1.00  0.00     0.162 HD
HETATM   11  C   UNL     1      -4.030   7.820 -29.330  1.00  0.00     0.073 A 
HETATM   12  S   UNL     1      -4.418   6.906 -26.966  1.00  0.00    -0.074 SA
HETATM   13  C   UNL     1      -2.911   8.259 -28.552  1.00  0.00    -0.023 A 
HETATM   14  C   UNL     1      -4.320   8.060 -30.732  1.00  0.00     0.256 C 
HETATM   15  C   UNL     1      -3.007   7.814 -27.246  1.00  0.00     0.018 A 
HETATM   16  C   UNL     1      -1.742   9.073 -29.024  1.00  0.00     0.068 C 
HETATM   17  C   UNL     1      -2.018   8.105 -26.170  1.00  0.00     0.281 C 
HETATM   18  N   UNL     1      -0.706   8.589 -26.776  1.00  0.00    -0.070 N 
HETATM   19  C   UNL     1       0.264   9.034 -25.728  1.00  0.00     0.270 C 
HETATM   20  H   UNL     1      -0.296   7.775 -27.252  1.00  0.00     0.279 HD
HETATM   21  C   UNL     1      -0.940   9.653 -27.846  1.00  0.00     0.239 C 
HETATM   22  N   UNL     1      -5.489   7.525 -31.190  1.00  0.00    -0.332 N 
HETATM   23  O   UNL     1      -3.585   8.726 -31.452  1.00  0.00    -0.267 OA
HETATM   24  H   UNL     1      -5.633   7.640 -32.183  1.00  0.00     0.165 HD
ENDBRANCH   1   7
BRANCH   3  25
HETATM   25  O   UNL     1      -3.113   3.197 -32.706  1.00  0.00    -0.353 OA
HETATM   26  C   UNL     1      -2.239   4.232 -33.133  1.00  0.00     0.210 C 
ENDBRANCH   3  25
BRANCH   4  27
HETATM   27  O   UNL     1      -5.083   1.445 -33.007  1.00  0.00    -0.272 OA
BRANCH  27  28
HETATM   28  C   UNL     1      -5.108   0.322 -32.206  1.00  0.00     0.300 C 
HETATM   29  O   UNL     1      -4.905   0.219 -31.009  1.00  0.00    -0.259 OA
BRANCH  28  30
HETATM   30  C   UNL     1      -5.398  -0.822 -33.078  1.00  0.00     0.061 A 
HETATM   31  C   UNL     1      -6.709  -1.108 -33.474  1.00  0.00     0.051 A 
HETATM   32 CL   UNL     1      -8.056  -0.151 -32.972  1.00  0.00    -0.083 Cl
HETATM   33  C   UNL     1      -6.959  -2.215 -34.289  1.00  0.00     0.048 A 
HETATM   34  C   UNL     1      -5.900  -3.027 -34.694  1.00  0.00     0.035 A 
HETATM   35 CL   UNL     1      -6.212  -4.389 -35.697  1.00  0.00    -0.084 Cl
HETATM   36  C   UNL     1      -4.594  -2.750 -34.289  1.00  0.00     0.025 A 
HETATM   37  C   UNL     1      -4.338  -1.646 -33.474  1.00  0.00     0.021 A 
ENDBRANCH  28  30
ENDBRANCH  27  28
ENDBRANCH   4  27
TORSDOF 5
ENDMDL
MODEL 10
REMARK VINA RESULT:      -8.5      5.845      9.964
REMARK  5 active torsions:
REMARK  status: ('A' for Active; 'I' for Inactive)
REMARK    1  A    between atoms: C_10  and  C_11 
REMARK    2  A    between atoms: C_13  and  O_14 
REMARK    3  A    between atoms: C_16  and  O_17 
REMARK    4  A    between atoms: O_17  and  C_18 
REMARK    5  A    between atoms: C_18  and  C_19 
ROOT
HETATM    1  C   UNL     1     -10.406   1.087 -33.512  1.00  0.00    -0.013 A 
HETATM    2  C   UNL     1      -9.511   2.063 -33.996  1.00  0.00     0.050 A 
HETATM    3  C   UNL     1      -8.128   1.905 -33.869  1.00  0.00     0.102 A 
HETATM    4  C   UNL     1      -7.634   0.730 -33.289  1.00  0.00     0.112 A 
HETATM    5  C   UNL     1      -8.495  -0.233 -32.768  1.00  0.00     0.041 A 
HETATM    6  C   UNL     1      -9.874  -0.058 -32.890  1.00  0.00     0.014 A 
ENDROOT
BRANCH   1   7
HETATM    7  C   UNL     1     -11.909   1.188 -33.711  1.00  0.00     0.219 C 
HETATM    8  N   UNL     1     -12.540   2.119 -32.796  1.00  0.00    -0.358 N 
HETATM    9  C   UNL     1     -12.831   3.371 -33.206  1.00  0.00     0.088 A 
HETATM   10  H   UNL     1     -12.403   1.915 -31.810  1.00  0.00     0.162 HD
HETATM   11  C   UNL     1     -12.807   3.756 -34.525  1.00  0.00     0.073 A 
HETATM   12  S   UNL     1     -13.242   4.647 -32.160  1.00  0.00    -0.074 SA
HETATM   13  C   UNL     1     -13.137   5.140 -34.683  1.00  0.00    -0.023 A 
HETATM   14  C   UNL     1     -12.477   2.773 -35.541  1.00  0.00     0.256 C 
HETATM   15  C   UNL     1     -13.387   5.736 -33.460  1.00  0.00     0.018 A 
HETATM   16  C   UNL     1     -13.201   5.916 -35.965  1.00  0.00     0.068 C 
HETATM   17  C   UNL     1     -13.772   7.162 -33.267  1.00  0.00     0.281 C 
HETATM   18  N   UNL     1     -13.455   7.968 -34.521  1.00  0.00    -0.070 N 
HETATM   19  C   UNL     1     -13.960   9.372 -34.427  1.00  0.00     0.270 C 
HETATM   20  H   UNL     1     -12.428   8.012 -34.577  1.00  0.00     0.279 HD
HETATM   21  C   UNL     1     -13.935   7.256 -35.784  1.00  0.00     0.239 C 
HETATM   22  N   UNL     1     -12.227   1.513 -35.079  1.00  0.00    -0.332 N 
HETATM   23  O   UNL     1     -12.455   3.042 -36.736  1.00  0.00    -0.267 OA
HETATM   24  H   UNL     1     -11.928   0.865 -35.793  1.00  0.00     0.165 HD
ENDBRANCH   1   7
BRANCH   3  25
HETATM   25  O   UNL     1      -7.195   2.807 -34.306  1.00  0.00    -0.353 OA
HETATM   26  C   UNL     1      -7.234   4.106 -33.732  1.00  0.00     0.210 C 
ENDBRANCH   3  25
BRANCH   4  27
HETATM   27  O   UNL     1      -6.238   0.590 -33.205  1.00  0.00    -0.272 OA
BRANCH  27  28
HETATM   28  C   UNL     1      -5.716   0.524 -31.930  1.00  0.00     0.300 C 
HETATM   29  O   UNL     1      -5.802  -0.366 -31.102  1.00  0.00    -0.259 OA
BRANCH  28  30
HETATM   30  C   UNL     1      -5.024   1.794 -31.683  1.00  0.00     0.061 A 
HETATM   31  C   UNL     1      -5.604   2.784 -30.883  1.00  0.00     0.051 A 
HETATM   32 CL   UNL     1      -7.152   2.584 -30.143  1.00  0.00    -0.083 Cl
HETATM   33  C   UNL     1      -4.932   3.991 -30.680  1.00  0.00     0.048 A 
HETATM   34  C   UNL     1      -3.692   4.201 -31.282  1.00  0.00     0.035 A 
HETATM   35 CL   UNL     1      -2.868   5.689 -31.031  1.00  0.00    -0.084 Cl
HETATM   36  C   UNL     1      -3.118   3.219 -32.091  1.00  0.00     0.025 A 
HETATM   37  C   UNL     1      -3.785   2.011 -32.298  1.00  0.00     0.021 A 
ENDBRANCH  28  30
ENDBRANCH  27  28
ENDBRANCH   4  27
TORSDOF 5
ENDMDL
