MODEL 1
REMARK VINA RESULT:      -8.7      0.000      0.000
REMARK  5 active torsions:
REMARK  status: ('A' for Active; 'I' for Inactive)
REMARK    1  A    between atoms: C_2  and  C_3 
REMARK    2  A    between atoms: C_8  and  C_9 
REMARK       I    between atoms: C_9  and  N_10 
REMARK    3  A    between atoms: N_10  and  C_11 
REMARK    4  A    between atoms: C_11  and  C_12 
REMARK    5  A    between atoms: C_19  and  C_20 
ROOT
HETATM    1  C   UNL     1      -5.460   0.352 -31.814  1.00  0.00     0.118 C 
HETATM    2  N   UNL     1      -6.707   0.735 -31.161  1.00  0.00    -0.366 N 
HETATM    3  C   UNL     1      -7.485   1.713 -31.677  1.00  0.00     0.123 C 
HETATM    4  N   UNL     1      -7.023   2.569 -32.643  1.00  0.00    -0.240 N 
HETATM    5  N   UNL     1      -7.990   3.335 -33.179  1.00  0.00    -0.165 NA
HETATM    6  C   UNL     1      -9.081   3.053 -32.431  1.00  0.00     0.148 C 
HETATM    7  C   UNL     1      -8.793   2.055 -31.461  1.00  0.00     0.088 C 
HETATM    8  C   UNL     1      -5.705   2.478 -33.247  1.00  0.00     0.221 C 
HETATM    9  C   UNL     1      -4.768   1.586 -32.408  1.00  0.00     0.066 C 
HETATM   10  H   UNL     1      -7.144  -0.013 -30.623  1.00  0.00     0.161 HD
ENDROOT
BRANCH   6  11
HETATM   11  C   UNL     1     -10.387   3.681 -32.679  1.00  0.00     0.272 C 
HETATM   12  N   UNL     1     -11.439   2.990 -32.128  1.00  0.00    -0.353 N 
HETATM   13  H   UNL     1     -11.219   2.062 -31.774  1.00  0.00     0.162 HD
HETATM   14  O   UNL     1     -10.517   4.729 -33.305  1.00  0.00    -0.266 OA
BRANCH  12  15
HETATM   15  C   UNL     1     -12.820   3.383 -32.307  1.00  0.00     0.155 C 
BRANCH  15  16
HETATM   16  C   UNL     1     -13.517   2.586 -33.411  1.00  0.00     0.139 C 
HETATM   17  O   UNL     1     -12.690   1.485 -33.839  1.00  0.00    -0.384 OA
HETATM   18  C   UNL     1     -13.550   0.407 -34.235  1.00  0.00     0.168 C 
HETATM   19  C   UNL     1     -14.978   0.828 -33.945  1.00  0.00     0.029 C 
HETATM   20  C   UNL     1     -14.809   1.942 -32.943  1.00  0.00     0.035 C 
ENDBRANCH  15  16
ENDBRANCH  12  15
ENDBRANCH   6  11
BRANCH   8  21
HETATM   21  C   UNL     1      -5.082   3.846 -33.417  1.00  0.00     0.409 C 
HETATM   22  F   UNL     1      -5.426   4.698 -32.423  1.00  0.00    -0.169 F 
HETATM   23  F   UNL     1      -3.725   3.738 -33.379  1.00  0.00    -0.169 F 
HETATM   24  F   UNL     1      -5.377   4.431 -34.596  1.00  0.00    -0.169 F 
ENDBRANCH   8  21
BRANCH   1  25
HETATM   25  C   UNL     1      -5.659  -0.794 -32.796  1.00  0.00    -0.035 A 
HETATM   26  C   UNL     1      -6.908  -1.119 -33.353  1.00  0.00     0.011 A 
HETATM   27  C   UNL     1      -7.043  -2.182 -34.252  1.00  0.00     0.024 A 
HETATM   28  C   UNL     1      -5.932  -2.939 -34.602  1.00  0.00     0.034 A 
HETATM   29  C   UNL     1      -4.683  -2.641 -34.065  1.00  0.00     0.024 A 
HETATM   30 CL   UNL     1      -6.099  -4.253 -35.699  1.00  0.00    -0.084 Cl
HETATM   31  C   UNL     1      -4.548  -1.573 -33.171  1.00  0.00     0.011 A 
ENDBRANCH   1  25
TORSDOF 5
ENDMDL
MODEL 2
REMARK VINA RESULT:      -8.6      3.684      6.816
REMARK  5 active torsions:
REMARK  status: ('A' for Active; 'I' for Inactive)
REMARK    1  A    between atoms: C_2  and  C_3 
REMARK    2  A    between atoms: C_8  and  C_9 
REMARK       I    between atoms: C_9  and  N_10 
REMARK    3  A    between atoms: N_10  and  C_11 
REMARK    4  A    between atoms: C_11  and  C_12 
REMARK    5  A    between atoms: C_19  and  C_20 
ROOT
HETATM    1  C   UNL     1      -7.283  -0.522 -35.022  1.00  0.00     0.118 C 
HETATM    2  N   UNL     1      -6.667   0.790 -35.184  1.00  0.00    -0.366 N 
HETATM    3  C   UNL     1      -6.615   1.661 -34.151  1.00  0.00     0.123 C 
HETATM    4  N   UNL     1      -7.368   1.483 -33.019  1.00  0.00    -0.240 N 
HETATM    5  N   UNL     1      -7.035   2.325 -32.024  1.00  0.00    -0.165 NA
HETATM    6  C   UNL     1      -6.133   3.158 -32.591  1.00  0.00     0.148 C 
HETATM    7  C   UNL     1      -5.864   2.785 -33.935  1.00  0.00     0.088 C 
HETATM    8  C   UNL     1      -8.229   0.337 -32.787  1.00  0.00     0.221 C 
HETATM    9  C   UNL     1      -8.503  -0.428 -34.096  1.00  0.00     0.066 C 
HETATM   10  H   UNL     1      -5.940   0.826 -35.898  1.00  0.00     0.161 HD
ENDROOT
BRANCH   6  11
HETATM   11  C   UNL     1      -5.496   4.253 -31.842  1.00  0.00     0.272 C 
HETATM   12  N   UNL     1      -4.125   4.253 -31.937  1.00  0.00    -0.353 N 
HETATM   13  H   UNL     1      -3.712   3.423 -32.355  1.00  0.00     0.162 HD
HETATM   14  O   UNL     1      -6.133   5.089 -31.210  1.00  0.00    -0.266 OA
BRANCH  12  15
HETATM   15  C   UNL     1      -3.287   5.192 -31.224  1.00  0.00     0.155 C 
BRANCH  15  16
HETATM   16  C   UNL     1      -2.122   5.702 -32.074  1.00  0.00     0.139 C 
HETATM   17  O   UNL     1      -1.902   4.834 -33.204  1.00  0.00    -0.384 OA
HETATM   18  C   UNL     1      -1.420   5.631 -34.294  1.00  0.00     0.168 C 
HETATM   19  C   UNL     1      -1.434   7.080 -33.845  1.00  0.00     0.029 C 
HETATM   20  C   UNL     1      -2.391   7.067 -32.679  1.00  0.00     0.035 C 
ENDBRANCH  15  16
ENDBRANCH  12  15
ENDBRANCH   6  11
BRANCH   8  21
HETATM   21  C   UNL     1      -9.542   0.754 -32.160  1.00  0.00     0.409 C 
HETATM   22  F   UNL     1     -10.517  -0.165 -32.346  1.00  0.00    -0.169 F 
HETATM   23  F   UNL     1      -9.384   0.882 -30.813  1.00  0.00    -0.169 F 
HETATM   24  F   UNL     1      -9.995   1.946 -32.599  1.00  0.00    -0.169 F 
ENDBRANCH   8  21
BRANCH   1  25
HETATM   25  C   UNL     1      -6.267  -1.584 -34.623  1.00  0.00    -0.035 A 
HETATM   26  C   UNL     1      -5.087  -1.290 -33.919  1.00  0.00     0.011 A 
HETATM   27  C   UNL     1      -4.182  -2.299 -33.574  1.00  0.00     0.024 A 
HETATM   28  C   UNL     1      -4.443  -3.616 -33.933  1.00  0.00     0.034 A 
HETATM   29  C   UNL     1      -5.603  -3.935 -34.632  1.00  0.00     0.024 A 
HETATM   30 CL   UNL     1      -3.325  -4.856 -33.519  1.00  0.00    -0.084 Cl
HETATM   31  C   UNL     1      -6.511  -2.926 -34.971  1.00  0.00     0.011 A 
ENDBRANCH   1  25
TORSDOF 5
ENDMDL
MODEL 3
REMARK VINA RESULT:      -8.6      5.964      8.632
REMARK  5 active torsions:
REMARK  status: ('A' for Active; 'I' for Inactive)
REMARK    1  A    between atoms: C_2  and  C_3 
REMARK    2  A    between atoms: C_8  and  C_9 
REMARK       I    between atoms: C_9  and  N_10 
REMARK    3  A    between atoms: N_10  and  C_11 
REMARK    4  A    between atoms: C_11  and  C_12 
REMARK    5  A    between atoms: C_19  and  C_20 
ROOT
HETATM    1  C   UNL     1      -2.972   7.229 -30.710  1.00  0.00     0.118 C 
HETATM    2  N   UNL     1      -3.918   6.148 -30.458  1.00  0.00    -0.366 N 
HETATM    3  C   UNL     1      -3.746   4.934 -31.030  1.00  0.00     0.123 C 
HETATM    4  N   UNL     1      -2.873   4.742 -32.068  1.00  0.00    -0.240 N 
HETATM    5  N   UNL     1      -2.683   3.445 -32.368  1.00  0.00    -0.165 NA
HETATM    6  C   UNL     1      -3.572   2.796 -31.582  1.00  0.00     0.148 C 
HETATM    7  C   UNL     1      -4.275   3.704 -30.746  1.00  0.00     0.088 C 
HETATM    8  C   UNL     1      -2.012   5.779 -32.609  1.00  0.00     0.221 C 
HETATM    9  C   UNL     1      -2.478   7.179 -32.161  1.00  0.00     0.066 C 
HETATM   10  H   UNL     1      -4.392   6.208 -29.557  1.00  0.00     0.161 HD
ENDROOT
BRANCH   6  11
HETATM   11  C   UNL     1      -3.703   1.331 -31.590  1.00  0.00     0.272 C 
HETATM   12  N   UNL     1      -4.905   0.892 -32.093  1.00  0.00    -0.353 N 
HETATM   13  H   UNL     1      -5.611   1.610 -32.233  1.00  0.00     0.162 HD
HETATM   14  O   UNL     1      -2.816   0.579 -31.199  1.00  0.00    -0.266 OA
BRANCH  12  15
HETATM   15  C   UNL     1      -5.281  -0.504 -32.127  1.00  0.00     0.155 C 
BRANCH  15  16
HETATM   16  C   UNL     1      -5.043  -1.141 -33.497  1.00  0.00     0.139 C 
HETATM   17  O   UNL     1      -4.072  -2.203 -33.400  1.00  0.00    -0.384 OA
HETATM   18  C   UNL     1      -4.402  -3.201 -34.376  1.00  0.00     0.168 C 
HETATM   19  C   UNL     1      -5.697  -2.781 -35.045  1.00  0.00     0.029 C 
HETATM   20  C   UNL     1      -6.287  -1.802 -34.060  1.00  0.00     0.035 C 
ENDBRANCH  15  16
ENDBRANCH  12  15
ENDBRANCH   6  11
BRANCH   8  21
HETATM   21  C   UNL     1      -1.964   5.722 -34.120  1.00  0.00     0.409 C 
HETATM   22  F   UNL     1      -3.041   5.096 -34.648  1.00  0.00    -0.169 F 
HETATM   23  F   UNL     1      -1.967   6.987 -34.625  1.00  0.00    -0.169 F 
HETATM   24  F   UNL     1      -0.853   5.130 -34.603  1.00  0.00    -0.169 F 
ENDBRANCH   8  21
BRANCH   1  25
HETATM   25  C   UNL     1      -1.864   7.274 -29.666  1.00  0.00    -0.035 A 
HETATM   26  C   UNL     1      -2.107   7.174 -28.286  1.00  0.00     0.011 A 
HETATM   27  C   UNL     1      -1.057   7.219 -27.363  1.00  0.00     0.024 A 
HETATM   28  C   UNL     1       0.250   7.371 -27.808  1.00  0.00     0.034 A 
HETATM   29  C   UNL     1       0.520   7.475 -29.169  1.00  0.00     0.024 A 
HETATM   30 CL   UNL     1       1.541   7.439 -26.673  1.00  0.00    -0.084 Cl
HETATM   31  C   UNL     1      -0.531   7.422 -30.092  1.00  0.00     0.011 A 
ENDBRANCH   1  25
TORSDOF 5
ENDMDL
MODEL 4
REMARK VINA RESULT:      -8.5      4.232      7.556
REMARK  5 active torsions:
REMARK  status: ('A' for Active; 'I' for Inactive)
REMARK    1  A    between atoms: C_2  and  C_3 
REMARK    2  A    between atoms: C_8  and  C_9 
REMARK       I    between atoms: C_9  and  N_10 
REMARK    3  A    between atoms: N_10  and  C_11 
REMARK    4  A    between atoms: C_11  and  C_12 
REMARK    5  A    between atoms: C_19  and  C_20 
ROOT
HETATM    1  C   UNL     1      -7.374   1.200 -33.258  1.00  0.00     0.118 C 
HETATM    2  N   UNL     1      -7.010   2.301 -34.143  1.00  0.00    -0.366 N 
HETATM    3  C   UNL     1      -6.056   3.190 -33.784  1.00  0.00     0.123 C 
HETATM    4  N   UNL     1      -5.600   3.277 -32.494  1.00  0.00    -0.240 N 
HETATM    5  N   UNL     1      -4.517   4.065 -32.368  1.00  0.00    -0.165 NA
HETATM    6  C   UNL     1      -4.363   4.606 -33.598  1.00  0.00     0.148 C 
HETATM    7  C   UNL     1      -5.329   4.096 -34.507  1.00  0.00     0.088 C 
HETATM    8  C   UNL     1      -6.033   2.404 -31.418  1.00  0.00     0.221 C 
HETATM    9  C   UNL     1      -7.328   1.656 -31.794  1.00  0.00     0.066 C 
HETATM   10  H   UNL     1      -7.158   2.108 -35.134  1.00  0.00     0.161 HD
ENDROOT
BRANCH   6  11
HETATM   11  C   UNL     1      -3.275   5.545 -33.911  1.00  0.00     0.272 C 
HETATM   12  N   UNL     1      -2.293   5.582 -32.949  1.00  0.00    -0.353 N 
HETATM   13  H   UNL     1      -2.510   5.104 -32.079  1.00  0.00     0.162 HD
HETATM   14  O   UNL     1      -3.245   6.215 -34.938  1.00  0.00    -0.266 OA
BRANCH  12  15
HETATM   15  C   UNL     1      -1.165   6.486 -33.011  1.00  0.00     0.155 C 
BRANCH  15  16
HETATM   16  C   UNL     1      -0.877   7.157 -31.668  1.00  0.00     0.139 C 
HETATM   17  O   UNL     1      -1.821   6.718 -30.670  1.00  0.00    -0.384 OA
HETATM   18  C   UNL     1      -1.157   6.710 -29.399  1.00  0.00     0.168 C 
HETATM   19  C   UNL     1       0.297   7.069 -29.637  1.00  0.00     0.029 C 
HETATM   20  C   UNL     1       0.483   6.784 -31.106  1.00  0.00     0.035 C 
ENDBRANCH  15  16
ENDBRANCH  12  15
ENDBRANCH   6  11
BRANCH   8  21
HETATM   21  C   UNL     1      -6.250   3.177 -30.135  1.00  0.00     0.409 C 
HETATM   22  F   UNL     1      -6.727   4.423 -30.357  1.00  0.00    -0.169 F 
HETATM   23  F   UNL     1      -7.178   2.539 -29.370  1.00  0.00    -0.169 F 
HETATM   24  F   UNL     1      -5.142   3.278 -29.372  1.00  0.00    -0.169 F 
ENDBRANCH   8  21
BRANCH   1  25
HETATM   25  C   UNL     1      -6.571  -0.060 -33.553  1.00  0.00    -0.035 A 
HETATM   26  C   UNL     1      -6.932  -0.983 -34.549  1.00  0.00     0.011 A 
HETATM   27  C   UNL     1      -6.163  -2.127 -34.786  1.00  0.00     0.024 A 
HETATM   28  C   UNL     1      -5.026  -2.367 -34.025  1.00  0.00     0.034 A 
HETATM   29  C   UNL     1      -4.646  -1.471 -33.030  1.00  0.00     0.024 A 
HETATM   30 CL   UNL     1      -4.086  -3.780 -34.307  1.00  0.00    -0.084 Cl
HETATM   31  C   UNL     1      -5.412  -0.323 -32.799  1.00  0.00     0.011 A 
ENDBRANCH   1  25
TORSDOF 5
ENDMDL
MODEL 5
REMARK VINA RESULT:      -8.3      4.167      7.816
REMARK  5 active torsions:
REMARK  status: ('A' for Active; 'I' for Inactive)
REMARK    1  A    between atoms: C_2  and  C_3 
REMARK    2  A    between atoms: C_8  and  C_9 
REMARK       I    between atoms: C_9  and  N_10 
REMARK    3  A    between atoms: N_10  and  C_11 
REMARK    4  A    between atoms: C_11  and  C_12 
REMARK    5  A    between atoms: C_19  and  C_20 
ROOT
HETATM    1  C   UNL     1      -9.698   0.469 -32.191  1.00  0.00     0.118 C 
HETATM    2  N   UNL     1      -8.852   1.071 -31.165  1.00  0.00    -0.366 N 
HETATM    3  C   UNL     1      -7.539   1.295 -31.398  1.00  0.00     0.123 C 
HETATM    4  N   UNL     1      -6.886   0.725 -32.460  1.00  0.00    -0.240 N 
HETATM    5  N   UNL     1      -5.650   1.220 -32.649  1.00  0.00    -0.165 NA
HETATM    6  C   UNL     1      -5.459   2.035 -31.587  1.00  0.00     0.148 C 
HETATM    7  C   UNL     1      -6.618   2.086 -30.766  1.00  0.00     0.088 C 
HETATM    8  C   UNL     1      -7.533  -0.105 -33.460  1.00  0.00     0.221 C 
HETATM    9  C   UNL     1      -8.913  -0.590 -32.975  1.00  0.00     0.066 C 
HETATM   10  H   UNL     1      -9.350   1.679 -30.515  1.00  0.00     0.161 HD
ENDROOT
BRANCH   6  11
HETATM   11  C   UNL     1      -4.215   2.795 -31.394  1.00  0.00     0.272 C 
HETATM   12  N   UNL     1      -4.409   4.156 -31.344  1.00  0.00    -0.353 N 
HETATM   13  H   UNL     1      -5.336   4.478 -31.612  1.00  0.00     0.162 HD
HETATM   14  O   UNL     1      -3.117   2.262 -31.275  1.00  0.00    -0.266 OA
BRANCH  12  15
HETATM   15  C   UNL     1      -3.321   5.102 -31.235  1.00  0.00     0.155 C 
BRANCH  15  16
HETATM   16  C   UNL     1      -2.899   5.669 -32.591  1.00  0.00     0.139 C 
HETATM   17  O   UNL     1      -2.847   7.109 -32.544  1.00  0.00    -0.384 OA
HETATM   18  C   UNL     1      -1.813   7.549 -33.436  1.00  0.00     0.168 C 
HETATM   19  C   UNL     1      -1.126   6.315 -33.988  1.00  0.00     0.029 C 
HETATM   20  C   UNL     1      -1.500   5.243 -32.995  1.00  0.00     0.035 C 
ENDBRANCH  15  16
ENDBRANCH  12  15
ENDBRANCH   6  11
BRANCH   8  21
HETATM   21  C   UNL     1      -6.676  -1.299 -33.822  1.00  0.00     0.409 C 
HETATM   22  F   UNL     1      -5.738  -1.565 -32.883  1.00  0.00    -0.169 F 
HETATM   23  F   UNL     1      -7.457  -2.411 -33.912  1.00  0.00    -0.169 F 
HETATM   24  F   UNL     1      -6.058  -1.178 -35.014  1.00  0.00    -0.169 F 
ENDBRANCH   8  21
BRANCH   1  25
HETATM   25  C   UNL     1     -10.381   1.519 -33.056  1.00  0.00    -0.035 A 
HETATM   26  C   UNL     1     -10.087   2.891 -32.971  1.00  0.00     0.011 A 
HETATM   27  C   UNL     1     -10.740   3.821 -33.787  1.00  0.00     0.024 A 
HETATM   28  C   UNL     1     -11.700   3.391 -34.695  1.00  0.00     0.034 A 
HETATM   29  C   UNL     1     -12.012   2.039 -34.799  1.00  0.00     0.024 A 
HETATM   30 CL   UNL     1     -12.511   4.535 -35.691  1.00  0.00    -0.084 Cl
HETATM   31  C   UNL     1     -11.353   1.110 -33.987  1.00  0.00     0.011 A 
ENDBRANCH   1  25
TORSDOF 5
ENDMDL
MODEL 6
REMARK VINA RESULT:      -8.1      5.669      8.542
REMARK  5 active torsions:
REMARK  status: ('A' for Active; 'I' for Inactive)
REMARK    1  A    between atoms: C_2  and  C_3 
REMARK    2  A    between atoms: C_8  and  C_9 
REMARK       I    between atoms: C_9  and  N_10 
REMARK    3  A    between atoms: N_10  and  C_11 
REMARK    4  A    between atoms: C_11  and  C_12 
REMARK    5  A    between atoms: C_19  and  C_20 
ROOT
HETATM    1  C   UNL     1      -2.410   8.203 -31.576  1.00  0.00     0.118 C 
HETATM    2  N   UNL     1      -3.719   7.699 -31.174  1.00  0.00    -0.366 N 
HETATM    3  C   UNL     1      -4.054   6.405 -31.380  1.00  0.00     0.123 C 
HETATM    4  N   UNL     1      -3.324   5.594 -32.210  1.00  0.00    -0.240 N 
HETATM    5  N   UNL     1      -3.679   4.299 -32.132  1.00  0.00    -0.165 NA
HETATM    6  C   UNL     1      -4.765   4.308 -31.325  1.00  0.00     0.148 C 
HETATM    7  C   UNL     1      -5.043   5.619 -30.854  1.00  0.00     0.088 C 
HETATM    8  C   UNL     1      -2.108   6.008 -32.887  1.00  0.00     0.221 C 
HETATM    9  C   UNL     1      -1.964   7.542 -32.887  1.00  0.00     0.066 C 
HETATM   10  H   UNL     1      -4.137   8.199 -30.390  1.00  0.00     0.161 HD
ENDROOT
BRANCH   6  11
HETATM   11  C   UNL     1      -5.484   3.077 -30.965  1.00  0.00     0.272 C 
HETATM   12  N   UNL     1      -5.908   2.353 -32.054  1.00  0.00    -0.353 N 
HETATM   13  H   UNL     1      -5.832   2.824 -32.952  1.00  0.00     0.162 HD
HETATM   14  O   UNL     1      -5.672   2.727 -29.804  1.00  0.00    -0.266 OA
BRANCH  12  15
HETATM   15  C   UNL     1      -6.698   1.147 -31.939  1.00  0.00     0.155 C 
BRANCH  15  16
HETATM   16  C   UNL     1      -5.880  -0.118 -32.207  1.00  0.00     0.139 C 
HETATM   17  O   UNL     1      -6.604  -1.015 -33.073  1.00  0.00    -0.384 OA
HETATM   18  C   UNL     1      -5.653  -1.728 -33.875  1.00  0.00     0.168 C 
HETATM   19  C   UNL     1      -4.277  -1.174 -33.557  1.00  0.00     0.029 C 
HETATM   20  C   UNL     1      -4.583   0.167 -32.941  1.00  0.00     0.035 C 
ENDBRANCH  15  16
ENDBRANCH  12  15
ENDBRANCH   6  11
BRANCH   8  21
HETATM   21  C   UNL     1      -2.071   5.497 -34.311  1.00  0.00     0.409 C 
HETATM   22  F   UNL     1      -0.996   5.952 -34.995  1.00  0.00    -0.169 F 
HETATM   23  F   UNL     1      -1.978   4.138 -34.307  1.00  0.00    -0.169 F 
HETATM   24  F   UNL     1      -3.179   5.793 -35.020  1.00  0.00    -0.169 F 
ENDBRANCH   8  21
BRANCH   1  25
HETATM   25  C   UNL     1      -1.393   8.115 -30.446  1.00  0.00    -0.035 A 
HETATM   26  C   UNL     1      -0.271   7.269 -30.488  1.00  0.00     0.011 A 
HETATM   27  C   UNL     1       0.638   7.222 -29.426  1.00  0.00     0.024 A 
HETATM   28  C   UNL     1       0.434   8.017 -28.305  1.00  0.00     0.034 A 
HETATM   29  C   UNL     1      -0.669   8.863 -28.236  1.00  0.00     0.024 A 
HETATM   30 CL   UNL     1       1.545   7.951 -26.993  1.00  0.00    -0.084 Cl
HETATM   31  C   UNL     1      -1.573   8.914 -29.302  1.00  0.00     0.011 A 
ENDBRANCH   1  25
TORSDOF 5
ENDMDL
MODEL 7
REMARK VINA RESULT:      -8.0      4.501      8.321
REMARK  5 active torsions:
REMARK  status: ('A' for Active; 'I' for Inactive)
REMARK    1  A    between atoms: C_2  and  C_3 
REMARK    2  A    between atoms: C_8  and  C_9 
REMARK       I    between atoms: C_9  and  N_10 
REMARK    3  A    between atoms: N_10  and  C_11 
REMARK    4  A    between atoms: C_11  and  C_12 
REMARK    5  A    between atoms: C_19  and  C_20 
ROOT
HETATM    1  C   UNL     1      -9.048   1.561 -31.694  1.00  0.00     0.118 C 
HETATM    2  N   UNL     1      -8.164   2.595 -31.168  1.00  0.00    -0.366 N 
HETATM    3  C   UNL     1      -6.938   2.794 -31.705  1.00  0.00     0.123 C 
HETATM    4  N   UNL     1      -6.363   1.879 -32.549  1.00  0.00    -0.240 N 
HETATM    5  N   UNL     1      -5.246   2.336 -33.142  1.00  0.00    -0.165 NA
HETATM    6  C   UNL     1      -5.028   3.532 -32.549  1.00  0.00     0.148 C 
HETATM    7  C   UNL     1      -6.060   3.840 -31.622  1.00  0.00     0.088 C 
HETATM    8  C   UNL     1      -7.017   0.663 -32.997  1.00  0.00     0.221 C 
HETATM    9  C   UNL     1      -8.238   0.330 -32.116  1.00  0.00     0.066 C 
HETATM   10  H   UNL     1      -8.649   3.383 -30.738  1.00  0.00     0.161 HD
ENDROOT
BRANCH   6  11
HETATM   11  C   UNL     1      -3.888   4.389 -32.907  1.00  0.00     0.272 C 
HETATM   12  N   UNL     1      -2.721   4.041 -32.268  1.00  0.00    -0.353 N 
HETATM   13  H   UNL     1      -2.817   3.366 -31.513  1.00  0.00     0.162 HD
HETATM   14  O   UNL     1      -3.971   5.312 -33.711  1.00  0.00    -0.266 OA
BRANCH  12  15
HETATM   15  C   UNL     1      -1.492   4.790 -32.411  1.00  0.00     0.155 C 
BRANCH  15  16
HETATM   16  C   UNL     1      -1.078   5.491 -31.117  1.00  0.00     0.139 C 
HETATM   17  O   UNL     1      -0.272   4.616 -30.302  1.00  0.00    -0.384 OA
HETATM   18  C   UNL     1       0.667   5.420 -29.575  1.00  0.00     0.168 C 
HETATM   19  C   UNL     1       0.497   6.855 -30.035  1.00  0.00     0.029 C 
HETATM   20  C   UNL     1      -0.204   6.707 -31.362  1.00  0.00     0.035 C 
ENDBRANCH  15  16
ENDBRANCH  12  15
ENDBRANCH   6  11
BRANCH   8  21
HETATM   21  C   UNL     1      -6.059  -0.508 -32.998  1.00  0.00     0.409 C 
HETATM   22  F   UNL     1      -6.668  -1.673 -33.320  1.00  0.00    -0.169 F 
HETATM   23  F   UNL     1      -5.093  -0.307 -33.936  1.00  0.00    -0.169 F 
HETATM   24  F   UNL     1      -5.413  -0.679 -31.827  1.00  0.00    -0.169 F 
ENDBRANCH   8  21
BRANCH   1  25
HETATM   25  C   UNL     1      -9.982   2.102 -32.768  1.00  0.00    -0.035 A 
HETATM   26  C   UNL     1     -10.216   3.474 -32.962  1.00  0.00     0.011 A 
HETATM   27  C   UNL     1     -11.083   3.925 -33.962  1.00  0.00     0.024 A 
HETATM   28  C   UNL     1     -11.733   3.009 -34.780  1.00  0.00     0.034 A 
HETATM   29  C   UNL     1     -11.522   1.644 -34.609  1.00  0.00     0.024 A 
HETATM   30 CL   UNL     1     -12.808   3.562 -36.003  1.00  0.00    -0.084 Cl
HETATM   31  C   UNL     1     -10.649   1.195 -33.613  1.00  0.00     0.011 A 
ENDBRANCH   1  25
TORSDOF 5
ENDMDL
MODEL 8
REMARK VINA RESULT:      -8.0      4.900      8.318
REMARK  5 active torsions:
REMARK  status: ('A' for Active; 'I' for Inactive)
REMARK    1  A    between atoms: C_2  and  C_3 
REMARK    2  A    between atoms: C_8  and  C_9 
REMARK       I    between atoms: C_9  and  N_10 
REMARK    3  A    between atoms: N_10  and  C_11 
REMARK    4  A    between atoms: C_11  and  C_12 
REMARK    5  A    between atoms: C_19  and  C_20 
ROOT
HETATM    1  C   UNL     1      -7.349   0.456 -31.035  1.00  0.00     0.118 C 
HETATM    2  N   UNL     1      -6.656   1.510 -30.303  1.00  0.00    -0.366 N 
HETATM    3  C   UNL     1      -5.479   2.004 -30.752  1.00  0.00     0.123 C 
HETATM    4  N   UNL     1      -4.753   1.365 -31.723  1.00  0.00    -0.240 N 
HETATM    5  N   UNL     1      -3.726   2.100 -32.186  1.00  0.00    -0.165 NA
HETATM    6  C   UNL     1      -3.718   3.189 -31.383  1.00  0.00     0.148 C 
HETATM    7  C   UNL     1      -4.792   3.149 -30.454  1.00  0.00     0.088 C 
HETATM    8  C   UNL     1      -5.188   0.158 -32.402  1.00  0.00     0.221 C 
HETATM    9  C   UNL     1      -6.338  -0.527 -31.639  1.00  0.00     0.066 C 
HETATM   10  H   UNL     1      -7.271   2.115 -29.759  1.00  0.00     0.161 HD
ENDROOT
BRANCH   6  11
HETATM   11  C   UNL     1      -2.738   4.275 -31.543  1.00  0.00     0.272 C 
HETATM   12  N   UNL     1      -3.045   5.398 -30.812  1.00  0.00    -0.353 N 
HETATM   13  H   UNL     1      -3.973   5.414 -30.398  1.00  0.00     0.162 HD
HETATM   14  O   UNL     1      -1.739   4.175 -32.248  1.00  0.00    -0.266 OA
BRANCH  12  15
HETATM   15  C   UNL     1      -2.263   6.614 -30.873  1.00  0.00     0.155 C 
BRANCH  15  16
HETATM   16  C   UNL     1      -1.552   6.920 -29.554  1.00  0.00     0.139 C 
HETATM   17  O   UNL     1      -0.167   6.525 -29.622  1.00  0.00    -0.384 OA
HETATM   18  C   UNL     1       0.596   7.424 -28.805  1.00  0.00     0.168 C 
HETATM   19  C   UNL     1      -0.352   8.487 -28.283  1.00  0.00     0.029 C 
HETATM   20  C   UNL     1      -1.517   8.403 -29.237  1.00  0.00     0.035 C 
ENDBRANCH  15  16
ENDBRANCH  12  15
ENDBRANCH   6  11
BRANCH   8  21
HETATM   21  C   UNL     1      -4.044  -0.818 -32.576  1.00  0.00     0.409 C 
HETATM   22  F   UNL     1      -4.472  -2.068 -32.869  1.00  0.00    -0.169 F 
HETATM   23  F   UNL     1      -3.262  -0.424 -33.620  1.00  0.00    -0.169 F 
HETATM   24  F   UNL     1      -3.229  -0.891 -31.505  1.00  0.00    -0.169 F 
ENDBRANCH   8  21
BRANCH   1  25
HETATM   25  C   UNL     1      -8.356   1.018 -32.030  1.00  0.00    -0.035 A 
HETATM   26  C   UNL     1      -9.425   0.265 -32.546  1.00  0.00     0.011 A 
HETATM   27  C   UNL     1     -10.326   0.824 -33.459  1.00  0.00     0.024 A 
HETATM   28  C   UNL     1     -10.167   2.141 -33.871  1.00  0.00     0.034 A 
HETATM   29  C   UNL     1      -9.116   2.908 -33.377  1.00  0.00     0.024 A 
HETATM   30 CL   UNL     1     -11.268   2.825 -35.002  1.00  0.00    -0.084 Cl
HETATM   31  C   UNL     1      -8.220   2.351 -32.459  1.00  0.00     0.011 A 
ENDBRANCH   1  25
TORSDOF 5
ENDMDL
MODEL 9
REMARK VINA RESULT:      -7.9      4.862      8.458
REMARK  5 active torsions:
REMARK  status: ('A' for Active; 'I' for Inactive)
REMARK    1  A    between atoms: C_2  and  C_3 
REMARK    2  A    between atoms: C_8  and  C_9 
REMARK       I    between atoms: C_9  and  N_10 
REMARK    3  A    between atoms: N_10  and  C_11 
REMARK    4  A    between atoms: C_11  and  C_12 
REMARK    5  A    between atoms: C_19  and  C_20 
ROOT
HETATM    1  C   UNL     1      -7.570   3.153 -33.625  1.00  0.00     0.118 C 
HETATM    2  N   UNL     1      -6.419   3.877 -34.154  1.00  0.00    -0.366 N 
HETATM    3  C   UNL     1      -5.374   4.191 -33.354  1.00  0.00     0.123 C 
HETATM    4  N   UNL     1      -5.460   4.108 -31.989  1.00  0.00    -0.240 N 
HETATM    5  N   UNL     1      -4.273   4.257 -31.374  1.00  0.00    -0.165 NA
HETATM    6  C   UNL     1      -3.426   4.583 -32.377  1.00  0.00     0.148 C 
HETATM    7  C   UNL     1      -4.090   4.575 -33.633  1.00  0.00     0.088 C 
HETATM    8  C   UNL     1      -6.629   3.625 -31.276  1.00  0.00     0.221 C 
HETATM    9  C   UNL     1      -7.870   3.603 -32.190  1.00  0.00     0.066 C 
HETATM   10  H   UNL     1      -6.254   3.731 -35.150  1.00  0.00     0.161 HD
ENDROOT
BRANCH   6  11
HETATM   11  C   UNL     1      -1.996   4.837 -32.144  1.00  0.00     0.272 C 
HETATM   12  N   UNL     1      -1.654   4.854 -30.813  1.00  0.00    -0.353 N 
HETATM   13  H   UNL     1      -2.433   4.863 -30.159  1.00  0.00     0.162 HD
HETATM   14  O   UNL     1      -1.189   5.001 -33.054  1.00  0.00    -0.266 OA
BRANCH  12  15
HETATM   15  C   UNL     1      -0.319   5.158 -30.347  1.00  0.00     0.155 C 
BRANCH  15  16
HETATM   16  C   UNL     1      -0.302   6.276 -29.304  1.00  0.00     0.139 C 
HETATM   17  O   UNL     1       0.211   5.789 -28.047  1.00  0.00    -0.384 OA
HETATM   18  C   UNL     1       0.899   6.866 -27.397  1.00  0.00     0.168 C 
HETATM   19  C   UNL     1       0.894   8.052 -28.342  1.00  0.00     0.029 C 
HETATM   20  C   UNL     1       0.622   7.418 -29.683  1.00  0.00     0.035 C 
ENDBRANCH  15  16
ENDBRANCH  12  15
ENDBRANCH   6  11
BRANCH   8  21
HETATM   21  C   UNL     1      -6.916   4.470 -30.054  1.00  0.00     0.409 C 
HETATM   22  F   UNL     1      -6.697   5.787 -30.273  1.00  0.00    -0.169 F 
HETATM   23  F   UNL     1      -8.229   4.349 -29.713  1.00  0.00    -0.169 F 
HETATM   24  F   UNL     1      -6.211   4.101 -28.964  1.00  0.00    -0.169 F 
ENDBRANCH   8  21
BRANCH   1  25
HETATM   25  C   UNL     1      -7.426   1.647 -33.799  1.00  0.00    -0.035 A 
HETATM   26  C   UNL     1      -6.403   1.058 -34.561  1.00  0.00     0.011 A 
HETATM   27  C   UNL     1      -6.309  -0.331 -34.692  1.00  0.00     0.024 A 
HETATM   28  C   UNL     1      -7.242  -1.150 -34.068  1.00  0.00     0.034 A 
HETATM   29  C   UNL     1      -8.267  -0.594 -33.309  1.00  0.00     0.024 A 
HETATM   30 CL   UNL     1      -7.134  -2.858 -34.239  1.00  0.00    -0.084 Cl
HETATM   31  C   UNL     1      -8.355   0.796 -33.172  1.00  0.00     0.011 A 
ENDBRANCH   1  25
TORSDOF 5
ENDMDL
MODEL 10
REMARK VINA RESULT:      -7.9      5.584      7.924
REMARK  5 active torsions:
REMARK  status: ('A' for Active; 'I' for Inactive)
REMARK    1  A    between atoms: C_2  and  C_3 
REMARK    2  A    between atoms: C_8  and  C_9 
REMARK       I    between atoms: C_9  and  N_10 
REMARK    3  A    between atoms: N_10  and  C_11 
REMARK    4  A    between atoms: C_11  and  C_12 
REMARK    5  A    between atoms: C_19  and  C_20 
ROOT
HETATM    1  C   UNL     1      -2.412   8.149 -31.581  1.00  0.00     0.118 C 
HETATM    2  N   UNL     1      -3.721   7.636 -31.192  1.00  0.00    -0.366 N 
HETATM    3  C   UNL     1      -4.047   6.342 -31.411  1.00  0.00     0.123 C 
HETATM    4  N   UNL     1      -3.307   5.541 -32.242  1.00  0.00    -0.240 N 
HETATM    5  N   UNL     1      -3.657   4.244 -32.177  1.00  0.00    -0.165 NA
HETATM    6  C   UNL     1      -4.749   4.241 -31.378  1.00  0.00     0.148 C 
HETATM    7  C   UNL     1      -5.037   5.547 -30.899  1.00  0.00     0.088 C 
HETATM    8  C   UNL     1      -2.089   5.966 -32.907  1.00  0.00     0.221 C 
HETATM    9  C   UNL     1      -1.953   7.501 -32.893  1.00  0.00     0.066 C 
HETATM   10  H   UNL     1      -4.147   8.128 -30.407  1.00  0.00     0.161 HD
ENDROOT
BRANCH   6  11
HETATM   11  C   UNL     1      -5.464   3.003 -31.033  1.00  0.00     0.272 C 
HETATM   12  N   UNL     1      -6.057   2.395 -32.114  1.00  0.00    -0.353 N 
HETATM   13  H   UNL     1      -6.080   2.944 -32.970  1.00  0.00     0.162 HD
HETATM   14  O   UNL     1      -5.511   2.554 -29.892  1.00  0.00    -0.266 OA
BRANCH  12  15
HETATM   15  C   UNL     1      -6.874   1.207 -31.999  1.00  0.00     0.155 C 
BRANCH  15  16
HETATM   16  C   UNL     1      -8.350   1.481 -32.290  1.00  0.00     0.139 C 
HETATM   17  O   UNL     1      -8.488   2.358 -33.425  1.00  0.00    -0.384 OA
HETATM   18  C   UNL     1      -9.700   2.015 -34.111  1.00  0.00     0.168 C 
HETATM   19  C   UNL     1     -10.292   0.801 -33.421  1.00  0.00     0.029 C 
HETATM   20  C   UNL     1      -9.115   0.227 -32.672  1.00  0.00     0.035 C 
ENDBRANCH  15  16
ENDBRANCH  12  15
ENDBRANCH   6  11
BRANCH   8  21
HETATM   21  C   UNL     1      -2.039   5.467 -34.335  1.00  0.00     0.409 C 
HETATM   22  F   UNL     1      -3.137   5.816 -35.043  1.00  0.00    -0.169 F 
HETATM   23  F   UNL     1      -0.974   6.024 -34.976  1.00  0.00    -0.169 F 
HETATM   24  F   UNL     1      -1.878   4.132 -34.435  1.00  0.00    -0.169 F 
ENDBRANCH   8  21
BRANCH   1  25
HETATM   25  C   UNL     1      -1.402   8.058 -30.444  1.00  0.00    -0.035 A 
HETATM   26  C   UNL     1      -0.261   7.239 -30.497  1.00  0.00     0.011 A 
HETATM   27  C   UNL     1       0.640   7.187 -29.428  1.00  0.00     0.024 A 
HETATM   28  C   UNL     1       0.408   7.950 -28.290  1.00  0.00     0.034 A 
HETATM   29  C   UNL     1      -0.714   8.768 -28.210  1.00  0.00     0.024 A 
HETATM   30 CL   UNL     1       1.510   7.878 -26.970  1.00  0.00    -0.084 Cl
HETATM   31  C   UNL     1      -1.611   8.825 -29.283  1.00  0.00     0.011 A 
ENDBRANCH   1  25
TORSDOF 5
ENDMDL
