MODEL 1
REMARK VINA RESULT:      -7.8      0.000      0.000
REMARK  9 active torsions:
REMARK  status: ('A' for Active; 'I' for Inactive)
REMARK    1  A    between atoms: C_6  and  C_7 
REMARK    2  A    between atoms: C_7  and  C_8 
REMARK       I    between atoms: C_8  and  N_9 
REMARK    3  A    between atoms: N_9  and  C_10 
REMARK    4  A    between atoms: C_10  and  C_11 
REMARK    5  A    between atoms: C_11  and  N_12 
REMARK    6  A    between atoms: C_19  and  C_20 
REMARK    7  A    between atoms: C_29  and  C_30 
REMARK    8  A    between atoms: C_30  and  O_31 
REMARK    9  A    between atoms: O_31  and  C_32 
ROOT
HETATM    1  C   UNL     1      -2.121   5.054 -34.832  1.00  0.00     0.071 C 
HETATM    2  C   UNL     1      -3.152   5.597 -33.869  1.00  0.00     0.048 C 
HETATM    3  N   UNL     1      -4.458   5.595 -34.389  1.00  0.00    -0.229 NA
HETATM    4  C   UNL     1      -5.401   5.356 -33.532  1.00  0.00     0.170 C 
HETATM    5  N   UNL     1      -5.131   5.363 -31.990  1.00  0.00    -0.318 N 
HETATM    6  C   UNL     1      -5.579   4.237 -31.532  1.00  0.00     0.011 C 
HETATM    7  C   UNL     1      -4.080   6.372 -31.761  1.00  0.00     0.168 C 
HETATM    8  S   UNL     1      -6.918   4.618 -33.879  1.00  0.00    -0.086 SA
HETATM    9  C   UNL     1      -6.760   3.666 -32.310  1.00  0.00     0.135 C 
HETATM   10  C   UNL     1      -2.911   5.849 -32.553  1.00  0.00     0.069 C 
ENDROOT
BRANCH   6  11
HETATM   11  C   UNL     1      -4.805   3.491 -30.486  1.00  0.00     0.156 C 
BRANCH  11  12
HETATM   12  C   UNL     1      -4.723   2.000 -30.703  1.00  0.00     0.223 C 
HETATM   13  N   UNL     1      -3.629   1.563 -31.418  1.00  0.00    -0.359 N 
HETATM   14  H   UNL     1      -2.918   2.221 -31.729  1.00  0.00     0.162 HD
HETATM   15  O   UNL     1      -5.598   1.244 -30.302  1.00  0.00    -0.273 OA
BRANCH  13  16
HETATM   16  C   UNL     1      -3.394   0.142 -31.657  1.00  0.00     0.150 C 
BRANCH  16  17
HETATM   17  C   UNL     1      -3.903  -0.301 -33.041  1.00  0.00     0.254 C 
BRANCH  17  18
HETATM   18  N   UNL     1      -4.877  -1.453 -32.957  1.00  0.00    -0.070 N 
HETATM   19  H   UNL     1      -4.861  -1.842 -32.004  1.00  0.00     0.279 HD
HETATM   20  C   UNL     1      -4.578  -2.593 -33.924  1.00  0.00     0.235 C 
HETATM   21  C   UNL     1      -5.672  -2.497 -34.966  1.00  0.00     0.029 C 
HETATM   22  C   UNL     1      -6.877  -2.077 -34.153  1.00  0.00     0.029 C 
HETATM   23  C   UNL     1      -6.317  -1.016 -33.229  1.00  0.00     0.235 C 
ENDBRANCH  17  18
ENDBRANCH  16  17
ENDBRANCH  13  16
ENDBRANCH  11  12
ENDBRANCH   6  11
BRANCH   7  24
HETATM   24  C   UNL     1      -3.912   7.126 -30.446  1.00  0.00    -0.009 A 
HETATM   25  C   UNL     1      -3.161   8.295 -30.216  1.00  0.00     0.042 A 
HETATM   26 CL   UNL     1      -2.244   9.102 -31.436  1.00  0.00    -0.084 Cl
HETATM   27  C   UNL     1      -3.027   8.833 -28.925  1.00  0.00     0.024 A 
HETATM   28  C   UNL     1      -3.571   8.188 -27.820  1.00  0.00     0.002 A 
HETATM   29  C   UNL     1      -4.230   6.983 -27.996  1.00  0.00     0.001 A 
HETATM   30  C   UNL     1      -4.382   6.459 -29.281  1.00  0.00     0.011 A 
ENDBRANCH   7  24
BRANCH  10  31
HETATM   31  C   UNL     1      -1.852   5.064 -31.871  1.00  0.00     0.294 C 
HETATM   32  O   UNL     1      -2.002   3.873 -31.630  1.00  0.00    -0.259 OA
BRANCH  31  33
HETATM   33  O   UNL     1      -0.916   5.863 -31.333  1.00  0.00    -0.313 OA
BRANCH  33  34
HETATM   34  C   UNL     1      -0.177   5.360 -30.197  1.00  0.00     0.124 C 
HETATM   35  C   UNL     1       1.203   4.923 -30.658  1.00  0.00     0.040 C 
HETATM   36  C   UNL     1      -0.091   6.486 -29.173  1.00  0.00     0.040 C 
ENDBRANCH  33  34
ENDBRANCH  31  33
ENDBRANCH  10  31
TORSDOF 9
ENDMDL
MODEL 2
REMARK VINA RESULT:      -7.5      3.001      8.103
REMARK  9 active torsions:
REMARK  status: ('A' for Active; 'I' for Inactive)
REMARK    1  A    between atoms: C_6  and  C_7 
REMARK    2  A    between atoms: C_7  and  C_8 
REMARK       I    between atoms: C_8  and  N_9 
REMARK    3  A    between atoms: N_9  and  C_10 
REMARK    4  A    between atoms: C_10  and  C_11 
REMARK    5  A    between atoms: C_11  and  N_12 
REMARK    6  A    between atoms: C_19  and  C_20 
REMARK    7  A    between atoms: C_29  and  C_30 
REMARK    8  A    between atoms: C_30  and  O_31 
REMARK    9  A    between atoms: O_31  and  C_32 
ROOT
HETATM    1  C   UNL     1      -7.476   5.582 -32.573  1.00  0.00     0.071 C 
HETATM    2  C   UNL     1      -6.430   4.625 -33.097  1.00  0.00     0.048 C 
HETATM    3  N   UNL     1      -5.751   5.105 -34.231  1.00  0.00    -0.229 NA
HETATM    4  C   UNL     1      -4.499   4.776 -34.315  1.00  0.00     0.170 C 
HETATM    5  N   UNL     1      -3.872   3.686 -33.382  1.00  0.00    -0.318 N 
HETATM    6  C   UNL     1      -2.827   4.224 -32.836  1.00  0.00     0.011 C 
HETATM    7  C   UNL     1      -4.942   2.704 -33.121  1.00  0.00     0.168 C 
HETATM    8  S   UNL     1      -3.265   5.687 -35.098  1.00  0.00    -0.086 SA
HETATM    9  C   UNL     1      -2.141   5.280 -33.696  1.00  0.00     0.135 C 
HETATM   10  C   UNL     1      -6.005   3.517 -32.431  1.00  0.00     0.069 C 
ENDROOT
BRANCH   6  11
HETATM   11  C   UNL     1      -2.522   3.971 -31.390  1.00  0.00     0.156 C 
BRANCH  11  12
HETATM   12  C   UNL     1      -1.429   4.836 -30.813  1.00  0.00     0.223 C 
HETATM   13  N   UNL     1      -1.852   5.983 -30.177  1.00  0.00    -0.359 N 
HETATM   14  H   UNL     1      -2.845   6.185 -30.081  1.00  0.00     0.162 HD
HETATM   15  O   UNL     1      -0.246   4.549 -30.945  1.00  0.00    -0.273 OA
BRANCH  13  16
HETATM   16  C   UNL     1      -0.907   6.886 -29.526  1.00  0.00     0.150 C 
BRANCH  16  17
HETATM   17  C   UNL     1      -1.594   7.781 -28.479  1.00  0.00     0.254 C 
BRANCH  17  18
HETATM   18  N   UNL     1      -0.733   8.006 -27.257  1.00  0.00    -0.070 N 
HETATM   19  H   UNL     1      -1.337   8.089 -26.427  1.00  0.00     0.279 HD
HETATM   20  C   UNL     1       0.128   9.263 -27.326  1.00  0.00     0.235 C 
HETATM   21  C   UNL     1       1.537   8.742 -27.512  1.00  0.00     0.029 C 
HETATM   22  C   UNL     1       1.547   7.487 -26.666  1.00  0.00     0.029 C 
HETATM   23  C   UNL     1       0.218   6.839 -26.994  1.00  0.00     0.235 C 
ENDBRANCH  17  18
ENDBRANCH  16  17
ENDBRANCH  13  16
ENDBRANCH  11  12
ENDBRANCH   6  11
BRANCH   7  24
HETATM   24  C   UNL     1      -4.674   1.242 -32.781  1.00  0.00    -0.009 A 
HETATM   25  C   UNL     1      -5.278   0.103 -33.349  1.00  0.00     0.042 A 
HETATM   26 CL   UNL     1      -6.496   0.172 -34.571  1.00  0.00    -0.084 Cl
HETATM   27  C   UNL     1      -4.992  -1.187 -32.874  1.00  0.00     0.024 A 
HETATM   28  C   UNL     1      -4.159  -1.379 -31.777  1.00  0.00     0.002 A 
HETATM   29  C   UNL     1      -3.626  -0.277 -31.131  1.00  0.00     0.001 A 
HETATM   30  C   UNL     1      -3.893   1.005 -31.615  1.00  0.00     0.011 A 
ENDBRANCH   7  24
BRANCH  10  31
HETATM   31  C   UNL     1      -6.088   3.515 -30.949  1.00  0.00     0.294 C 
HETATM   32  O   UNL     1      -5.318   4.183 -30.271  1.00  0.00    -0.259 OA
BRANCH  31  33
HETATM   33  O   UNL     1      -6.868   2.519 -30.500  1.00  0.00    -0.313 OA
BRANCH  33  34
HETATM   34  C   UNL     1      -8.033   2.175 -31.284  1.00  0.00     0.124 C 
HETATM   35  C   UNL     1      -8.169   0.662 -31.329  1.00  0.00     0.040 C 
HETATM   36  C   UNL     1      -9.241   2.822 -30.618  1.00  0.00     0.040 C 
ENDBRANCH  33  34
ENDBRANCH  31  33
ENDBRANCH  10  31
TORSDOF 9
ENDMDL
MODEL 3
REMARK VINA RESULT:      -7.5      3.569      7.825
REMARK  9 active torsions:
REMARK  status: ('A' for Active; 'I' for Inactive)
REMARK    1  A    between atoms: C_6  and  C_7 
REMARK    2  A    between atoms: C_7  and  C_8 
REMARK       I    between atoms: C_8  and  N_9 
REMARK    3  A    between atoms: N_9  and  C_10 
REMARK    4  A    between atoms: C_10  and  C_11 
REMARK    5  A    between atoms: C_11  and  N_12 
REMARK    6  A    between atoms: C_19  and  C_20 
REMARK    7  A    between atoms: C_29  and  C_30 
REMARK    8  A    between atoms: C_30  and  O_31 
REMARK    9  A    between atoms: O_31  and  C_32 
ROOT
HETATM    1  C   UNL     1      -5.771   0.603 -30.335  1.00  0.00     0.071 C 
HETATM    2  C   UNL     1      -6.848   1.603 -30.688  1.00  0.00     0.048 C 
HETATM    3  N   UNL     1      -6.976   2.641 -29.749  1.00  0.00    -0.229 NA
HETATM    4  C   UNL     1      -7.287   3.801 -30.237  1.00  0.00     0.170 C 
HETATM    5  N   UNL     1      -7.773   3.967 -31.716  1.00  0.00    -0.318 N 
HETATM    6  C   UNL     1      -7.023   4.878 -32.251  1.00  0.00     0.011 C 
HETATM    7  C   UNL     1      -8.515   2.735 -32.045  1.00  0.00     0.168 C 
HETATM    8  S   UNL     1      -6.860   5.328 -29.564  1.00  0.00    -0.086 SA
HETATM    9  C   UNL     1      -6.514   5.930 -31.271  1.00  0.00     0.135 C 
HETATM   10  C   UNL     1      -7.482   1.650 -31.891  1.00  0.00     0.069 C 
ENDROOT
BRANCH   6  11
HETATM   11  C   UNL     1      -6.532   4.715 -33.659  1.00  0.00     0.156 C 
BRANCH  11  12
HETATM   12  C   UNL     1      -5.033   4.776 -33.816  1.00  0.00     0.223 C 
HETATM   13  N   UNL     1      -4.315   3.923 -33.007  1.00  0.00    -0.359 N 
HETATM   14  H   UNL     1      -4.793   3.276 -32.384  1.00  0.00     0.162 HD
HETATM   15  O   UNL     1      -4.499   5.565 -34.586  1.00  0.00    -0.273 OA
BRANCH  13  16
HETATM   16  C   UNL     1      -2.859   3.838 -33.091  1.00  0.00     0.150 C 
BRANCH  16  17
HETATM   17  C   UNL     1      -2.182   4.236 -31.767  1.00  0.00     0.254 C 
BRANCH  17  18
HETATM   18  N   UNL     1      -1.447   5.553 -31.867  1.00  0.00    -0.070 N 
HETATM   19  H   UNL     1      -0.509   5.450 -31.454  1.00  0.00     0.279 HD
HETATM   20  C   UNL     1      -2.140   6.708 -31.152  1.00  0.00     0.235 C 
HETATM   21  C   UNL     1      -2.670   7.578 -32.272  1.00  0.00     0.029 C 
HETATM   22  C   UNL     1      -1.588   7.471 -33.324  1.00  0.00     0.029 C 
HETATM   23  C   UNL     1      -1.244   5.996 -33.316  1.00  0.00     0.235 C 
ENDBRANCH  17  18
ENDBRANCH  16  17
ENDBRANCH  13  16
ENDBRANCH  11  12
ENDBRANCH   6  11
BRANCH   7  24
HETATM   24  C   UNL     1      -9.620   2.677 -33.094  1.00  0.00    -0.009 A 
HETATM   25  C   UNL     1     -10.391   1.558 -33.468  1.00  0.00     0.042 A 
HETATM   26 CL   UNL     1     -10.196  -0.014 -32.784  1.00  0.00    -0.084 Cl
HETATM   27  C   UNL     1     -11.323   1.633 -34.517  1.00  0.00     0.024 A 
HETATM   28  C   UNL     1     -11.461   2.793 -35.272  1.00  0.00     0.002 A 
HETATM   29  C   UNL     1     -10.648   3.880 -34.998  1.00  0.00     0.001 A 
HETATM   30  C   UNL     1      -9.738   3.814 -33.941  1.00  0.00     0.011 A 
ENDBRANCH   7  24
BRANCH  10  31
HETATM   31  C   UNL     1      -6.760   1.146 -33.086  1.00  0.00     0.294 C 
HETATM   32  O   UNL     1      -6.380   1.909 -33.964  1.00  0.00    -0.259 OA
BRANCH  31  33
HETATM   33  O   UNL     1      -6.851  -0.189 -33.190  1.00  0.00    -0.313 OA
BRANCH  33  34
HETATM   34  C   UNL     1      -5.992  -0.848 -34.148  1.00  0.00     0.124 C 
HETATM   35  C   UNL     1      -4.665  -1.169 -33.483  1.00  0.00     0.040 C 
HETATM   36  C   UNL     1      -6.705  -2.115 -34.607  1.00  0.00     0.040 C 
ENDBRANCH  33  34
ENDBRANCH  31  33
ENDBRANCH  10  31
TORSDOF 9
ENDMDL
MODEL 4
REMARK VINA RESULT:      -7.1      2.580      6.687
REMARK  9 active torsions:
REMARK  status: ('A' for Active; 'I' for Inactive)
REMARK    1  A    between atoms: C_6  and  C_7 
REMARK    2  A    between atoms: C_7  and  C_8 
REMARK       I    between atoms: C_8  and  N_9 
REMARK    3  A    between atoms: N_9  and  C_10 
REMARK    4  A    between atoms: C_10  and  C_11 
REMARK    5  A    between atoms: C_11  and  N_12 
REMARK    6  A    between atoms: C_19  and  C_20 
REMARK    7  A    between atoms: C_29  and  C_30 
REMARK    8  A    between atoms: C_30  and  O_31 
REMARK    9  A    between atoms: O_31  and  C_32 
ROOT
HETATM    1  C   UNL     1      -7.587   1.728 -33.193  1.00  0.00     0.071 C 
HETATM    2  C   UNL     1      -6.871   3.055 -33.092  1.00  0.00     0.048 C 
HETATM    3  N   UNL     1      -7.712   4.162 -33.297  1.00  0.00    -0.229 NA
HETATM    4  C   UNL     1      -7.435   5.215 -32.593  1.00  0.00     0.170 C 
HETATM    5  N   UNL     1      -6.091   5.341 -31.800  1.00  0.00    -0.318 N 
HETATM    6  C   UNL     1      -6.409   5.640 -30.579  1.00  0.00     0.011 C 
HETATM    7  C   UNL     1      -5.078   4.617 -32.590  1.00  0.00     0.168 C 
HETATM    8  S   UNL     1      -8.562   6.408 -32.072  1.00  0.00    -0.086 SA
HETATM    9  C   UNL     1      -7.698   6.443 -30.444  1.00  0.00     0.135 C 
HETATM   10  C   UNL     1      -5.601   3.205 -32.624  1.00  0.00     0.069 C 
ENDROOT
BRANCH   6  11
HETATM   11  C   UNL     1      -5.674   5.008 -29.436  1.00  0.00     0.156 C 
BRANCH  11  12
HETATM   12  C   UNL     1      -5.416   5.924 -28.266  1.00  0.00     0.223 C 
HETATM   13  N   UNL     1      -4.124   6.389 -28.148  1.00  0.00    -0.359 N 
HETATM   14  H   UNL     1      -3.421   6.146 -28.843  1.00  0.00     0.162 HD
HETATM   15  O   UNL     1      -6.294   6.198 -27.458  1.00  0.00    -0.273 OA
BRANCH  13  16
HETATM   16  C   UNL     1      -3.744   7.326 -27.095  1.00  0.00     0.150 C 
BRANCH  16  17
HETATM   17  C   UNL     1      -2.242   7.250 -26.770  1.00  0.00     0.254 C 
BRANCH  17  18
HETATM   18  N   UNL     1      -1.422   6.751 -27.937  1.00  0.00    -0.070 N 
HETATM   19  H   UNL     1      -1.965   6.045 -28.456  1.00  0.00     0.279 HD
HETATM   20  C   UNL     1      -0.097   6.109 -27.540  1.00  0.00     0.235 C 
HETATM   21  C   UNL     1       0.950   7.111 -27.976  1.00  0.00     0.029 C 
HETATM   22  C   UNL     1       0.375   7.661 -29.264  1.00  0.00     0.029 C 
HETATM   23  C   UNL     1      -1.088   7.864 -28.930  1.00  0.00     0.235 C 
ENDBRANCH  17  18
ENDBRANCH  16  17
ENDBRANCH  13  16
ENDBRANCH  11  12
ENDBRANCH   6  11
BRANCH   7  24
HETATM   24  C   UNL     1      -3.588   4.942 -32.544  1.00  0.00    -0.009 A 
HETATM   25  C   UNL     1      -2.743   5.253 -33.627  1.00  0.00     0.042 A 
HETATM   26 CL   UNL     1      -3.269   5.305 -35.270  1.00  0.00    -0.084 Cl
HETATM   27  C   UNL     1      -1.364   5.447 -33.443  1.00  0.00     0.024 A 
HETATM   28  C   UNL     1      -0.775   5.265 -32.197  1.00  0.00     0.002 A 
HETATM   29  C   UNL     1      -1.559   4.861 -31.129  1.00  0.00     0.001 A 
HETATM   30  C   UNL     1      -2.933   4.689 -31.306  1.00  0.00     0.011 A 
ENDBRANCH   7  24
BRANCH  10  31
HETATM   31  C   UNL     1      -5.088   2.206 -31.654  1.00  0.00     0.294 C 
HETATM   32  O   UNL     1      -5.378   2.270 -30.467  1.00  0.00    -0.259 OA
BRANCH  31  33
HETATM   33  O   UNL     1      -4.099   1.468 -32.184  1.00  0.00    -0.313 OA
BRANCH  33  34
HETATM   34  C   UNL     1      -4.182   0.032 -32.037  1.00  0.00     0.124 C 
HETATM   35  C   UNL     1      -4.509  -0.585 -33.386  1.00  0.00     0.040 C 
HETATM   36  C   UNL     1      -2.833  -0.453 -31.516  1.00  0.00     0.040 C 
ENDBRANCH  33  34
ENDBRANCH  31  33
ENDBRANCH  10  31
TORSDOF 9
ENDMDL
MODEL 5
REMARK VINA RESULT:      -7.0      4.419      6.688
REMARK  9 active torsions:
REMARK  status: ('A' for Active; 'I' for Inactive)
REMARK    1  A    between atoms: C_6  and  C_7 
REMARK    2  A    between atoms: C_7  and  C_8 
REMARK       I    between atoms: C_8  and  N_9 
REMARK    3  A    between atoms: N_9  and  C_10 
REMARK    4  A    between atoms: C_10  and  C_11 
REMARK    5  A    between atoms: C_11  and  N_12 
REMARK    6  A    between atoms: C_19  and  C_20 
REMARK    7  A    between atoms: C_29  and  C_30 
REMARK    8  A    between atoms: C_30  and  O_31 
REMARK    9  A    between atoms: O_31  and  C_32 
ROOT
HETATM    1  C   UNL     1      -3.847   6.223 -30.754  1.00  0.00     0.071 C 
HETATM    2  C   UNL     1      -4.598   4.912 -30.715  1.00  0.00     0.048 C 
HETATM    3  N   UNL     1      -5.600   4.871 -29.730  1.00  0.00    -0.229 NA
HETATM    4  C   UNL     1      -6.664   4.199 -30.043  1.00  0.00     0.170 C 
HETATM    5  N   UNL     1      -6.705   3.261 -31.296  1.00  0.00    -0.318 N 
HETATM    6  C   UNL     1      -7.744   3.612 -31.986  1.00  0.00     0.011 C 
HETATM    7  C   UNL     1      -5.342   2.717 -31.447  1.00  0.00     0.168 C 
HETATM    8  S   UNL     1      -8.255   4.495 -29.455  1.00  0.00    -0.086 SA
HETATM    9  C   UNL     1      -8.891   4.174 -31.154  1.00  0.00     0.135 C 
HETATM   10  C   UNL     1      -4.496   3.944 -31.666  1.00  0.00     0.069 C 
ENDROOT
BRANCH   6  11
HETATM   11  C   UNL     1      -7.665   3.671 -33.483  1.00  0.00     0.156 C 
BRANCH  11  12
HETATM   12  C   UNL     1      -8.990   3.862 -34.178  1.00  0.00     0.223 C 
HETATM   13  N   UNL     1      -9.832   2.771 -34.163  1.00  0.00    -0.359 N 
HETATM   14  H   UNL     1      -9.568   1.920 -33.671  1.00  0.00     0.162 HD
HETATM   15  O   UNL     1      -9.272   4.907 -34.750  1.00  0.00    -0.273 OA
BRANCH  13  16
HETATM   16  C   UNL     1     -11.167   2.830 -34.750  1.00  0.00     0.150 C 
BRANCH  16  17
HETATM   17  C   UNL     1     -12.208   3.386 -33.760  1.00  0.00     0.254 C 
BRANCH  17  18
HETATM   18  N   UNL     1     -12.923   2.293 -33.000  1.00  0.00    -0.070 N 
HETATM   19  H   UNL     1     -12.346   2.006 -32.197  1.00  0.00     0.279 HD
HETATM   20  C   UNL     1     -13.213   1.046 -33.828  1.00  0.00     0.235 C 
HETATM   21  C   UNL     1     -14.711   1.080 -34.045  1.00  0.00     0.029 C 
HETATM   22  C   UNL     1     -15.229   1.636 -32.736  1.00  0.00     0.029 C 
HETATM   23  C   UNL     1     -14.263   2.762 -32.433  1.00  0.00     0.235 C 
ENDBRANCH  17  18
ENDBRANCH  16  17
ENDBRANCH  13  16
ENDBRANCH  11  12
ENDBRANCH   6  11
BRANCH   7  24
HETATM   24  C   UNL     1      -5.041   1.380 -32.114  1.00  0.00    -0.009 A 
HETATM   25  C   UNL     1      -5.935   0.316 -32.349  1.00  0.00     0.042 A 
HETATM   26 CL   UNL     1      -7.596   0.339 -31.882  1.00  0.00    -0.084 Cl
HETATM   27  C   UNL     1      -5.494  -0.898 -32.901  1.00  0.00     0.024 A 
HETATM   28  C   UNL     1      -4.146  -1.118 -33.165  1.00  0.00     0.002 A 
HETATM   29  C   UNL     1      -3.226  -0.132 -32.854  1.00  0.00     0.001 A 
HETATM   30  C   UNL     1      -3.665   1.083 -32.325  1.00  0.00     0.011 A 
ENDBRANCH   7  24
BRANCH  10  31
HETATM   31  C   UNL     1      -4.135   4.352 -33.047  1.00  0.00     0.294 C 
HETATM   32  O   UNL     1      -4.997   4.629 -33.870  1.00  0.00    -0.259 OA
BRANCH  31  33
HETATM   33  O   UNL     1      -2.844   4.097 -33.315  1.00  0.00    -0.313 OA
BRANCH  33  34
HETATM   34  C   UNL     1      -1.965   5.227 -33.516  1.00  0.00     0.124 C 
HETATM   35  C   UNL     1      -0.833   5.158 -32.505  1.00  0.00     0.040 C 
HETATM   36  C   UNL     1      -1.440   5.150 -34.945  1.00  0.00     0.040 C 
ENDBRANCH  33  34
ENDBRANCH  31  33
ENDBRANCH  10  31
TORSDOF 9
ENDMDL
MODEL 6
REMARK VINA RESULT:      -6.9      3.363      7.653
REMARK  9 active torsions:
REMARK  status: ('A' for Active; 'I' for Inactive)
REMARK    1  A    between atoms: C_6  and  C_7 
REMARK    2  A    between atoms: C_7  and  C_8 
REMARK       I    between atoms: C_8  and  N_9 
REMARK    3  A    between atoms: N_9  and  C_10 
REMARK    4  A    between atoms: C_10  and  C_11 
REMARK    5  A    between atoms: C_11  and  N_12 
REMARK    6  A    between atoms: C_19  and  C_20 
REMARK    7  A    between atoms: C_29  and  C_30 
REMARK    8  A    between atoms: C_30  and  O_31 
REMARK    9  A    between atoms: O_31  and  C_32 
ROOT
HETATM    1  C   UNL     1      -3.568   5.405 -35.412  1.00  0.00     0.071 C 
HETATM    2  C   UNL     1      -3.188   4.715 -34.121  1.00  0.00     0.048 C 
HETATM    3  N   UNL     1      -1.858   4.950 -33.732  1.00  0.00    -0.229 NA
HETATM    4  C   UNL     1      -1.655   5.035 -32.455  1.00  0.00     0.170 C 
HETATM    5  N   UNL     1      -2.751   4.613 -31.419  1.00  0.00    -0.318 N 
HETATM    6  C   UNL     1      -2.903   5.616 -30.613  1.00  0.00     0.011 C 
HETATM    7  C   UNL     1      -3.496   3.501 -32.039  1.00  0.00     0.168 C 
HETATM    8  S   UNL     1      -0.416   5.951 -31.687  1.00  0.00    -0.086 SA
HETATM    9  C   UNL     1      -1.646   6.456 -30.411  1.00  0.00     0.135 C 
HETATM   10  C   UNL     1      -4.079   4.118 -33.283  1.00  0.00     0.069 C 
ENDROOT
BRANCH   6  11
HETATM   11  C   UNL     1      -4.275   6.008 -30.152  1.00  0.00     0.156 C 
BRANCH  11  12
HETATM   12  C   UNL     1      -4.301   6.948 -28.972  1.00  0.00     0.223 C 
HETATM   13  N   UNL     1      -3.959   6.390 -27.759  1.00  0.00    -0.359 N 
HETATM   14  H   UNL     1      -3.672   5.416 -27.701  1.00  0.00     0.162 HD
HETATM   15  O   UNL     1      -4.644   8.118 -29.090  1.00  0.00    -0.273 OA
BRANCH  13  16
HETATM   16  C   UNL     1      -3.889   7.195 -26.543  1.00  0.00     0.150 C 
BRANCH  16  17
HETATM   17  C   UNL     1      -2.463   7.242 -25.965  1.00  0.00     0.254 C 
BRANCH  17  18
HETATM   18  N   UNL     1      -1.401   7.159 -27.037  1.00  0.00    -0.070 N 
HETATM   19  H   UNL     1      -1.809   6.742 -27.886  1.00  0.00     0.279 HD
HETATM   20  C   UNL     1      -0.189   6.319 -26.650  1.00  0.00     0.235 C 
HETATM   21  C   UNL     1       0.917   7.331 -26.443  1.00  0.00     0.029 C 
HETATM   22  C   UNL     1       0.634   8.364 -27.511  1.00  0.00     0.029 C 
HETATM   23  C   UNL     1      -0.869   8.535 -27.435  1.00  0.00     0.235 C 
ENDBRANCH  17  18
ENDBRANCH  16  17
ENDBRANCH  13  16
ENDBRANCH  11  12
ENDBRANCH   6  11
BRANCH   7  24
HETATM   24  C   UNL     1      -4.221   2.426 -31.236  1.00  0.00    -0.009 A 
HETATM   25  C   UNL     1      -4.183   1.032 -31.437  1.00  0.00     0.042 A 
HETATM   26 CL   UNL     1      -3.282   0.268 -32.695  1.00  0.00    -0.084 Cl
HETATM   27  C   UNL     1      -4.975   0.163 -30.667  1.00  0.00     0.024 A 
HETATM   28  C   UNL     1      -5.879   0.656 -29.732  1.00  0.00     0.002 A 
HETATM   29  C   UNL     1      -6.016   2.025 -29.579  1.00  0.00     0.001 A 
HETATM   30  C   UNL     1      -5.214   2.889 -30.328  1.00  0.00     0.011 A 
ENDBRANCH   7  24
BRANCH  10  31
HETATM   31  C   UNL     1      -5.476   4.618 -33.272  1.00  0.00     0.294 C 
HETATM   32  O   UNL     1      -5.793   5.598 -32.611  1.00  0.00    -0.259 OA
BRANCH  31  33
HETATM   33  O   UNL     1      -6.324   3.725 -33.809  1.00  0.00    -0.313 OA
BRANCH  33  34
HETATM   34  C   UNL     1      -7.544   3.441 -33.089  1.00  0.00     0.124 C 
HETATM   35  C   UNL     1      -8.719   4.016 -33.860  1.00  0.00     0.040 C 
HETATM   36  C   UNL     1      -7.654   1.926 -32.955  1.00  0.00     0.040 C 
ENDBRANCH  33  34
ENDBRANCH  31  33
ENDBRANCH  10  31
TORSDOF 9
ENDMDL
MODEL 7
REMARK VINA RESULT:      -6.8      5.307      8.752
REMARK  9 active torsions:
REMARK  status: ('A' for Active; 'I' for Inactive)
REMARK    1  A    between atoms: C_6  and  C_7 
REMARK    2  A    between atoms: C_7  and  C_8 
REMARK       I    between atoms: C_8  and  N_9 
REMARK    3  A    between atoms: N_9  and  C_10 
REMARK    4  A    between atoms: C_10  and  C_11 
REMARK    5  A    between atoms: C_11  and  N_12 
REMARK    6  A    between atoms: C_19  and  C_20 
REMARK    7  A    between atoms: C_29  and  C_30 
REMARK    8  A    between atoms: C_30  and  O_31 
REMARK    9  A    between atoms: O_31  and  C_32 
ROOT
HETATM    1  C   UNL     1      -6.424   5.538 -30.716  1.00  0.00     0.071 C 
HETATM    2  C   UNL     1      -7.251   4.314 -31.032  1.00  0.00     0.048 C 
HETATM    3  N   UNL     1      -8.429   4.223 -30.270  1.00  0.00    -0.229 NA
HETATM    4  C   UNL     1      -9.452   3.710 -30.880  1.00  0.00     0.170 C 
HETATM    5  N   UNL     1      -9.306   2.978 -32.256  1.00  0.00    -0.318 N 
HETATM    6  C   UNL     1     -10.163   3.527 -33.059  1.00  0.00     0.011 C 
HETATM    7  C   UNL     1      -7.979   2.335 -32.241  1.00  0.00     0.168 C 
HETATM    8  S   UNL     1     -11.105   4.066 -30.554  1.00  0.00    -0.086 SA
HETATM    9  C   UNL     1     -11.413   4.065 -32.371  1.00  0.00     0.135 C 
HETATM   10  C   UNL     1      -7.027   3.494 -32.095  1.00  0.00     0.069 C 
ENDROOT
BRANCH   6  11
HETATM   11  C   UNL     1      -9.787   3.801 -34.484  1.00  0.00     0.156 C 
BRANCH  11  12
HETATM   12  C   UNL     1     -10.767   4.663 -35.241  1.00  0.00     0.223 C 
HETATM   13  N   UNL     1     -10.467   6.008 -35.284  1.00  0.00    -0.359 N 
HETATM   14  H   UNL     1      -9.612   6.361 -34.859  1.00  0.00     0.162 HD
HETATM   15  O   UNL     1     -11.780   4.194 -35.745  1.00  0.00    -0.273 OA
BRANCH  13  16
HETATM   16  C   UNL     1     -11.298   6.951 -36.027  1.00  0.00     0.150 C 
BRANCH  16  17
HETATM   17  C   UNL     1     -10.491   8.164 -36.521  1.00  0.00     0.254 C 
BRANCH  17  18
HETATM   18  N   UNL     1     -11.360   9.203 -37.193  1.00  0.00    -0.070 N 
HETATM   19  H   UNL     1     -11.459  10.016 -36.570  1.00  0.00     0.279 HD
HETATM   20  C   UNL     1     -12.763   8.713 -37.535  1.00  0.00     0.235 C 
HETATM   21  C   UNL     1     -12.757   8.580 -39.043  1.00  0.00     0.029 C 
HETATM   22  C   UNL     1     -11.898   9.746 -39.481  1.00  0.00     0.029 C 
HETATM   23  C   UNL     1     -10.749   9.718 -38.495  1.00  0.00     0.235 C 
ENDBRANCH  17  18
ENDBRANCH  16  17
ENDBRANCH  13  16
ENDBRANCH  11  12
ENDBRANCH   6  11
BRANCH   7  24
HETATM   24  C   UNL     1      -7.640   1.090 -33.053  1.00  0.00    -0.009 A 
HETATM   25  C   UNL     1      -6.967  -0.067 -32.613  1.00  0.00     0.042 A 
HETATM   26 CL   UNL     1      -6.367  -0.275 -31.008  1.00  0.00    -0.084 Cl
HETATM   27  C   UNL     1      -6.648  -1.107 -33.501  1.00  0.00     0.024 A 
HETATM   28  C   UNL     1      -6.918  -0.997 -34.861  1.00  0.00     0.002 A 
HETATM   29  C   UNL     1      -7.488   0.168 -35.346  1.00  0.00     0.001 A 
HETATM   30  C   UNL     1      -7.826   1.193 -34.461  1.00  0.00     0.011 A 
ENDBRANCH   7  24
BRANCH  10  31
HETATM   31  C   UNL     1      -6.376   4.068 -33.299  1.00  0.00     0.294 C 
HETATM   32  O   UNL     1      -6.973   4.843 -34.033  1.00  0.00    -0.259 OA
BRANCH  31  33
HETATM   33  O   UNL     1      -5.237   3.422 -33.598  1.00  0.00    -0.313 OA
BRANCH  33  34
HETATM   34  C   UNL     1      -4.204   3.382 -32.587  1.00  0.00     0.124 C 
HETATM   35  C   UNL     1      -3.797   1.937 -32.353  1.00  0.00     0.040 C 
HETATM   36  C   UNL     1      -3.033   4.214 -33.096  1.00  0.00     0.040 C 
ENDBRANCH  33  34
ENDBRANCH  31  33
ENDBRANCH  10  31
TORSDOF 9
ENDMDL
MODEL 8
REMARK VINA RESULT:      -6.8      3.187      7.305
REMARK  9 active torsions:
REMARK  status: ('A' for Active; 'I' for Inactive)
REMARK    1  A    between atoms: C_6  and  C_7 
REMARK    2  A    between atoms: C_7  and  C_8 
REMARK       I    between atoms: C_8  and  N_9 
REMARK    3  A    between atoms: N_9  and  C_10 
REMARK    4  A    between atoms: C_10  and  C_11 
REMARK    5  A    between atoms: C_11  and  N_12 
REMARK    6  A    between atoms: C_19  and  C_20 
REMARK    7  A    between atoms: C_29  and  C_30 
REMARK    8  A    between atoms: C_30  and  O_31 
REMARK    9  A    between atoms: O_31  and  C_32 
ROOT
HETATM    1  C   UNL     1      -8.614   0.777 -34.520  1.00  0.00     0.071 C 
HETATM    2  C   UNL     1      -7.852   0.975 -33.230  1.00  0.00     0.048 C 
HETATM    3  N   UNL     1      -7.186  -0.181 -32.790  1.00  0.00    -0.229 NA
HETATM    4  C   UNL     1      -6.049   0.017 -32.199  1.00  0.00     0.170 C 
HETATM    5  N   UNL     1      -5.597   1.447 -31.749  1.00  0.00    -0.318 N 
HETATM    6  C   UNL     1      -4.416   1.636 -32.249  1.00  0.00     0.011 C 
HETATM    7  C   UNL     1      -6.828   2.170 -31.378  1.00  0.00     0.168 C 
HETATM    8  S   UNL     1      -4.719  -1.076 -32.173  1.00  0.00    -0.086 SA
HETATM    9  C   UNL     1      -3.593   0.363 -32.416  1.00  0.00     0.135 C 
HETATM   10  C   UNL     1      -7.624   2.188 -32.656  1.00  0.00     0.069 C 
ENDROOT
BRANCH   6  11
HETATM   11  C   UNL     1      -4.049   2.971 -32.823  1.00  0.00     0.156 C 
BRANCH  11  12
HETATM   12  C   UNL     1      -2.797   3.585 -32.247  1.00  0.00     0.223 C 
HETATM   13  N   UNL     1      -2.216   4.576 -33.008  1.00  0.00    -0.359 N 
HETATM   14  H   UNL     1      -2.648   4.882 -33.877  1.00  0.00     0.162 HD
HETATM   15  O   UNL     1      -2.316   3.192 -31.192  1.00  0.00    -0.273 OA
BRANCH  13  16
HETATM   16  C   UNL     1      -1.031   5.294 -32.547  1.00  0.00     0.150 C 
BRANCH  16  17
HETATM   17  C   UNL     1      -1.383   6.387 -31.521  1.00  0.00     0.254 C 
BRANCH  17  18
HETATM   18  N   UNL     1      -1.194   5.923 -30.095  1.00  0.00    -0.070 N 
HETATM   19  H   UNL     1      -1.922   5.232 -29.864  1.00  0.00     0.279 HD
HETATM   20  C   UNL     1      -1.276   7.041 -29.061  1.00  0.00     0.235 C 
HETATM   21  C   UNL     1       0.149   7.216 -28.584  1.00  0.00     0.029 C 
HETATM   22  C   UNL     1       0.681   5.799 -28.583  1.00  0.00     0.029 C 
HETATM   23  C   UNL     1       0.152   5.231 -29.883  1.00  0.00     0.235 C 
ENDBRANCH  17  18
ENDBRANCH  16  17
ENDBRANCH  13  16
ENDBRANCH  11  12
ENDBRANCH   6  11
BRANCH   7  24
HETATM   24  C   UNL     1      -6.857   3.316 -30.373  1.00  0.00    -0.009 A 
HETATM   25  C   UNL     1      -7.986   3.881 -29.747  1.00  0.00     0.042 A 
HETATM   26 CL   UNL     1      -9.606   3.361 -30.038  1.00  0.00    -0.084 Cl
HETATM   27  C   UNL     1      -7.869   4.998 -28.903  1.00  0.00     0.024 A 
HETATM   28  C   UNL     1      -6.644   5.629 -28.714  1.00  0.00     0.002 A 
HETATM   29  C   UNL     1      -5.530   5.162 -29.392  1.00  0.00     0.001 A 
HETATM   30  C   UNL     1      -5.642   4.039 -30.215  1.00  0.00     0.011 A 
ENDBRANCH   7  24
BRANCH  10  31
HETATM   31  C   UNL     1      -7.575   3.383 -33.536  1.00  0.00     0.294 C 
HETATM   32  O   UNL     1      -6.652   3.554 -34.321  1.00  0.00    -0.259 OA
BRANCH  31  33
HETATM   33  O   UNL     1      -8.464   4.314 -33.152  1.00  0.00    -0.313 OA
BRANCH  33  34
HETATM   34  C   UNL     1      -9.851   4.101 -33.501  1.00  0.00     0.124 C 
HETATM   35  C   UNL     1     -10.709   5.100 -32.745  1.00  0.00     0.040 C 
HETATM   36  C   UNL     1      -9.977   4.288 -35.009  1.00  0.00     0.040 C 
ENDBRANCH  33  34
ENDBRANCH  31  33
ENDBRANCH  10  31
TORSDOF 9
ENDMDL
MODEL 9
REMARK VINA RESULT:      -6.8      3.024      7.472
REMARK  9 active torsions:
REMARK  status: ('A' for Active; 'I' for Inactive)
REMARK    1  A    between atoms: C_6  and  C_7 
REMARK    2  A    between atoms: C_7  and  C_8 
REMARK       I    between atoms: C_8  and  N_9 
REMARK    3  A    between atoms: N_9  and  C_10 
REMARK    4  A    between atoms: C_10  and  C_11 
REMARK    5  A    between atoms: C_11  and  N_12 
REMARK    6  A    between atoms: C_19  and  C_20 
REMARK    7  A    between atoms: C_29  and  C_30 
REMARK    8  A    between atoms: C_30  and  O_31 
REMARK    9  A    between atoms: O_31  and  C_32 
ROOT
HETATM    1  C   UNL     1      -5.919   3.846 -28.791  1.00  0.00     0.071 C 
HETATM    2  C   UNL     1      -6.798   3.705 -30.013  1.00  0.00     0.048 C 
HETATM    3  N   UNL     1      -7.771   4.714 -30.122  1.00  0.00    -0.229 NA
HETATM    4  C   UNL     1      -8.050   5.094 -31.329  1.00  0.00     0.170 C 
HETATM    5  N   UNL     1      -7.561   4.287 -32.578  1.00  0.00    -0.318 N 
HETATM    6  C   UNL     1      -6.955   5.133 -33.351  1.00  0.00     0.011 C 
HETATM    7  C   UNL     1      -7.541   2.870 -32.170  1.00  0.00     0.168 C 
HETATM    8  S   UNL     1      -8.598   6.659 -31.795  1.00  0.00    -0.086 SA
HETATM    9  C   UNL     1      -7.487   6.559 -33.261  1.00  0.00     0.135 C 
HETATM   10  C   UNL     1      -6.550   2.843 -31.036  1.00  0.00     0.069 C 
ENDROOT
BRANCH   6  11
HETATM   11  C   UNL     1      -5.691   4.736 -34.053  1.00  0.00     0.156 C 
BRANCH  11  12
HETATM   12  C   UNL     1      -4.493   5.595 -33.731  1.00  0.00     0.223 C 
HETATM   13  N   UNL     1      -4.390   6.005 -32.420  1.00  0.00    -0.359 N 
HETATM   14  H   UNL     1      -5.069   5.698 -31.727  1.00  0.00     0.162 HD
HETATM   15  O   UNL     1      -3.694   5.933 -34.596  1.00  0.00    -0.273 OA
BRANCH  13  16
HETATM   16  C   UNL     1      -3.253   6.795 -31.956  1.00  0.00     0.150 C 
BRANCH  16  17
HETATM   17  C   UNL     1      -3.017   6.631 -30.443  1.00  0.00     0.254 C 
BRANCH  17  18
HETATM   18  N   UNL     1      -1.755   5.857 -30.136  1.00  0.00    -0.070 N 
HETATM   19  H   UNL     1      -2.004   4.977 -29.663  1.00  0.00     0.279 HD
HETATM   20  C   UNL     1      -0.773   6.600 -29.237  1.00  0.00     0.235 C 
HETATM   21  C   UNL     1       0.369   6.974 -30.158  1.00  0.00     0.029 C 
HETATM   22  C   UNL     1       0.463   5.779 -31.082  1.00  0.00     0.029 C 
HETATM   23  C   UNL     1      -0.986   5.475 -31.401  1.00  0.00     0.235 C 
ENDBRANCH  17  18
ENDBRANCH  16  17
ENDBRANCH  13  16
ENDBRANCH  11  12
ENDBRANCH   6  11
BRANCH   7  24
HETATM   24  C   UNL     1      -7.703   1.712 -33.149  1.00  0.00    -0.009 A 
HETATM   25  C   UNL     1      -8.404   0.507 -32.947  1.00  0.00     0.042 A 
HETATM   26 CL   UNL     1      -9.224   0.109 -31.481  1.00  0.00    -0.084 Cl
HETATM   27  C   UNL     1      -8.396  -0.512 -33.914  1.00  0.00     0.024 A 
HETATM   28  C   UNL     1      -7.633  -0.397 -35.071  1.00  0.00     0.002 A 
HETATM   29  C   UNL     1      -6.852   0.731 -35.257  1.00  0.00     0.001 A 
HETATM   30  C   UNL     1      -6.876   1.754 -34.307  1.00  0.00     0.011 A 
ENDBRANCH   7  24
BRANCH  10  31
HETATM   31  C   UNL     1      -5.143   2.450 -31.298  1.00  0.00     0.294 C 
HETATM   32  O   UNL     1      -4.384   3.187 -31.913  1.00  0.00    -0.259 OA
BRANCH  31  33
HETATM   33  O   UNL     1      -4.940   1.147 -31.045  1.00  0.00    -0.313 OA
BRANCH  33  34
HETATM   34  C   UNL     1      -4.085   0.413 -31.951  1.00  0.00     0.124 C 
HETATM   35  C   UNL     1      -2.842  -0.036 -31.202  1.00  0.00     0.040 C 
HETATM   36  C   UNL     1      -4.882  -0.778 -32.470  1.00  0.00     0.040 C 
ENDBRANCH  33  34
ENDBRANCH  31  33
ENDBRANCH  10  31
TORSDOF 9
ENDMDL
MODEL 10
REMARK VINA RESULT:      -6.6     18.803     21.183
REMARK  9 active torsions:
REMARK  status: ('A' for Active; 'I' for Inactive)
REMARK    1  A    between atoms: C_6  and  C_7 
REMARK    2  A    between atoms: C_7  and  C_8 
REMARK       I    between atoms: C_8  and  N_9 
REMARK    3  A    between atoms: N_9  and  C_10 
REMARK    4  A    between atoms: C_10  and  C_11 
REMARK    5  A    between atoms: C_11  and  N_12 
REMARK    6  A    between atoms: C_19  and  C_20 
REMARK    7  A    between atoms: C_29  and  C_30 
REMARK    8  A    between atoms: C_30  and  O_31 
REMARK    9  A    between atoms: O_31  and  C_32 
ROOT
HETATM    1  C   UNL     1      -5.658 -18.101 -39.118  1.00  0.00     0.071 C 
HETATM    2  C   UNL     1      -6.592 -17.068 -38.532  1.00  0.00     0.048 C 
HETATM    3  N   UNL     1      -6.651 -17.099 -37.128  1.00  0.00    -0.229 NA
HETATM    4  C   UNL     1      -6.800 -15.949 -36.549  1.00  0.00     0.170 C 
HETATM    5  N   UNL     1      -7.182 -14.664 -37.358  1.00  0.00    -0.318 N 
HETATM    6  C   UNL     1      -6.305 -13.761 -37.054  1.00  0.00     0.011 C 
HETATM    7  C   UNL     1      -8.042 -15.119 -38.468  1.00  0.00     0.168 C 
HETATM    8  S   UNL     1      -6.238 -15.529 -34.976  1.00  0.00    -0.086 SA
HETATM    9  C   UNL     1      -5.733 -13.889 -35.646  1.00  0.00     0.135 C 
HETATM   10  C   UNL     1      -7.151 -16.051 -39.245  1.00  0.00     0.069 C 
ENDROOT
BRANCH   6  11
HETATM   11  C   UNL     1      -5.760 -12.855 -38.118  1.00  0.00     0.156 C 
BRANCH  11  12
HETATM   12  C   UNL     1      -4.254 -12.778 -38.172  1.00  0.00     0.223 C 
HETATM   13  N   UNL     1      -3.591 -13.972 -37.988  1.00  0.00    -0.359 N 
HETATM   14  H   UNL     1      -4.110 -14.839 -37.868  1.00  0.00     0.162 HD
HETATM   15  O   UNL     1      -3.670 -11.714 -38.329  1.00  0.00    -0.273 OA
BRANCH  13  16
HETATM   16  C   UNL     1      -2.135 -14.056 -38.069  1.00  0.00     0.150 C 
BRANCH  16  17
HETATM   17  C   UNL     1      -1.635 -15.508 -37.962  1.00  0.00     0.254 C 
BRANCH  17  18
HETATM   18  N   UNL     1      -0.344 -15.731 -38.715  1.00  0.00    -0.070 N 
HETATM   19  H   UNL     1      -0.554 -16.158 -39.628  1.00  0.00     0.279 HD
HETATM   20  C   UNL     1       0.645 -16.643 -37.998  1.00  0.00     0.235 C 
HETATM   21  C   UNL     1       1.747 -15.713 -37.537  1.00  0.00     0.029 C 
HETATM   22  C   UNL     1       1.845 -14.718 -38.673  1.00  0.00     0.029 C 
HETATM   23  C   UNL     1       0.396 -14.424 -39.000  1.00  0.00     0.235 C 
ENDBRANCH  17  18
ENDBRANCH  16  17
ENDBRANCH  13  16
ENDBRANCH  11  12
ENDBRANCH   6  11
BRANCH   7  24
HETATM   24  C   UNL     1      -9.088 -14.233 -39.136  1.00  0.00    -0.009 A 
HETATM   25  C   UNL     1     -10.178 -14.640 -39.929  1.00  0.00     0.042 A 
HETATM   26 CL   UNL     1     -10.523 -16.287 -40.315  1.00  0.00    -0.084 Cl
HETATM   27  C   UNL     1     -11.016 -13.701 -40.554  1.00  0.00     0.024 A 
HETATM   28  C   UNL     1     -10.752 -12.338 -40.472  1.00  0.00     0.002 A 
HETATM   29  C   UNL     1      -9.631 -11.906 -39.783  1.00  0.00     0.001 A 
HETATM   30  C   UNL     1      -8.810 -12.837 -39.144  1.00  0.00     0.011 A 
ENDBRANCH   7  24
BRANCH  10  31
HETATM   31  C   UNL     1      -6.427 -15.552 -40.440  1.00  0.00     0.294 C 
HETATM   32  O   UNL     1      -6.975 -15.492 -41.533  1.00  0.00    -0.259 OA
BRANCH  31  33
HETATM   33  O   UNL     1      -5.104 -15.475 -40.219  1.00  0.00    -0.313 OA
BRANCH  33  34
HETATM   34  C   UNL     1      -4.233 -15.433 -41.371  1.00  0.00     0.124 C 
HETATM   35  C   UNL     1      -3.749 -14.008 -41.575  1.00  0.00     0.040 C 
HETATM   36  C   UNL     1      -3.070 -16.381 -41.100  1.00  0.00     0.040 C 
ENDBRANCH  33  34
ENDBRANCH  31  33
ENDBRANCH  10  31
TORSDOF 9
ENDMDL
