MODEL 1
REMARK VINA RESULT:      -8.8      0.000      0.000
REMARK  10 active torsions:
REMARK  status: ('A' for Active; 'I' for Inactive)
REMARK    1  A    between atoms: C_1  and  C_17 
REMARK    2  A    between atoms: C_4  and  C_5 
REMARK    3  A    between atoms: C_5  and  O_18 
REMARK    4  A    between atoms: C_6  and  C_11 
REMARK    5  A    between atoms: C_6  and  C_14 
REMARK    6  A    between atoms: C_6  and  N_15 
REMARK    7  A    between atoms: C_8  and  O_20 
REMARK    8  A    between atoms: C_11  and  O_34 
REMARK    9  A    between atoms: C_13  and  C_14 
REMARK       I    between atoms: N_15  and  C_16 
REMARK   10  A    between atoms: C_16  and  C_17 
ROOT
HETATM    1  C           1      -5.524   1.901 -31.817  0.00  0.00     0.056 C 
HETATM    2  C           1      -7.061   1.853 -31.502  0.00  0.00    -0.030 C 
HETATM    3  C           1      -7.273   2.279 -30.032  0.00  0.00     0.016 C 
HETATM    4  C           1      -9.343   2.610 -32.731  0.00  0.00     0.008 C 
HETATM    5  C           1      -7.801   2.790 -32.513  0.00  0.00     0.012 C 
HETATM    6  C           1      -9.654   1.104 -32.862  0.00  0.00     0.128 C 
HETATM    7  C           1      -7.555   0.399 -31.692  0.00  0.00     0.013 C 
HETATM    8  C           1      -2.601   5.607 -31.946  0.00  0.00     0.017 A 
HETATM    9  C           1      -9.736   3.281 -34.077  0.00  0.00     0.020 C 
HETATM   10  C           1      -9.079   0.267 -31.728  0.00  0.00     0.033 C 
HETATM   11  C           1      -7.365   4.262 -32.336  0.00  0.00     0.054 C 
HETATM   12  C           1      -5.876   4.373 -32.183  0.00  0.00     0.010 A 
HETATM   13  C           1      -5.072   3.332 -31.951  0.00  0.00     0.054 A 
HETATM   14  N           1      -3.870   3.696 -31.842  0.00  0.00    -0.244 NA
HETATM   15  C           1      -3.783   4.951 -31.999  0.00  0.00     0.110 A 
HETATM   16  C           1      -1.442   4.940 -31.748  0.00  0.00     0.130 A 
HETATM   17  N           1      -0.287   5.453 -31.676  0.00  0.00    -0.272 NA
HETATM   18  C           1      -0.189   6.707 -31.805  0.00  0.00     0.116 A 
HETATM   19  C           1      -1.247   7.503 -32.012  0.00  0.00     0.020 A 
HETATM   20  C           1      -2.464   6.942 -32.084  0.00  0.00     0.017 A 
HETATM   21  S           1      -5.084   5.605 -32.227  0.00  0.00    -0.072 SA
ENDROOT
BRANCH   1  22
HETATM   22  C           1      -4.617   1.115 -30.844  0.00  0.00     0.114 C 
BRANCH  22  23
HETATM   23  C           1      -3.706   0.065 -31.465  0.00  0.00     0.218 C 
HETATM   24  N           1      -4.369  -0.819 -32.273  0.00  0.00    -0.354 N 
HETATM   25  H           1      -5.383  -0.732 -32.336  0.00  0.00     0.162 HD
HETATM   26  O           1      -2.516   0.025 -31.273  0.00  0.00    -0.274 OA
BRANCH  24  27
HETATM   27  C           1      -3.735  -1.957 -32.952  0.00  0.00     0.108 C 
BRANCH  27  28
HETATM   28  C           1      -3.482  -3.153 -32.027  0.00  0.00     0.189 C 
BRANCH  28  29
HETATM   29  O           1      -2.246  -2.989 -31.362  0.00  0.00    -0.399 OA
HETATM   30  H           1      -2.045  -3.783 -30.863  0.00  0.00     0.209 HD
ENDBRANCH  28  29
ENDBRANCH  27  28
BRANCH  27  31
HETATM   31  C           1      -4.490  -2.362 -34.232  0.00  0.00     0.031 C 
BRANCH  31  32
HETATM   32  C           1      -6.027  -2.214 -34.218  0.00  0.00    -0.021 C 
HETATM   33  C           1      -6.733  -3.475 -34.747  0.00  0.00     0.009 C 
HETATM   34  C           1      -6.550  -0.968 -34.951  0.00  0.00     0.009 C 
ENDBRANCH  31  32
ENDBRANCH  27  31
ENDBRANCH  24  27
ENDBRANCH  22  23
ENDBRANCH   1  22
BRANCH   4  35
HETATM   35  C           1     -10.209   3.256 -31.631  0.00  0.00     0.176 C 
BRANCH  35  36
HETATM   36  O           1     -11.565   3.368 -32.027  0.00  0.00    -0.400 OA
HETATM   37  H           1     -12.020   2.537 -31.875  0.00  0.00     0.209 HD
ENDBRANCH  35  36
ENDBRANCH   4  35
BRANCH   6  38
HETATM   38  O           1     -11.042   0.874 -32.916  0.00  0.00    -0.395 OA
HETATM   39  H           1     -11.402   0.830 -32.029  0.00  0.00     0.210 HD
ENDBRANCH   6  38
TORSDOF 10
ENDMDL
MODEL 2
REMARK VINA RESULT:      -8.3      3.321      7.704
REMARK  10 active torsions:
REMARK  status: ('A' for Active; 'I' for Inactive)
REMARK    1  A    between atoms: C_1  and  C_17 
REMARK    2  A    between atoms: C_4  and  C_5 
REMARK    3  A    between atoms: C_5  and  O_18 
REMARK    4  A    between atoms: C_6  and  C_11 
REMARK    5  A    between atoms: C_6  and  C_14 
REMARK    6  A    between atoms: C_6  and  N_15 
REMARK    7  A    between atoms: C_8  and  O_20 
REMARK    8  A    between atoms: C_11  and  O_34 
REMARK    9  A    between atoms: C_13  and  C_14 
REMARK       I    between atoms: N_15  and  C_16 
REMARK   10  A    between atoms: C_16  and  C_17 
ROOT
HETATM    1  C           1      -7.860   1.703 -32.944  0.00  0.00     0.056 C 
HETATM    2  C           1      -7.410   2.822 -31.940  0.00  0.00    -0.030 C 
HETATM    3  C           1      -7.420   2.232 -30.512  0.00  0.00     0.016 C 
HETATM    4  C           1      -5.489   4.718 -31.843  0.00  0.00     0.008 C 
HETATM    5  C           1      -5.994   3.331 -32.371  0.00  0.00     0.012 C 
HETATM    6  C           1      -6.635   5.744 -31.966  0.00  0.00     0.128 C 
HETATM    7  C           1      -8.422   3.990 -32.021  0.00  0.00     0.013 C 
HETATM    8  C           1      -5.727  -2.357 -34.068  0.00  0.00     0.017 A 
HETATM    9  C           1      -4.333   5.206 -32.761  0.00  0.00     0.020 C 
HETATM   10  C           1      -7.939   5.271 -31.338  0.00  0.00     0.033 C 
HETATM   11  C           1      -4.940   2.205 -32.272  0.00  0.00     0.054 C 
HETATM   12  C           1      -5.464   0.918 -32.839  0.00  0.00     0.010 A 
HETATM   13  C           1      -6.749   0.702 -33.128  0.00  0.00     0.054 A 
HETATM   14  N           1      -6.931  -0.465 -33.569  0.00  0.00    -0.244 NA
HETATM   15  C           1      -5.826  -1.085 -33.617  0.00  0.00     0.110 A 
HETATM   16  C           1      -6.814  -3.023 -34.517  0.00  0.00     0.130 A 
HETATM   17  N           1      -6.836  -4.211 -34.953  0.00  0.00    -0.272 NA
HETATM   18  C           1      -5.745  -4.849 -34.981  0.00  0.00     0.116 A 
HETATM   19  C           1      -4.581  -4.322 -34.574  0.00  0.00     0.020 A 
HETATM   20  C           1      -4.578  -3.062 -34.115  0.00  0.00     0.017 A 
HETATM   21  S           1      -4.686  -0.289 -33.127  0.00  0.00    -0.072 SA
ENDROOT
BRANCH   1  22
HETATM   22  C           1      -9.197   1.004 -32.609  0.00  0.00     0.114 C 
BRANCH  22  23
HETATM   23  C           1     -10.308   1.137 -33.642  0.00  0.00     0.218 C 
HETATM   24  N           1     -11.554   1.258 -33.087  0.00  0.00    -0.354 N 
HETATM   25  H           1     -11.626   1.191 -32.071  0.00  0.00     0.162 HD
HETATM   26  O           1     -10.108   1.148 -34.831  0.00  0.00    -0.274 OA
BRANCH  24  27
HETATM   27  C           1     -12.800   1.350 -33.858  0.00  0.00     0.108 C 
BRANCH  27  28
HETATM   28  C           1     -13.812   0.252 -33.512  0.00  0.00     0.189 C 
BRANCH  28  29
HETATM   29  O           1     -13.168  -1.006 -33.507  0.00  0.00    -0.399 OA
HETATM   30  H           1     -13.300  -1.435 -34.356  0.00  0.00     0.209 HD
ENDBRANCH  28  29
ENDBRANCH  27  28
BRANCH  27  31
HETATM   31  C           1     -13.422   2.757 -33.789  0.00  0.00     0.031 C 
BRANCH  31  32
HETATM   32  C           1     -12.807   3.843 -34.698  0.00  0.00    -0.021 C 
HETATM   33  C           1     -12.391   3.282 -36.069  0.00  0.00     0.009 C 
HETATM   34  C           1     -11.636   4.612 -34.064  0.00  0.00     0.009 C 
ENDBRANCH  31  32
ENDBRANCH  27  31
ENDBRANCH  24  27
ENDBRANCH  22  23
ENDBRANCH   1  22
BRANCH   4  35
HETATM   35  C           1      -4.940   4.676 -30.403  0.00  0.00     0.176 C 
BRANCH  35  36
HETATM   36  O           1      -3.854   5.568 -30.229  0.00  0.00    -0.400 OA
HETATM   37  H           1      -3.057   5.078 -30.022  0.00  0.00     0.209 HD
ENDBRANCH  35  36
ENDBRANCH   4  35
BRANCH   6  38
HETATM   38  O           1      -6.284   6.972 -31.374  0.00  0.00    -0.395 OA
HETATM   39  H           1      -5.351   6.977 -31.155  0.00  0.00     0.210 HD
ENDBRANCH   6  38
TORSDOF 10
ENDMDL
MODEL 3
REMARK VINA RESULT:      -8.0      2.828      6.680
REMARK  10 active torsions:
REMARK  status: ('A' for Active; 'I' for Inactive)
REMARK    1  A    between atoms: C_1  and  C_17 
REMARK    2  A    between atoms: C_4  and  C_5 
REMARK    3  A    between atoms: C_5  and  O_18 
REMARK    4  A    between atoms: C_6  and  C_11 
REMARK    5  A    between atoms: C_6  and  C_14 
REMARK    6  A    between atoms: C_6  and  N_15 
REMARK    7  A    between atoms: C_8  and  O_20 
REMARK    8  A    between atoms: C_11  and  O_34 
REMARK    9  A    between atoms: C_13  and  C_14 
REMARK       I    between atoms: N_15  and  C_16 
REMARK   10  A    between atoms: C_16  and  C_17 
ROOT
HETATM    1  C           1      -3.780   3.778 -31.965  0.00  0.00     0.056 C 
HETATM    2  C           1      -2.728   4.940 -32.034  0.00  0.00    -0.030 C 
HETATM    3  C           1      -2.347   5.169 -33.514  0.00  0.00     0.016 C 
HETATM    4  C           1      -2.408   7.370 -30.900  0.00  0.00     0.008 C 
HETATM    5  C           1      -3.354   6.211 -31.370  0.00  0.00     0.012 C 
HETATM    6  C           1      -1.199   6.757 -30.164  0.00  0.00     0.128 C 
HETATM    7  C           1      -1.470   4.512 -31.240  0.00  0.00     0.013 C 
HETATM    8  C           1      -8.189   3.614 -33.646  0.00  0.00     0.017 A 
HETATM    9  C           1      -3.176   8.250 -29.874  0.00  0.00     0.020 C 
HETATM   10  C           1      -0.500   5.661 -30.957  0.00  0.00     0.033 C 
HETATM   11  C           1      -4.595   6.698 -32.152  0.00  0.00     0.054 C 
HETATM   12  C           1      -5.485   5.550 -32.529  0.00  0.00     0.010 A 
HETATM   13  C           1      -5.119   4.268 -32.449  0.00  0.00     0.054 A 
HETATM   14  N           1      -6.040   3.503 -32.844  0.00  0.00    -0.244 NA
HETATM   15  C           1      -7.049   4.186 -33.193  0.00  0.00     0.110 A 
HETATM   16  C           1      -8.311   2.271 -33.724  0.00  0.00     0.130 A 
HETATM   17  N           1      -9.325   1.635 -34.138  0.00  0.00    -0.272 NA
HETATM   18  C           1     -10.330   2.306 -34.512  0.00  0.00     0.116 A 
HETATM   19  C           1     -10.362   3.645 -34.488  0.00  0.00     0.020 A 
HETATM   20  C           1      -9.278   4.302 -34.048  0.00  0.00     0.017 A 
HETATM   21  S           1      -6.846   5.640 -33.063  0.00  0.00    -0.072 SA
ENDROOT
BRANCH   1  22
HETATM   22  C           1      -3.373   2.466 -32.674  0.00  0.00     0.114 C 
BRANCH  22  23
HETATM   23  C           1      -3.867   1.172 -32.041  0.00  0.00     0.218 C 
HETATM   24  N           1      -5.087   0.768 -32.513  0.00  0.00    -0.354 N 
HETATM   25  H           1      -5.562   1.379 -33.177  0.00  0.00     0.162 HD
HETATM   26  O           1      -3.238   0.557 -31.216  0.00  0.00    -0.274 OA
BRANCH  24  27
HETATM   27  C           1      -5.811  -0.417 -32.034  0.00  0.00     0.108 C 
BRANCH  27  28
HETATM   28  C           1      -6.621  -0.160 -30.759  0.00  0.00     0.189 C 
BRANCH  28  29
HETATM   29  O           1      -7.013   1.198 -30.708  0.00  0.00    -0.399 OA
HETATM   30  H           1      -6.299   1.721 -30.337  0.00  0.00     0.209 HD
ENDBRANCH  28  29
ENDBRANCH  27  28
BRANCH  27  31
HETATM   31  C           1      -6.660  -1.065 -33.143  0.00  0.00     0.031 C 
BRANCH  31  32
HETATM   32  C           1      -5.912  -1.891 -34.211  0.00  0.00    -0.021 C 
HETATM   33  C           1      -6.732  -3.106 -34.681  0.00  0.00     0.009 C 
HETATM   34  C           1      -4.500  -2.334 -33.795  0.00  0.00     0.009 C 
ENDBRANCH  31  32
ENDBRANCH  27  31
ENDBRANCH  24  27
ENDBRANCH  22  23
ENDBRANCH   1  22
BRANCH   4  35
HETATM   35  C           1      -1.945   8.300 -32.040  0.00  0.00     0.176 C 
BRANCH  35  36
HETATM   36  O           1      -2.068   9.666 -31.687  0.00  0.00    -0.400 OA
HETATM   37  H           1      -2.827  10.051 -32.128  0.00  0.00     0.209 HD
ENDBRANCH  35  36
ENDBRANCH   4  35
BRANCH   6  38
HETATM   38  O           1      -0.245   7.742 -29.845  0.00  0.00    -0.395 OA
HETATM   39  H           1       0.012   8.219 -30.635  0.00  0.00     0.210 HD
ENDBRANCH   6  38
TORSDOF 10
ENDMDL
MODEL 4
REMARK VINA RESULT:      -7.6      3.106      7.676
REMARK  10 active torsions:
REMARK  status: ('A' for Active; 'I' for Inactive)
REMARK    1  A    between atoms: C_1  and  C_17 
REMARK    2  A    between atoms: C_4  and  C_5 
REMARK    3  A    between atoms: C_5  and  O_18 
REMARK    4  A    between atoms: C_6  and  C_11 
REMARK    5  A    between atoms: C_6  and  C_14 
REMARK    6  A    between atoms: C_6  and  N_15 
REMARK    7  A    between atoms: C_8  and  O_20 
REMARK    8  A    between atoms: C_11  and  O_34 
REMARK    9  A    between atoms: C_13  and  C_14 
REMARK       I    between atoms: N_15  and  C_16 
REMARK   10  A    between atoms: C_16  and  C_17 
ROOT
HETATM    1  C           1      -7.308   2.170 -32.567  0.00  0.00     0.056 C 
HETATM    2  C           1      -6.604   3.254 -31.676  0.00  0.00    -0.030 C 
HETATM    3  C           1      -6.399   2.667 -30.262  0.00  0.00     0.016 C 
HETATM    4  C           1      -4.566   5.003 -31.953  0.00  0.00     0.008 C 
HETATM    5  C           1      -5.257   3.656 -32.362  0.00  0.00     0.012 C 
HETATM    6  C           1      -5.638   6.110 -31.883  0.00  0.00     0.128 C 
HETATM    7  C           1      -7.528   4.493 -31.590  0.00  0.00     0.013 C 
HETATM    8  C           1      -5.712  -2.037 -33.999  0.00  0.00     0.017 A 
HETATM    9  C           1      -3.562   5.405 -33.071  0.00  0.00     0.020 C 
HETATM   10  C           1      -6.838   5.736 -31.023  0.00  0.00     0.033 C 
HETATM   11  C           1      -4.286   2.457 -32.439  0.00  0.00     0.054 C 
HETATM   12  C           1      -4.995   1.211 -32.883  0.00  0.00     0.010 A 
HETATM   13  C           1      -6.324   1.090 -32.933  0.00  0.00     0.054 A 
HETATM   14  N           1      -6.666  -0.061 -33.319  0.00  0.00    -0.244 NA
HETATM   15  C           1      -5.635  -0.761 -33.556  0.00  0.00     0.110 A 
HETATM   16  C           1      -6.907  -2.621 -34.236  0.00  0.00     0.130 A 
HETATM   17  N           1      -7.093  -3.805 -34.644  0.00  0.00    -0.272 NA
HETATM   18  C           1      -6.073  -4.521 -34.859  0.00  0.00     0.116 A 
HETATM   19  C           1      -4.821  -4.081 -34.676  0.00  0.00     0.020 A 
HETATM   20  C           1      -4.643  -2.824 -34.242  0.00  0.00     0.017 A 
HETATM   21  S           1      -4.371  -0.050 -33.290  0.00  0.00    -0.072 SA
ENDROOT
BRANCH   1  22
HETATM   22  C           1      -8.609   1.571 -31.987  0.00  0.00     0.114 C 
BRANCH  22  23
HETATM   23  C           1      -9.902   2.299 -32.331  0.00  0.00     0.218 C 
HETATM   24  N           1     -10.436   1.920 -33.533  0.00  0.00    -0.354 N 
HETATM   25  H           1      -9.906   1.252 -34.095  0.00  0.00     0.162 HD
HETATM   26  O           1     -10.412   3.119 -31.608  0.00  0.00    -0.274 OA
BRANCH  24  27
HETATM   27  C           1     -11.649   2.502 -34.123  0.00  0.00     0.108 C 
BRANCH  27  28
HETATM   28  C           1     -11.389   3.810 -34.879  0.00  0.00     0.189 C 
BRANCH  28  29
HETATM   29  O           1     -10.939   3.523 -36.188  0.00  0.00    -0.399 OA
HETATM   30  H           1      -9.995   3.688 -36.244  0.00  0.00     0.209 HD
ENDBRANCH  28  29
ENDBRANCH  27  28
BRANCH  27  31
HETATM   31  C           1     -12.425   1.482 -34.975  0.00  0.00     0.031 C 
BRANCH  31  32
HETATM   32  C           1     -13.654   0.811 -34.323  0.00  0.00    -0.021 C 
HETATM   33  C           1     -14.388   1.761 -33.361  0.00  0.00     0.009 C 
HETATM   34  C           1     -13.349  -0.522 -33.620  0.00  0.00     0.009 C 
ENDBRANCH  31  32
ENDBRANCH  27  31
ENDBRANCH  24  27
ENDBRANCH  22  23
ENDBRANCH   1  22
BRANCH   4  35
HETATM   35  C           1      -3.770   4.923 -30.635  0.00  0.00     0.176 C 
BRANCH  35  36
HETATM   36  O           1      -2.603   5.724 -30.675  0.00  0.00    -0.400 OA
HETATM   37  H           1      -1.895   5.249 -31.113  0.00  0.00     0.209 HD
ENDBRANCH  35  36
ENDBRANCH   4  35
BRANCH   6  38
HETATM   38  O           1      -5.098   7.310 -31.381  0.00  0.00    -0.395 OA
HETATM   39  H           1      -5.622   8.056 -31.677  0.00  0.00     0.210 HD
ENDBRANCH   6  38
TORSDOF 10
ENDMDL
MODEL 5
REMARK VINA RESULT:      -7.6      3.160      6.121
REMARK  10 active torsions:
REMARK  status: ('A' for Active; 'I' for Inactive)
REMARK    1  A    between atoms: C_1  and  C_17 
REMARK    2  A    between atoms: C_4  and  C_5 
REMARK    3  A    between atoms: C_5  and  O_18 
REMARK    4  A    between atoms: C_6  and  C_11 
REMARK    5  A    between atoms: C_6  and  C_14 
REMARK    6  A    between atoms: C_6  and  N_15 
REMARK    7  A    between atoms: C_8  and  O_20 
REMARK    8  A    between atoms: C_11  and  O_34 
REMARK    9  A    between atoms: C_13  and  C_14 
REMARK       I    between atoms: N_15  and  C_16 
REMARK   10  A    between atoms: C_16  and  C_17 
ROOT
HETATM    1  C           1      -4.601   3.604 -31.906  0.00  0.00     0.056 C 
HETATM    2  C           1      -5.423   2.274 -32.028  0.00  0.00    -0.030 C 
HETATM    3  C           1      -5.036   1.349 -30.852  0.00  0.00     0.016 C 
HETATM    4  C           1      -7.975   1.585 -32.580  0.00  0.00     0.008 C 
HETATM    5  C           1      -6.946   2.634 -32.034  0.00  0.00     0.012 C 
HETATM    6  C           1      -7.425   0.982 -33.889  0.00  0.00     0.128 C 
HETATM    7  C           1      -5.052   1.587 -33.364  0.00  0.00     0.013 C 
HETATM    8  C           1      -4.769   6.944 -28.572  0.00  0.00     0.017 A 
HETATM    9  C           1      -9.297   2.324 -32.933  0.00  0.00     0.020 C 
HETATM   10  C           1      -6.002   0.455 -33.760  0.00  0.00     0.033 C 
HETATM   11  C           1      -7.372   3.291 -30.702  0.00  0.00     0.054 C 
HETATM   12  C           1      -6.373   4.320 -30.259  0.00  0.00     0.010 A 
HETATM   13  C           1      -5.155   4.450 -30.789  0.00  0.00     0.054 A 
HETATM   14  N           1      -4.506   5.373 -30.227  0.00  0.00    -0.244 NA
HETATM   15  C           1      -5.216   5.912 -29.326  0.00  0.00     0.110 A 
HETATM   16  C           1      -3.539   7.467 -28.768  0.00  0.00     0.130 A 
HETATM   17  N           1      -3.021   8.424 -28.119  0.00  0.00    -0.272 NA
HETATM   18  C           1      -3.709   8.954 -27.200  0.00  0.00     0.116 A 
HETATM   19  C           1      -4.948   8.548 -26.891  0.00  0.00     0.020 A 
HETATM   20  C           1      -5.480   7.533 -27.589  0.00  0.00     0.017 A 
HETATM   21  S           1      -6.549   5.299 -29.183  0.00  0.00    -0.072 SA
ENDROOT
BRANCH   1  22
HETATM   22  C           1      -3.071   3.434 -31.774  0.00  0.00     0.114 C 
BRANCH  22  23
HETATM   23  C           1      -2.210   4.369 -32.614  0.00  0.00     0.218 C 
HETATM   24  N           1      -1.660   5.395 -31.893  0.00  0.00    -0.354 N 
HETATM   25  H           1      -1.916   5.470 -30.908  0.00  0.00     0.162 HD
HETATM   26  O           1      -2.021   4.212 -33.795  0.00  0.00    -0.274 OA
BRANCH  24  27
HETATM   27  C           1      -0.832   6.463 -32.469  0.00  0.00     0.108 C 
BRANCH  27  28
HETATM   28  C           1      -1.649   7.559 -33.161  0.00  0.00     0.189 C 
BRANCH  28  29
HETATM   29  O           1      -1.743   8.689 -32.317  0.00  0.00    -0.399 OA
HETATM   30  H           1      -2.654   8.803 -32.037  0.00  0.00     0.209 HD
ENDBRANCH  28  29
ENDBRANCH  27  28
BRANCH  27  31
HETATM   31  C           1       0.165   7.038 -31.446  0.00  0.00     0.031 C 
BRANCH  31  32
HETATM   32  C           1       0.055   6.528 -29.993  0.00  0.00    -0.021 C 
HETATM   33  C           1       0.508   7.588 -28.973  0.00  0.00     0.009 C 
HETATM   34  C           1       0.781   5.199 -29.732  0.00  0.00     0.009 C 
ENDBRANCH  31  32
ENDBRANCH  27  31
ENDBRANCH  24  27
ENDBRANCH  22  23
ENDBRANCH   1  22
BRANCH   4  35
HETATM   35  C           1      -8.331   0.475 -31.570  0.00  0.00     0.176 C 
BRANCH  35  36
HETATM   36  O           1      -9.663   0.596 -31.104  0.00  0.00    -0.400 OA
HETATM   37  H           1     -10.268   0.200 -31.733  0.00  0.00     0.209 HD
ENDBRANCH  35  36
ENDBRANCH   4  35
BRANCH   6  38
HETATM   38  O           1      -8.241  -0.070 -34.347  0.00  0.00    -0.395 OA
HETATM   39  H           1      -7.712  -0.854 -34.499  0.00  0.00     0.210 HD
ENDBRANCH   6  38
TORSDOF 10
ENDMDL
MODEL 6
REMARK VINA RESULT:      -7.5      3.329      7.730
REMARK  10 active torsions:
REMARK  status: ('A' for Active; 'I' for Inactive)
REMARK    1  A    between atoms: C_1  and  C_17 
REMARK    2  A    between atoms: C_4  and  C_5 
REMARK    3  A    between atoms: C_5  and  O_18 
REMARK    4  A    between atoms: C_6  and  C_11 
REMARK    5  A    between atoms: C_6  and  C_14 
REMARK    6  A    between atoms: C_6  and  N_15 
REMARK    7  A    between atoms: C_8  and  O_20 
REMARK    8  A    between atoms: C_11  and  O_34 
REMARK    9  A    between atoms: C_13  and  C_14 
REMARK       I    between atoms: N_15  and  C_16 
REMARK   10  A    between atoms: C_16  and  C_17 
ROOT
HETATM    1  C           1      -6.155   3.944 -33.600  0.00  0.00     0.056 C 
HETATM    2  C           1      -5.713   2.854 -32.560  0.00  0.00    -0.030 C 
HETATM    3  C           1      -6.166   3.306 -31.154  0.00  0.00     0.016 C 
HETATM    4  C           1      -5.733   0.158 -32.411  0.00  0.00     0.008 C 
HETATM    5  C           1      -6.341   1.485 -32.984  0.00  0.00     0.012 C 
HETATM    6  C           1      -4.195   0.242 -32.489  0.00  0.00     0.128 C 
HETATM    7  C           1      -4.170   2.744 -32.592  0.00  0.00     0.013 C 
HETATM    8  C           1     -10.498   5.281 -34.882  0.00  0.00     0.017 A 
HETATM    9  C           1      -6.177  -1.023 -33.320  0.00  0.00     0.020 C 
HETATM   10  C           1      -3.626   1.510 -31.868  0.00  0.00     0.033 C 
HETATM   11  C           1      -7.885   1.536 -32.933  0.00  0.00     0.054 C 
HETATM   12  C           1      -8.407   2.806 -33.540  0.00  0.00     0.010 A 
HETATM   13  C           1      -7.642   3.862 -33.827  0.00  0.00     0.054 A 
HETATM   14  N           1      -8.326   4.806 -34.308  0.00  0.00    -0.244 NA
HETATM   15  C           1      -9.543   4.461 -34.386  0.00  0.00     0.110 A 
HETATM   16  C           1     -10.187   6.512 -35.346  0.00  0.00     0.130 A 
HETATM   17  N           1     -10.999   7.358 -35.824  0.00  0.00    -0.272 NA
HETATM   18  C           1     -12.220   7.036 -35.883  0.00  0.00     0.116 A 
HETATM   19  C           1     -12.682   5.849 -35.467  0.00  0.00     0.020 A 
HETATM   20  C           1     -11.807   4.965 -34.963  0.00  0.00     0.017 A 
HETATM   21  S           1      -9.801   3.102 -33.877  0.00  0.00    -0.072 SA
ENDROOT
BRANCH   1  22
HETATM   22  C           1      -5.715   5.390 -33.279  0.00  0.00     0.114 C 
BRANCH  22  23
HETATM   23  C           1      -4.255   5.729 -33.549  0.00  0.00     0.218 C 
HETATM   24  N           1      -3.520   5.910 -32.408  0.00  0.00    -0.354 N 
HETATM   25  H           1      -4.013   5.862 -31.517  0.00  0.00     0.162 HD
HETATM   26  O           1      -3.790   5.816 -34.659  0.00  0.00    -0.274 OA
BRANCH  24  27
HETATM   27  C           1      -2.102   6.294 -32.388  0.00  0.00     0.108 C 
BRANCH  27  28
HETATM   28  C           1      -1.876   7.795 -32.597  0.00  0.00     0.189 C 
BRANCH  28  29
HETATM   29  O           1      -1.651   8.058 -33.968  0.00  0.00    -0.399 OA
HETATM   30  H           1      -1.222   7.300 -34.371  0.00  0.00     0.209 HD
ENDBRANCH  28  29
ENDBRANCH  27  28
BRANCH  27  31
HETATM   31  C           1      -1.377   5.765 -31.137  0.00  0.00     0.031 C 
BRANCH  31  32
HETATM   32  C           1       0.095   6.189 -30.944  0.00  0.00    -0.021 C 
HETATM   33  C           1       1.032   4.976 -30.806  0.00  0.00     0.009 C 
HETATM   34  C           1       0.325   7.170 -29.784  0.00  0.00     0.009 C 
ENDBRANCH  31  32
ENDBRANCH  27  31
ENDBRANCH  24  27
ENDBRANCH  22  23
ENDBRANCH   1  22
BRANCH   4  35
HETATM   35  C           1      -6.194  -0.173 -30.978  0.00  0.00     0.176 C 
BRANCH  35  36
HETATM   36  O           1      -5.303   0.345 -30.006  0.00  0.00    -0.400 OA
HETATM   37  H           1      -5.403  -0.135 -29.182  0.00  0.00     0.209 HD
ENDBRANCH  35  36
ENDBRANCH   4  35
BRANCH   6  38
HETATM   38  O           1      -3.592  -0.863 -31.857  0.00  0.00    -0.395 OA
HETATM   39  H           1      -2.922  -1.243 -32.427  0.00  0.00     0.210 HD
ENDBRANCH   6  38
TORSDOF 10
ENDMDL
MODEL 7
REMARK VINA RESULT:      -7.5      2.904      7.967
REMARK  10 active torsions:
REMARK  status: ('A' for Active; 'I' for Inactive)
REMARK    1  A    between atoms: C_1  and  C_17 
REMARK    2  A    between atoms: C_4  and  C_5 
REMARK    3  A    between atoms: C_5  and  O_18 
REMARK    4  A    between atoms: C_6  and  C_11 
REMARK    5  A    between atoms: C_6  and  C_14 
REMARK    6  A    between atoms: C_6  and  N_15 
REMARK    7  A    between atoms: C_8  and  O_20 
REMARK    8  A    between atoms: C_11  and  O_34 
REMARK    9  A    between atoms: C_13  and  C_14 
REMARK       I    between atoms: N_15  and  C_16 
REMARK   10  A    between atoms: C_16  and  C_17 
ROOT
HETATM    1  C           1      -6.414   2.332 -32.979  0.00  0.00     0.056 C 
HETATM    2  C           1      -5.623   3.345 -32.079  0.00  0.00    -0.030 C 
HETATM    3  C           1      -5.654   2.834 -30.621  0.00  0.00     0.016 C 
HETATM    4  C           1      -3.299   4.713 -32.236  0.00  0.00     0.008 C 
HETATM    5  C           1      -4.168   3.472 -32.641  0.00  0.00     0.012 C 
HETATM    6  C           1      -4.169   5.983 -32.336  0.00  0.00     0.128 C 
HETATM    7  C           1      -6.325   4.723 -32.156  0.00  0.00     0.013 C 
HETATM    8  C           1      -5.432  -2.170 -34.010  0.00  0.00     0.017 A 
HETATM    9  C           1      -2.141   4.864 -33.262  0.00  0.00     0.020 C 
HETATM   10  C           1      -5.491   5.872 -31.588  0.00  0.00     0.033 C 
HETATM   11  C           1      -3.413   2.127 -32.552  0.00  0.00     0.054 C 
HETATM   12  C           1      -4.280   0.986 -33.001  0.00  0.00     0.010 A 
HETATM   13  C           1      -5.599   1.082 -33.183  0.00  0.00     0.054 A 
HETATM   14  N           1      -6.094  -0.021 -33.539  0.00  0.00    -0.244 NA
HETATM   15  C           1      -5.180  -0.895 -33.630  0.00  0.00     0.110 A 
HETATM   16  C           1      -6.681  -2.565 -34.338  0.00  0.00     0.130 A 
HETATM   17  N           1      -7.027  -3.728 -34.699  0.00  0.00    -0.272 NA
HETATM   18  C           1      -6.129  -4.615 -34.769  0.00  0.00     0.116 A 
HETATM   19  C           1      -4.843  -4.375 -34.479  0.00  0.00     0.020 A 
HETATM   20  C           1      -4.495  -3.137 -34.098  0.00  0.00     0.017 A 
HETATM   21  S           1      -3.844  -0.386 -33.272  0.00  0.00    -0.072 SA
ENDROOT
BRANCH   1  22
HETATM   22  C           1      -7.847   1.998 -32.507  0.00  0.00     0.114 C 
BRANCH  22  23
HETATM   23  C           1      -8.985   2.670 -33.264  0.00  0.00     0.218 C 
HETATM   24  N           1     -10.225   2.257 -32.860  0.00  0.00    -0.354 N 
HETATM   25  H           1     -10.271   1.520 -32.156  0.00  0.00     0.162 HD
HETATM   26  O           1      -8.808   3.497 -34.125  0.00  0.00    -0.274 OA
BRANCH  24  27
HETATM   27  C           1     -11.487   2.711 -33.461  0.00  0.00     0.108 C 
BRANCH  27  28
HETATM   28  C           1     -12.536   1.600 -33.581  0.00  0.00     0.189 C 
BRANCH  28  29
HETATM   29  O           1     -11.945   0.350 -33.287  0.00  0.00    -0.399 OA
HETATM   30  H           1     -11.554  -0.013 -34.084  0.00  0.00     0.209 HD
ENDBRANCH  28  29
ENDBRANCH  27  28
BRANCH  27  31
HETATM   31  C           1     -12.044   3.963 -32.760  0.00  0.00     0.031 C 
BRANCH  31  32
HETATM   32  C           1     -11.807   4.083 -31.239  0.00  0.00    -0.021 C 
HETATM   33  C           1     -13.128   4.196 -30.457  0.00  0.00     0.009 C 
HETATM   34  C           1     -10.853   5.218 -30.833  0.00  0.00     0.009 C 
ENDBRANCH  31  32
ENDBRANCH  27  31
ENDBRANCH  24  27
ENDBRANCH  22  23
ENDBRANCH   1  22
BRANCH   4  35
HETATM   35  C           1      -2.656   4.595 -30.839  0.00  0.00     0.176 C 
BRANCH  35  36
HETATM   36  O           1      -1.258   4.383 -30.920  0.00  0.00    -0.400 OA
HETATM   37  H           1      -1.071   3.444 -30.958  0.00  0.00     0.209 HD
ENDBRANCH  35  36
ENDBRANCH   4  35
BRANCH   6  38
HETATM   38  O           1      -3.482   7.110 -31.846  0.00  0.00    -0.395 OA
HETATM   39  H           1      -3.985   7.521 -31.141  0.00  0.00     0.210 HD
ENDBRANCH   6  38
TORSDOF 10
ENDMDL
MODEL 8
REMARK VINA RESULT:      -7.4      3.036      6.585
REMARK  10 active torsions:
REMARK  status: ('A' for Active; 'I' for Inactive)
REMARK    1  A    between atoms: C_1  and  C_17 
REMARK    2  A    between atoms: C_4  and  C_5 
REMARK    3  A    between atoms: C_5  and  O_18 
REMARK    4  A    between atoms: C_6  and  C_11 
REMARK    5  A    between atoms: C_6  and  C_14 
REMARK    6  A    between atoms: C_6  and  N_15 
REMARK    7  A    between atoms: C_8  and  O_20 
REMARK    8  A    between atoms: C_11  and  O_34 
REMARK    9  A    between atoms: C_13  and  C_14 
REMARK       I    between atoms: N_15  and  C_16 
REMARK   10  A    between atoms: C_16  and  C_17 
ROOT
HETATM    1  C           1      -4.254   3.272 -32.292  0.00  0.00     0.056 C 
HETATM    2  C           1      -4.863   1.827 -32.244  0.00  0.00    -0.030 C 
HETATM    3  C           1      -5.415   1.574 -30.823  0.00  0.00     0.016 C 
HETATM    4  C           1      -6.430   0.301 -33.828  0.00  0.00     0.008 C 
HETATM    5  C           1      -5.967   1.720 -33.347  0.00  0.00     0.012 C 
HETATM    6  C           1      -5.183  -0.582 -34.042  0.00  0.00     0.128 C 
HETATM    7  C           1      -3.735   0.809 -32.545  0.00  0.00     0.013 C 
HETATM    8  C           1      -6.405   7.452 -31.846  0.00  0.00     0.017 A 
HETATM    9  C           1      -7.131   0.450 -35.208  0.00  0.00     0.020 C 
HETATM   10  C           1      -4.244  -0.603 -32.843  0.00  0.00     0.033 C 
HETATM   11  C           1      -7.134   2.694 -33.069  0.00  0.00     0.054 C 
HETATM   12  C           1      -6.626   4.048 -32.662  0.00  0.00     0.010 A 
HETATM   13  C           1      -5.360   4.294 -32.318  0.00  0.00     0.054 A 
HETATM   14  N           1      -5.199   5.503 -31.998  0.00  0.00    -0.244 NA
HETATM   15  C           1      -6.295   6.129 -32.112  0.00  0.00     0.110 A 
HETATM   16  C           1      -5.330   8.177 -31.466  0.00  0.00     0.130 A 
HETATM   17  N           1      -5.322   9.413 -31.188  0.00  0.00    -0.272 NA
HETATM   18  C           1      -6.415  10.043 -31.273  0.00  0.00     0.116 A 
HETATM   19  C           1      -7.565   9.463 -31.641  0.00  0.00     0.020 A 
HETATM   20  C           1      -7.554   8.153 -31.931  0.00  0.00     0.017 A 
HETATM   21  S           1      -7.416   5.275 -32.545  0.00  0.00    -0.072 SA
ENDROOT
BRANCH   1  22
HETATM   22  C           1      -3.216   3.596 -31.194  0.00  0.00     0.114 C 
BRANCH  22  23
HETATM   23  C           1      -2.161   4.638 -31.545  0.00  0.00     0.218 C 
HETATM   24  N           1      -2.214   5.753 -30.752  0.00  0.00    -0.354 N 
HETATM   25  H           1      -2.965   5.807 -30.064  0.00  0.00     0.162 HD
HETATM   26  O           1      -1.351   4.487 -32.426  0.00  0.00    -0.274 OA
BRANCH  24  27
HETATM   27  C           1      -1.343   6.925 -30.912  0.00  0.00     0.108 C 
BRANCH  27  28
HETATM   28  C           1      -1.808   7.881 -32.016  0.00  0.00     0.189 C 
BRANCH  28  29
HETATM   29  O           1      -1.148   7.569 -33.227  0.00  0.00    -0.399 OA
HETATM   30  H           1      -0.913   8.382 -33.681  0.00  0.00     0.209 HD
ENDBRANCH  28  29
ENDBRANCH  27  28
BRANCH  27  31
HETATM   31  C           1      -1.102   7.653 -29.577  0.00  0.00     0.031 C 
BRANCH  31  32
HETATM   32  C           1      -0.041   7.053 -28.630  0.00  0.00    -0.021 C 
HETATM   33  C           1       1.047   8.076 -28.259  0.00  0.00     0.009 C 
HETATM   34  C           1       0.606   5.756 -29.143  0.00  0.00     0.009 C 
ENDBRANCH  31  32
ENDBRANCH  27  31
ENDBRANCH  24  27
ENDBRANCH  22  23
ENDBRANCH   1  22
BRANCH   4  35
HETATM   35  C           1      -7.434  -0.384 -32.879  0.00  0.00     0.176 C 
BRANCH  35  36
HETATM   36  O           1      -8.747  -0.374 -33.409  0.00  0.00    -0.400 OA
HETATM   37  H           1      -9.154   0.481 -33.260  0.00  0.00     0.209 HD
ENDBRANCH  35  36
ENDBRANCH   4  35
BRANCH   6  38
HETATM   38  O           1      -5.545  -1.911 -34.336  0.00  0.00    -0.395 OA
HETATM   39  H           1      -6.484  -1.962 -34.522  0.00  0.00     0.210 HD
ENDBRANCH   6  38
TORSDOF 10
ENDMDL
MODEL 9
REMARK VINA RESULT:      -7.3      3.790      7.165
REMARK  10 active torsions:
REMARK  status: ('A' for Active; 'I' for Inactive)
REMARK    1  A    between atoms: C_1  and  C_17 
REMARK    2  A    between atoms: C_4  and  C_5 
REMARK    3  A    between atoms: C_5  and  O_18 
REMARK    4  A    between atoms: C_6  and  C_11 
REMARK    5  A    between atoms: C_6  and  C_14 
REMARK    6  A    between atoms: C_6  and  N_15 
REMARK    7  A    between atoms: C_8  and  O_20 
REMARK    8  A    between atoms: C_11  and  O_34 
REMARK    9  A    between atoms: C_13  and  C_14 
REMARK       I    between atoms: N_15  and  C_16 
REMARK   10  A    between atoms: C_16  and  C_17 
ROOT
HETATM    1  C           1      -8.723   2.839 -31.980  0.00  0.00     0.056 C 
HETATM    2  C           1      -9.815   3.380 -32.968  0.00  0.00    -0.030 C 
HETATM    3  C           1      -9.104   4.060 -34.160  0.00  0.00     0.016 C 
HETATM    4  C           1     -12.130   2.477 -34.025  0.00  0.00     0.008 C 
HETATM    5  C           1     -10.718   2.182 -33.410  0.00  0.00     0.012 C 
HETATM    6  C           1     -12.825   3.561 -33.176  0.00  0.00     0.128 C 
HETATM    7  C           1     -10.678   4.426 -32.221  0.00  0.00     0.013 C 
HETATM    8  C           1      -5.499  -0.549 -32.633  0.00  0.00     0.017 A 
HETATM    9  C           1     -12.994   1.188 -33.924  0.00  0.00     0.020 C 
HETATM   10  C           1     -11.966   4.799 -32.956  0.00  0.00     0.033 C 
HETATM   11  C           1      -9.906   1.126 -34.193  0.00  0.00     0.054 C 
HETATM   12  C           1      -8.589   0.850 -33.528  0.00  0.00     0.010 A 
HETATM   13  C           1      -8.072   1.609 -32.559  0.00  0.00     0.054 A 
HETATM   14  N           1      -6.948   1.176 -32.186  0.00  0.00    -0.244 NA
HETATM   15  C           1      -6.649   0.133 -32.842  0.00  0.00     0.110 A 
HETATM   16  C           1      -4.619  -0.157 -31.686  0.00  0.00     0.130 A 
HETATM   17  N           1      -3.516  -0.716 -31.412  0.00  0.00    -0.272 NA
HETATM   18  C           1      -3.194  -1.742 -32.077  0.00  0.00     0.116 A 
HETATM   19  C           1      -3.965  -2.254 -33.046  0.00  0.00     0.020 A 
HETATM   20  C           1      -5.130  -1.649 -33.322  0.00  0.00     0.017 A 
HETATM   21  S           1      -7.664  -0.241 -33.844  0.00  0.00    -0.072 SA
ENDROOT
BRANCH   1  22
HETATM   22  C           1      -7.667   3.870 -31.522  0.00  0.00     0.114 C 
BRANCH  22  23
HETATM   23  C           1      -7.537   4.084 -30.019  0.00  0.00     0.218 C 
HETATM   24  N           1      -7.660   5.396 -29.646  0.00  0.00    -0.354 N 
HETATM   25  H           1      -7.764   6.089 -30.386  0.00  0.00     0.162 HD
HETATM   26  O           1      -7.358   3.185 -29.236  0.00  0.00    -0.274 OA
BRANCH  24  27
HETATM   27  C           1      -7.525   5.880 -28.265  0.00  0.00     0.108 C 
BRANCH  27  28
HETATM   28  C           1      -6.077   6.181 -27.866  0.00  0.00     0.189 C 
BRANCH  28  29
HETATM   29  O           1      -5.431   4.985 -27.476  0.00  0.00    -0.399 OA
HETATM   30  H           1      -5.516   4.872 -26.527  0.00  0.00     0.209 HD
ENDBRANCH  28  29
ENDBRANCH  27  28
BRANCH  27  31
HETATM   31  C           1      -8.467   7.063 -27.973  0.00  0.00     0.031 C 
BRANCH  31  32
HETATM   32  C           1      -9.061   7.807 -29.189  0.00  0.00    -0.021 C 
HETATM   33  C           1      -8.738   9.311 -29.160  0.00  0.00     0.009 C 
HETATM   34  C           1     -10.571   7.594 -29.386  0.00  0.00     0.009 C 
ENDBRANCH  31  32
ENDBRANCH  27  31
ENDBRANCH  24  27
ENDBRANCH  22  23
ENDBRANCH   1  22
BRANCH   4  35
HETATM   35  C           1     -12.091   2.882 -35.512  0.00  0.00     0.176 C 
BRANCH  35  36
HETATM   36  O           1     -12.491   1.819 -36.358  0.00  0.00    -0.400 OA
HETATM   37  H           1     -12.667   2.150 -37.240  0.00  0.00     0.209 HD
ENDBRANCH  35  36
ENDBRANCH   4  35
BRANCH   6  38
HETATM   38  O           1     -14.037   3.969 -33.765  0.00  0.00    -0.395 OA
HETATM   39  H           1     -14.402   4.713 -33.285  0.00  0.00     0.210 HD
ENDBRANCH   6  38
TORSDOF 10
ENDMDL
MODEL 10
REMARK VINA RESULT:      -7.2     16.623     18.088
REMARK  10 active torsions:
REMARK  status: ('A' for Active; 'I' for Inactive)
REMARK    1  A    between atoms: C_1  and  C_17 
REMARK    2  A    between atoms: C_4  and  C_5 
REMARK    3  A    between atoms: C_5  and  O_18 
REMARK    4  A    between atoms: C_6  and  C_11 
REMARK    5  A    between atoms: C_6  and  C_14 
REMARK    6  A    between atoms: C_6  and  N_15 
REMARK    7  A    between atoms: C_8  and  O_20 
REMARK    8  A    between atoms: C_11  and  O_34 
REMARK    9  A    between atoms: C_13  and  C_14 
REMARK       I    between atoms: N_15  and  C_16 
REMARK   10  A    between atoms: C_16  and  C_17 
ROOT
HETATM    1  C           1      -4.200 -13.813 -36.628  0.00  0.00     0.056 C 
HETATM    2  C           1      -4.896 -14.010 -38.021  0.00  0.00    -0.030 C 
HETATM    3  C           1      -4.755 -15.492 -38.435  0.00  0.00     0.016 C 
HETATM    4  C           1      -7.199 -13.227 -39.194  0.00  0.00     0.008 C 
HETATM    5  C           1      -6.389 -13.560 -37.893  0.00  0.00     0.012 C 
HETATM    6  C           1      -6.318 -12.365 -40.121  0.00  0.00     0.128 C 
HETATM    7  C           1      -4.177 -13.115 -39.060  0.00  0.00     0.013 C 
HETATM    8  C           1      -5.345 -15.617 -32.418  0.00  0.00     0.017 A 
HETATM    9  C           1      -8.435 -12.368 -38.802  0.00  0.00     0.020 C 
HETATM   10  C           1      -4.942 -12.965 -40.376  0.00  0.00     0.033 C 
HETATM   11  C           1      -7.159 -14.450 -36.891  0.00  0.00     0.054 C 
HETATM   12  C           1      -6.353 -14.690 -35.647  0.00  0.00     0.010 A 
HETATM   13  C           1      -5.051 -14.412 -35.540  0.00  0.00     0.054 A 
HETATM   14  N           1      -4.607 -14.728 -34.403  0.00  0.00    -0.244 NA
HETATM   15  C           1      -5.541 -15.209 -33.693  0.00  0.00     0.110 A 
HETATM   16  C           1      -4.134 -15.505 -31.829  0.00  0.00     0.130 A 
HETATM   17  N           1      -3.840 -15.860 -30.650  0.00  0.00    -0.272 NA
HETATM   18  C           1      -4.757 -16.364 -29.940  0.00  0.00     0.116 A 
HETATM   19  C           1      -6.010 -16.535 -30.381  0.00  0.00     0.020 A 
HETATM   20  C           1      -6.303 -16.154 -31.634  0.00  0.00     0.017 A 
HETATM   21  S           1      -6.834 -15.283 -34.397  0.00  0.00    -0.072 SA
ENDROOT
BRANCH   1  22
HETATM   22  C           1      -2.740 -14.310 -36.536  0.00  0.00     0.114 C 
BRANCH  22  23
HETATM   23  C           1      -1.742 -13.663 -37.488  0.00  0.00     0.218 C 
HETATM   24  N           1      -0.994 -14.569 -38.189  0.00  0.00    -0.354 N 
HETATM   25  H           1      -1.126 -15.558 -37.974  0.00  0.00     0.162 HD
HETATM   26  O           1      -1.633 -12.469 -37.620  0.00  0.00    -0.274 OA
BRANCH  24  27
HETATM   27  C           1       0.072 -14.211 -39.134  0.00  0.00     0.108 C 
BRANCH  27  28
HETATM   28  C           1       1.384 -14.964 -38.885  0.00  0.00     0.189 C 
BRANCH  28  29
HETATM   29  O           1       2.446 -14.041 -38.748  0.00  0.00    -0.399 OA
HETATM   30  H           1       2.408 -13.638 -37.878  0.00  0.00     0.209 HD
ENDBRANCH  28  29
ENDBRANCH  27  28
BRANCH  27  31
HETATM   31  C           1      -0.391 -14.318 -40.598  0.00  0.00     0.031 C 
BRANCH  31  32
HETATM   32  C           1      -1.568 -15.272 -40.895  0.00  0.00    -0.021 C 
HETATM   33  C           1      -1.092 -16.712 -41.158  0.00  0.00     0.009 C 
HETATM   34  C           1      -2.492 -14.805 -42.032  0.00  0.00     0.009 C 
ENDBRANCH  31  32
ENDBRANCH  27  31
ENDBRANCH  24  27
ENDBRANCH  22  23
ENDBRANCH   1  22
BRANCH   4  35
HETATM   35  C           1      -7.728 -14.471 -39.936  0.00  0.00     0.176 C 
BRANCH  35  36
HETATM   36  O           1      -8.900 -14.182 -40.677  0.00  0.00    -0.400 OA
HETATM   37  H           1      -9.647 -14.655 -40.305  0.00  0.00     0.209 HD
ENDBRANCH  35  36
ENDBRANCH   4  35
BRANCH   6  38
HETATM   38  O           1      -6.942 -12.156 -41.366  0.00  0.00    -0.395 OA
HETATM   39  H           1      -6.336 -11.724 -41.969  0.00  0.00     0.210 HD
ENDBRANCH   6  38
TORSDOF 10
ENDMDL
