MODEL 1
REMARK VINA RESULT:      -8.9      0.000      0.000
REMARK  4 active torsions:
REMARK  status: ('A' for Active; 'I' for Inactive)
REMARK    1  A    between atoms: C_3  and  N_4 
REMARK       I    between atoms: N_4  and  C_5 
REMARK    2  A    between atoms: C_5  and  C_6 
REMARK    3  A    between atoms: C_7  and  C_8 
REMARK    4  A    between atoms: C_11  and  O_12 
ROOT
HETATM    1  C   UNL     1      -8.366   1.742 -33.087  1.00  0.00     0.062 A 
HETATM    2  C   UNL     1      -7.832   3.145 -32.831  1.00  0.00     0.202 A 
HETATM    3  N   UNL     1      -8.676   3.873 -31.873  1.00  0.00    -0.083 N 
HETATM    4  C   UNL     1      -9.831   3.372 -31.337  1.00  0.00     0.726 A 
HETATM    5  N   UNL     1     -10.236   2.135 -31.678  1.00  0.00    -0.192 N 
HETATM    6  N   UNL     1      -8.477   5.154 -31.497  1.00  0.00    -0.141 NA
HETATM    7  C   UNL     1      -9.501   5.328 -30.648  1.00  0.00     0.162 A 
HETATM    8  C   UNL     1      -9.690   6.570 -29.871  1.00  0.00     0.096 C 
HETATM    9  N   UNL     1     -10.363   4.262 -30.540  1.00  0.00    -0.046 NA
HETATM   10  C   UNL     1      -9.514   1.298 -32.519  1.00  0.00     0.037 A 
HETATM   11  C   UNL     1     -10.098  -0.076 -32.737  1.00  0.00     0.070 C 
HETATM   12  H   UNL     1     -11.072   1.758 -31.239  1.00  0.00     0.184 HD
ENDROOT
BRANCH   1  13
HETATM   13  C   UNL     1      -7.517   0.821 -33.888  1.00  0.00     0.256 C 
HETATM   14  N   UNL     1      -7.059  -0.258 -33.163  1.00  0.00    -0.323 N 
HETATM   15  H   UNL     1      -7.264  -0.271 -32.176  1.00  0.00     0.169 HD
HETATM   16  O   UNL     1      -7.289   1.093 -35.061  1.00  0.00    -0.267 OA
BRANCH  14  17
HETATM   17  C   UNL     1      -6.296  -1.352 -33.645  1.00  0.00     0.041 A 
HETATM   18  C   UNL     1      -4.918  -1.414 -33.334  1.00  0.00    -0.035 A 
HETATM   19  C   UNL     1      -4.227  -0.363 -32.507  1.00  0.00     0.050 C 
HETATM   20  C   UNL     1      -4.153  -2.501 -33.796  1.00  0.00     0.009 A 
HETATM   21  C   UNL     1      -4.733  -3.514 -34.556  1.00  0.00     0.001 A 
HETATM   22  C   UNL     1      -6.086  -3.455 -34.860  1.00  0.00     0.002 A 
HETATM   23  C   UNL     1      -6.860  -2.383 -34.406  1.00  0.00     0.030 A 
ENDBRANCH  14  17
ENDBRANCH   1  13
BRANCH   2  24
HETATM   24  C   UNL     1      -6.372   3.179 -32.396  1.00  0.00    -0.028 A 
HETATM   25  C   UNL     1      -5.395   3.681 -33.269  1.00  0.00     0.012 A 
HETATM   26  C   UNL     1      -4.052   3.713 -32.889  1.00  0.00     0.037 A 
HETATM   27  C   UNL     1      -3.656   3.252 -31.633  1.00  0.00     0.068 A 
HETATM   28  C   UNL     1      -4.618   2.747 -30.759  1.00  0.00     0.037 A 
HETATM   29  C   UNL     1      -5.966   2.710 -31.137  1.00  0.00     0.012 A 
BRANCH  27  30
HETATM   30  O   UNL     1      -2.314   3.348 -31.388  1.00  0.00    -0.356 OA
HETATM   31  C   UNL     1      -1.738   4.645 -31.471  1.00  0.00     0.210 C 
ENDBRANCH  27  30
ENDBRANCH   2  24
TORSDOF 4
ENDMDL
MODEL 2
REMARK VINA RESULT:      -8.6      2.327      7.470
REMARK  4 active torsions:
REMARK  status: ('A' for Active; 'I' for Inactive)
REMARK    1  A    between atoms: C_3  and  N_4 
REMARK       I    between atoms: N_4  and  C_5 
REMARK    2  A    between atoms: C_5  and  C_6 
REMARK    3  A    between atoms: C_7  and  C_8 
REMARK    4  A    between atoms: C_11  and  O_12 
ROOT
HETATM    1  C   UNL     1      -5.195   0.696 -32.923  1.00  0.00     0.062 A 
HETATM    2  C   UNL     1      -6.072   0.094 -34.013  1.00  0.00     0.202 A 
HETATM    3  N   UNL     1      -5.790  -1.337 -34.196  1.00  0.00    -0.083 N 
HETATM    4  C   UNL     1      -4.816  -2.018 -33.519  1.00  0.00     0.726 A 
HETATM    5  N   UNL     1      -4.063  -1.368 -32.612  1.00  0.00    -0.192 N 
HETATM    6  N   UNL     1      -6.376  -2.119 -35.128  1.00  0.00    -0.141 NA
HETATM    7  C   UNL     1      -5.775  -3.293 -34.885  1.00  0.00     0.162 A 
HETATM    8  C   UNL     1      -6.137  -4.537 -35.594  1.00  0.00     0.096 C 
HETATM    9  N   UNL     1      -4.798  -3.264 -33.916  1.00  0.00    -0.046 NA
HETATM   10  C   UNL     1      -4.251  -0.033 -32.278  1.00  0.00     0.037 A 
HETATM   11  C   UNL     1      -3.349   0.506 -31.195  1.00  0.00     0.070 C 
HETATM   12  H   UNL     1      -3.373  -1.895 -32.084  1.00  0.00     0.184 HD
ENDROOT
BRANCH   1  13
HETATM   13  C   UNL     1      -5.495   2.088 -32.494  1.00  0.00     0.256 C 
HETATM   14  N   UNL     1      -6.041   2.157 -31.230  1.00  0.00    -0.323 N 
HETATM   15  H   UNL     1      -6.257   1.285 -30.773  1.00  0.00     0.169 HD
HETATM   16  O   UNL     1      -5.263   3.010 -33.266  1.00  0.00    -0.267 OA
BRANCH  14  17
HETATM   17  C   UNL     1      -6.367   3.330 -30.501  1.00  0.00     0.041 A 
HETATM   18  C   UNL     1      -7.729   3.666 -30.323  1.00  0.00    -0.035 A 
HETATM   19  C   UNL     1      -8.849   2.827 -30.874  1.00  0.00     0.050 C 
HETATM   20  C   UNL     1      -8.065   4.820 -29.591  1.00  0.00     0.009 A 
HETATM   21  C   UNL     1      -7.077   5.635 -29.043  1.00  0.00     0.001 A 
HETATM   22  C   UNL     1      -5.740   5.303 -29.215  1.00  0.00     0.002 A 
HETATM   23  C   UNL     1      -5.390   4.159 -29.937  1.00  0.00     0.030 A 
ENDBRANCH  14  17
ENDBRANCH   1  13
BRANCH   2  24
HETATM   24  C   UNL     1      -7.563   0.327 -33.805  1.00  0.00    -0.028 A 
HETATM   25  C   UNL     1      -8.241   1.262 -34.601  1.00  0.00     0.012 A 
HETATM   26  C   UNL     1      -9.606   1.492 -34.418  1.00  0.00     0.037 A 
HETATM   27  C   UNL     1     -10.322   0.794 -33.447  1.00  0.00     0.068 A 
HETATM   28  C   UNL     1      -9.658  -0.135 -32.646  1.00  0.00     0.037 A 
HETATM   29  C   UNL     1      -8.288  -0.368 -32.824  1.00  0.00     0.012 A 
BRANCH  27  30
HETATM   30  O   UNL     1     -11.651   1.111 -33.380  1.00  0.00    -0.356 OA
HETATM   31  C   UNL     1     -12.303   1.402 -34.609  1.00  0.00     0.210 C 
ENDBRANCH  27  30
ENDBRANCH   2  24
TORSDOF 4
ENDMDL
MODEL 3
REMARK VINA RESULT:      -8.4      3.191      7.442
REMARK  4 active torsions:
REMARK  status: ('A' for Active; 'I' for Inactive)
REMARK    1  A    between atoms: C_3  and  N_4 
REMARK       I    between atoms: N_4  and  C_5 
REMARK    2  A    between atoms: C_5  and  C_6 
REMARK    3  A    between atoms: C_7  and  C_8 
REMARK    4  A    between atoms: C_11  and  O_12 
ROOT
HETATM    1  C   UNL     1      -4.466   0.253 -32.732  1.00  0.00     0.062 A 
HETATM    2  C   UNL     1      -5.441  -0.130 -33.837  1.00  0.00     0.202 A 
HETATM    3  N   UNL     1      -5.389  -1.570 -34.122  1.00  0.00    -0.083 N 
HETATM    4  C   UNL     1      -4.523  -2.439 -33.516  1.00  0.00     0.726 A 
HETATM    5  N   UNL     1      -3.665  -1.978 -32.588  1.00  0.00    -0.192 N 
HETATM    6  N   UNL     1      -6.103  -2.186 -35.088  1.00  0.00    -0.141 NA
HETATM    7  C   UNL     1      -5.689  -3.453 -34.939  1.00  0.00     0.162 A 
HETATM    8  C   UNL     1      -6.251  -4.573 -35.719  1.00  0.00     0.096 C 
HETATM    9  N   UNL     1      -4.706  -3.642 -33.996  1.00  0.00    -0.046 NA
HETATM   10  C   UNL     1      -3.637  -0.657 -32.161  1.00  0.00     0.037 A 
HETATM   11  C   UNL     1      -2.645  -0.340 -31.069  1.00  0.00     0.070 C 
HETATM   12  H   UNL     1      -3.057  -2.641 -32.114  1.00  0.00     0.184 HD
ENDROOT
BRANCH   1  13
HETATM   13  C   UNL     1      -4.538   1.641 -32.204  1.00  0.00     0.256 C 
HETATM   14  N   UNL     1      -3.666   2.503 -32.833  1.00  0.00    -0.323 N 
HETATM   15  H   UNL     1      -3.026   2.104 -33.502  1.00  0.00     0.169 HD
HETATM   16  O   UNL     1      -5.313   1.888 -31.287  1.00  0.00    -0.267 OA
BRANCH  14  17
HETATM   17  C   UNL     1      -3.541   3.900 -32.621  1.00  0.00     0.041 A 
HETATM   18  C   UNL     1      -4.420   4.775 -33.298  1.00  0.00    -0.035 A 
HETATM   19  C   UNL     1      -5.488   4.283 -34.237  1.00  0.00     0.050 C 
HETATM   20  C   UNL     1      -4.314   6.162 -33.086  1.00  0.00     0.009 A 
HETATM   21  C   UNL     1      -3.355   6.684 -32.221  1.00  0.00     0.001 A 
HETATM   22  C   UNL     1      -2.493   5.824 -31.553  1.00  0.00     0.002 A 
HETATM   23  C   UNL     1      -2.587   4.444 -31.751  1.00  0.00     0.030 A 
ENDBRANCH  14  17
ENDBRANCH   1  13
BRANCH   2  24
HETATM   24  C   UNL     1      -6.875   0.316 -33.575  1.00  0.00    -0.028 A 
HETATM   25  C   UNL     1      -7.505   1.198 -34.465  1.00  0.00     0.012 A 
HETATM   26  C   UNL     1      -8.815   1.622 -34.237  1.00  0.00     0.037 A 
HETATM   27  C   UNL     1      -9.525   1.171 -33.124  1.00  0.00     0.068 A 
HETATM   28  C   UNL     1      -8.908   0.298 -32.230  1.00  0.00     0.037 A 
HETATM   29  C   UNL     1      -7.592  -0.128 -32.453  1.00  0.00     0.012 A 
BRANCH  27  30
HETATM   30  O   UNL     1     -10.800   1.658 -33.025  1.00  0.00    -0.356 OA
HETATM   31  C   UNL     1     -11.587   1.636 -34.208  1.00  0.00     0.210 C 
ENDBRANCH  27  30
ENDBRANCH   2  24
TORSDOF 4
ENDMDL
MODEL 4
REMARK VINA RESULT:      -8.4      2.611      6.210
REMARK  4 active torsions:
REMARK  status: ('A' for Active; 'I' for Inactive)
REMARK    1  A    between atoms: C_3  and  N_4 
REMARK       I    between atoms: N_4  and  C_5 
REMARK    2  A    between atoms: C_5  and  C_6 
REMARK    3  A    between atoms: C_7  and  C_8 
REMARK    4  A    between atoms: C_11  and  O_12 
ROOT
HETATM    1  C   UNL     1      -8.267   3.575 -32.548  1.00  0.00     0.062 A 
HETATM    2  C   UNL     1      -7.397   3.327 -33.773  1.00  0.00     0.202 A 
HETATM    3  N   UNL     1      -6.204   4.186 -33.766  1.00  0.00    -0.083 N 
HETATM    4  C   UNL     1      -5.950   5.134 -32.812  1.00  0.00     0.726 A 
HETATM    5  N   UNL     1      -6.819   5.302 -31.799  1.00  0.00    -0.192 N 
HETATM    6  N   UNL     1      -5.281   4.223 -34.750  1.00  0.00    -0.141 NA
HETATM    7  C   UNL     1      -4.439   5.149 -34.271  1.00  0.00     0.162 A 
HETATM    8  C   UNL     1      -3.176   5.506 -34.947  1.00  0.00     0.096 C 
HETATM    9  N   UNL     1      -4.827   5.743 -33.092  1.00  0.00    -0.046 NA
HETATM   10  C   UNL     1      -7.957   4.524 -31.630  1.00  0.00     0.037 A 
HETATM   11  C   UNL     1      -8.780   4.822 -30.401  1.00  0.00     0.070 C 
HETATM   12  H   UNL     1      -6.596   5.979 -31.074  1.00  0.00     0.184 HD
ENDROOT
BRANCH   1  13
HETATM   13  C   UNL     1      -9.409   2.651 -32.321  1.00  0.00     0.256 C 
HETATM   14  N   UNL     1     -10.463   2.875 -33.180  1.00  0.00    -0.323 N 
HETATM   15  H   UNL     1     -10.394   3.669 -33.797  1.00  0.00     0.169 HD
HETATM   16  O   UNL     1      -9.333   1.823 -31.421  1.00  0.00    -0.267 OA
BRANCH  14  17
HETATM   17  C   UNL     1     -11.663   2.125 -33.277  1.00  0.00     0.041 A 
HETATM   18  C   UNL     1     -12.891   2.759 -32.980  1.00  0.00    -0.035 A 
HETATM   19  C   UNL     1     -12.977   4.204 -32.566  1.00  0.00     0.050 C 
HETATM   20  C   UNL     1     -14.089   2.029 -33.085  1.00  0.00     0.009 A 
HETATM   21  C   UNL     1     -14.082   0.692 -33.475  1.00  0.00     0.001 A 
HETATM   22  C   UNL     1     -12.877   0.070 -33.770  1.00  0.00     0.002 A 
HETATM   23  C   UNL     1     -11.678   0.781 -33.673  1.00  0.00     0.030 A 
ENDBRANCH  14  17
ENDBRANCH   1  13
BRANCH   2  24
HETATM   24  C   UNL     1      -7.008   1.867 -33.968  1.00  0.00    -0.028 A 
HETATM   25  C   UNL     1      -6.060   1.278 -33.117  1.00  0.00     0.012 A 
HETATM   26  C   UNL     1      -5.687  -0.057 -33.286  1.00  0.00     0.037 A 
HETATM   27  C   UNL     1      -6.253  -0.832 -34.298  1.00  0.00     0.068 A 
HETATM   28  C   UNL     1      -7.192  -0.256 -35.153  1.00  0.00     0.037 A 
HETATM   29  C   UNL     1      -7.568   1.084 -34.989  1.00  0.00     0.012 A 
BRANCH  27  30
HETATM   30  O   UNL     1      -5.804  -2.123 -34.346  1.00  0.00    -0.356 OA
HETATM   31  C   UNL     1      -6.766  -3.125 -34.649  1.00  0.00     0.210 C 
ENDBRANCH  27  30
ENDBRANCH   2  24
TORSDOF 4
ENDMDL
MODEL 5
REMARK VINA RESULT:      -8.4      2.158      4.727
REMARK  4 active torsions:
REMARK  status: ('A' for Active; 'I' for Inactive)
REMARK    1  A    between atoms: C_3  and  N_4 
REMARK       I    between atoms: N_4  and  C_5 
REMARK    2  A    between atoms: C_5  and  C_6 
REMARK    3  A    between atoms: C_7  and  C_8 
REMARK    4  A    between atoms: C_11  and  O_12 
ROOT
HETATM    1  C   UNL     1      -5.732   1.803 -31.034  1.00  0.00     0.062 A 
HETATM    2  C   UNL     1      -7.036   2.550 -30.785  1.00  0.00     0.202 A 
HETATM    3  N   UNL     1      -6.798   3.985 -30.574  1.00  0.00    -0.083 N 
HETATM    4  C   UNL     1      -5.555   4.558 -30.539  1.00  0.00     0.726 A 
HETATM    5  N   UNL     1      -4.467   3.787 -30.720  1.00  0.00    -0.192 N 
HETATM    6  N   UNL     1      -7.759   4.886 -30.280  1.00  0.00    -0.141 NA
HETATM    7  C   UNL     1      -7.031   6.008 -30.180  1.00  0.00     0.162 A 
HETATM    8  C   UNL     1      -7.638   7.335 -29.952  1.00  0.00     0.096 C 
HETATM    9  N   UNL     1      -5.672   5.841 -30.315  1.00  0.00    -0.046 NA
HETATM   10  C   UNL     1      -4.529   2.427 -30.995  1.00  0.00     0.037 A 
HETATM   11  C   UNL     1      -3.205   1.743 -31.226  1.00  0.00     0.070 C 
HETATM   12  H   UNL     1      -3.553   4.232 -30.736  1.00  0.00     0.184 HD
ENDROOT
BRANCH   1  13
HETATM   13  C   UNL     1      -5.828   0.378 -31.448  1.00  0.00     0.256 C 
HETATM   14  N   UNL     1      -5.425   0.167 -32.749  1.00  0.00    -0.323 N 
HETATM   15  H   UNL     1      -5.197   0.980 -33.299  1.00  0.00     0.169 HD
HETATM   16  O   UNL     1      -6.255  -0.446 -30.648  1.00  0.00    -0.267 OA
BRANCH  14  17
HETATM   17  C   UNL     1      -5.323  -1.078 -33.423  1.00  0.00     0.041 A 
HETATM   18  C   UNL     1      -6.319  -1.430 -34.361  1.00  0.00    -0.035 A 
HETATM   19  C   UNL     1      -7.486  -0.535 -34.678  1.00  0.00     0.050 C 
HETATM   20  C   UNL     1      -6.221  -2.656 -35.045  1.00  0.00     0.009 A 
HETATM   21  C   UNL     1      -5.160  -3.526 -34.809  1.00  0.00     0.001 A 
HETATM   22  C   UNL     1      -4.180  -3.179 -33.889  1.00  0.00     0.002 A 
HETATM   23  C   UNL     1      -4.261  -1.964 -33.204  1.00  0.00     0.030 A 
ENDBRANCH  14  17
ENDBRANCH   1  13
BRANCH   2  24
HETATM   24  C   UNL     1      -8.088   2.332 -31.865  1.00  0.00    -0.028 A 
HETATM   25  C   UNL     1      -9.148   1.442 -31.636  1.00  0.00     0.012 A 
HETATM   26  C   UNL     1     -10.117   1.226 -32.618  1.00  0.00     0.037 A 
HETATM   27  C   UNL     1     -10.053   1.893 -33.841  1.00  0.00     0.068 A 
HETATM   28  C   UNL     1      -9.001   2.776 -34.081  1.00  0.00     0.037 A 
HETATM   29  C   UNL     1      -8.025   2.995 -33.101  1.00  0.00     0.012 A 
BRANCH  27  30
HETATM   30  O   UNL     1     -11.069   1.593 -34.707  1.00  0.00    -0.356 OA
HETATM   31  C   UNL     1     -12.364   1.435 -34.145  1.00  0.00     0.210 C 
ENDBRANCH  27  30
ENDBRANCH   2  24
TORSDOF 4
ENDMDL
MODEL 6
REMARK VINA RESULT:      -8.3     15.635     18.600
REMARK  4 active torsions:
REMARK  status: ('A' for Active; 'I' for Inactive)
REMARK    1  A    between atoms: C_3  and  N_4 
REMARK       I    between atoms: N_4  and  C_5 
REMARK    2  A    between atoms: C_5  and  C_6 
REMARK    3  A    between atoms: C_7  and  C_8 
REMARK    4  A    between atoms: C_11  and  O_12 
ROOT
HETATM    1  C   UNL     1      -3.606 -13.749 -39.652  1.00  0.00     0.062 A 
HETATM    2  C   UNL     1      -4.333 -13.454 -40.957  1.00  0.00     0.202 A 
HETATM    3  N   UNL     1      -3.864 -14.328 -42.041  1.00  0.00    -0.083 N 
HETATM    4  C   UNL     1      -2.854 -15.241 -41.905  1.00  0.00     0.726 A 
HETATM    5  N   UNL     1      -2.244 -15.379 -40.713  1.00  0.00    -0.192 N 
HETATM    6  N   UNL     1      -4.290 -14.259 -43.320  1.00  0.00    -0.141 NA
HETATM    7  C   UNL     1      -3.562 -15.235 -43.882  1.00  0.00     0.162 A 
HETATM    8  C   UNL     1      -3.723 -15.639 -45.293  1.00  0.00     0.096 C 
HETATM    9  N   UNL     1      -2.656 -15.847 -43.046  1.00  0.00    -0.046 NA
HETATM   10  C   UNL     1      -2.617 -14.673 -39.576  1.00  0.00     0.037 A 
HETATM   11  C   UNL     1      -1.855 -15.006 -38.317  1.00  0.00     0.070 C 
HETATM   12  H   UNL     1      -1.525 -16.091 -40.613  1.00  0.00     0.184 HD
ENDROOT
BRANCH   1  13
HETATM   13  C   UNL     1      -4.102 -13.074 -38.424  1.00  0.00     0.256 C 
HETATM   14  N   UNL     1      -4.827 -13.913 -37.604  1.00  0.00    -0.323 N 
HETATM   15  H   UNL     1      -5.016 -14.842 -37.947  1.00  0.00     0.169 HD
HETATM   16  O   UNL     1      -3.857 -11.886 -38.258  1.00  0.00    -0.267 OA
BRANCH  14  17
HETATM   17  C   UNL     1      -5.371 -13.606 -36.330  1.00  0.00     0.041 A 
HETATM   18  C   UNL     1      -6.769 -13.693 -36.146  1.00  0.00    -0.035 A 
HETATM   19  C   UNL     1      -7.708 -14.102 -37.249  1.00  0.00     0.050 C 
HETATM   20  C   UNL     1      -7.319 -13.403 -34.883  1.00  0.00     0.009 A 
HETATM   21  C   UNL     1      -6.506 -13.030 -33.816  1.00  0.00     0.001 A 
HETATM   22  C   UNL     1      -5.132 -12.947 -33.996  1.00  0.00     0.002 A 
HETATM   23  C   UNL     1      -4.570 -13.234 -35.243  1.00  0.00     0.030 A 
ENDBRANCH  14  17
ENDBRANCH   1  13
BRANCH   2  24
HETATM   24  C   UNL     1      -5.851 -13.506 -40.843  1.00  0.00    -0.028 A 
HETATM   25  C   UNL     1      -6.512 -14.744 -40.880  1.00  0.00     0.012 A 
HETATM   26  C   UNL     1      -7.903 -14.809 -40.783  1.00  0.00     0.037 A 
HETATM   27  C   UNL     1      -8.662 -13.648 -40.641  1.00  0.00     0.068 A 
HETATM   28  C   UNL     1      -8.017 -12.412 -40.607  1.00  0.00     0.037 A 
HETATM   29  C   UNL     1      -6.622 -12.341 -40.707  1.00  0.00     0.012 A 
BRANCH  27  30
HETATM   30  O   UNL     1     -10.011 -13.856 -40.550  1.00  0.00    -0.356 OA
HETATM   31  C   UNL     1     -10.813 -12.727 -40.231  1.00  0.00     0.210 C 
ENDBRANCH  27  30
ENDBRANCH   2  24
TORSDOF 4
ENDMDL
MODEL 7
REMARK VINA RESULT:      -8.0      1.872      4.705
REMARK  4 active torsions:
REMARK  status: ('A' for Active; 'I' for Inactive)
REMARK    1  A    between atoms: C_3  and  N_4 
REMARK       I    between atoms: N_4  and  C_5 
REMARK    2  A    between atoms: C_5  and  C_6 
REMARK    3  A    between atoms: C_7  and  C_8 
REMARK    4  A    between atoms: C_11  and  O_12 
ROOT
HETATM    1  C   UNL     1      -6.716   2.679 -32.873  1.00  0.00     0.062 A 
HETATM    2  C   UNL     1      -8.025   2.767 -32.100  1.00  0.00     0.202 A 
HETATM    3  N   UNL     1      -8.160   4.063 -31.421  1.00  0.00    -0.083 N 
HETATM    4  C   UNL     1      -7.197   5.036 -31.430  1.00  0.00     0.726 A 
HETATM    5  N   UNL     1      -6.052   4.826 -32.106  1.00  0.00    -0.192 N 
HETATM    6  N   UNL     1      -9.191   4.405 -30.620  1.00  0.00    -0.141 NA
HETATM    7  C   UNL     1      -8.830   5.645 -30.259  1.00  0.00     0.162 A 
HETATM    8  C   UNL     1      -9.688   6.517 -29.431  1.00  0.00     0.096 C 
HETATM    9  N   UNL     1      -7.603   6.058 -30.723  1.00  0.00    -0.046 NA
HETATM   10  C   UNL     1      -5.803   3.681 -32.852  1.00  0.00     0.037 A 
HETATM   11  C   UNL     1      -4.487   3.652 -33.590  1.00  0.00     0.070 C 
HETATM   12  H   UNL     1      -5.364   5.574 -32.142  1.00  0.00     0.184 HD
ENDROOT
BRANCH   1  13
HETATM   13  C   UNL     1      -6.523   1.503 -33.762  1.00  0.00     0.256 C 
HETATM   14  N   UNL     1      -6.154   0.365 -33.078  1.00  0.00    -0.323 N 
HETATM   15  H   UNL     1      -5.972   0.459 -32.091  1.00  0.00     0.169 HD
HETATM   16  O   UNL     1      -6.680   1.639 -34.970  1.00  0.00    -0.267 OA
BRANCH  14  17
HETATM   17  C   UNL     1      -5.967  -0.935 -33.616  1.00  0.00     0.041 A 
HETATM   18  C   UNL     1      -4.661  -1.473 -33.662  1.00  0.00    -0.035 A 
HETATM   19  C   UNL     1      -3.457  -0.722 -33.161  1.00  0.00     0.050 C 
HETATM   20  C   UNL     1      -4.465  -2.766 -34.181  1.00  0.00     0.009 A 
HETATM   21  C   UNL     1      -5.537  -3.521 -34.651  1.00  0.00     0.001 A 
HETATM   22  C   UNL     1      -6.821  -2.993 -34.603  1.00  0.00     0.002 A 
HETATM   23  C   UNL     1      -7.032  -1.711 -34.088  1.00  0.00     0.030 A 
ENDBRANCH  14  17
ENDBRANCH   1  13
BRANCH   2  24
HETATM   24  C   UNL     1      -9.260   2.470 -32.942  1.00  0.00    -0.028 A 
HETATM   25  C   UNL     1      -9.670   3.382 -33.926  1.00  0.00     0.012 A 
HETATM   26  C   UNL     1     -10.803   3.128 -34.701  1.00  0.00     0.037 A 
HETATM   27  C   UNL     1     -11.544   1.961 -34.518  1.00  0.00     0.068 A 
HETATM   28  C   UNL     1     -11.149   1.049 -33.540  1.00  0.00     0.037 A 
HETATM   29  C   UNL     1     -10.014   1.300 -32.757  1.00  0.00     0.012 A 
BRANCH  27  30
HETATM   30  O   UNL     1     -12.624   1.835 -35.348  1.00  0.00    -0.356 OA
HETATM   31  C   UNL     1     -13.781   1.214 -34.804  1.00  0.00     0.210 C 
ENDBRANCH  27  30
ENDBRANCH   2  24
TORSDOF 4
ENDMDL
MODEL 8
REMARK VINA RESULT:      -7.8      2.086      2.398
REMARK  4 active torsions:
REMARK  status: ('A' for Active; 'I' for Inactive)
REMARK    1  A    between atoms: C_3  and  N_4 
REMARK       I    between atoms: N_4  and  C_5 
REMARK    2  A    between atoms: C_5  and  C_6 
REMARK    3  A    between atoms: C_7  and  C_8 
REMARK    4  A    between atoms: C_11  and  O_12 
ROOT
HETATM    1  C   UNL     1      -9.153   1.291 -33.732  1.00  0.00     0.062 A 
HETATM    2  C   UNL     1      -8.525   2.591 -34.215  1.00  0.00     0.202 A 
HETATM    3  N   UNL     1      -9.536   3.644 -34.381  1.00  0.00    -0.083 N 
HETATM    4  C   UNL     1     -10.877   3.454 -34.191  1.00  0.00     0.726 A 
HETATM    5  N   UNL     1     -11.326   2.243 -33.814  1.00  0.00    -0.192 N 
HETATM    6  N   UNL     1      -9.279   4.886 -34.847  1.00  0.00    -0.141 NA
HETATM    7  C   UNL     1     -10.507   5.425 -34.815  1.00  0.00     0.162 A 
HETATM    8  C   UNL     1     -10.765   6.840 -35.151  1.00  0.00     0.096 C 
HETATM    9  N   UNL     1     -11.515   4.570 -34.435  1.00  0.00    -0.046 NA
HETATM   10  C   UNL     1     -10.491   1.165 -33.552  1.00  0.00     0.037 A 
HETATM   11  C   UNL     1     -11.174  -0.096 -33.083  1.00  0.00     0.070 C 
HETATM   12  H   UNL     1     -12.320   2.127 -33.633  1.00  0.00     0.184 HD
ENDROOT
BRANCH   1  13
HETATM   13  C   UNL     1      -8.234   0.190 -33.339  1.00  0.00     0.256 C 
HETATM   14  N   UNL     1      -7.617  -0.408 -34.417  1.00  0.00    -0.323 N 
HETATM   15  H   UNL     1      -7.905  -0.111 -35.336  1.00  0.00     0.169 HD
HETATM   16  O   UNL     1      -8.120  -0.094 -32.153  1.00  0.00    -0.267 OA
BRANCH  14  17
HETATM   17  C   UNL     1      -6.633  -1.429 -34.383  1.00  0.00     0.041 A 
HETATM   18  C   UNL     1      -5.355  -1.129 -33.858  1.00  0.00    -0.035 A 
HETATM   19  C   UNL     1      -4.996   0.234 -33.330  1.00  0.00     0.050 C 
HETATM   20  C   UNL     1      -4.375  -2.137 -33.807  1.00  0.00     0.009 A 
HETATM   21  C   UNL     1      -4.645  -3.424 -34.267  1.00  0.00     0.001 A 
HETATM   22  C   UNL     1      -5.900  -3.720 -34.780  1.00  0.00     0.002 A 
HETATM   23  C   UNL     1      -6.886  -2.730 -34.835  1.00  0.00     0.030 A 
ENDBRANCH  14  17
ENDBRANCH   1  13
BRANCH   2  24
HETATM   24  C   UNL     1      -7.375   3.081 -33.344  1.00  0.00    -0.028 A 
HETATM   25  C   UNL     1      -7.556   3.216 -31.959  1.00  0.00     0.012 A 
HETATM   26  C   UNL     1      -6.515   3.670 -31.147  1.00  0.00     0.037 A 
HETATM   27  C   UNL     1      -5.274   3.993 -31.695  1.00  0.00     0.068 A 
HETATM   28  C   UNL     1      -5.083   3.867 -33.071  1.00  0.00     0.037 A 
HETATM   29  C   UNL     1      -6.125   3.414 -33.890  1.00  0.00     0.012 A 
BRANCH  27  30
HETATM   30  O   UNL     1      -4.343   4.417 -30.788  1.00  0.00    -0.356 OA
HETATM   31  C   UNL     1      -3.313   5.266 -31.276  1.00  0.00     0.210 C 
ENDBRANCH  27  30
ENDBRANCH   2  24
TORSDOF 4
ENDMDL
MODEL 9
REMARK VINA RESULT:      -7.7     16.052     18.582
REMARK  4 active torsions:
REMARK  status: ('A' for Active; 'I' for Inactive)
REMARK    1  A    between atoms: C_3  and  N_4 
REMARK       I    between atoms: N_4  and  C_5 
REMARK    2  A    between atoms: C_5  and  C_6 
REMARK    3  A    between atoms: C_7  and  C_8 
REMARK    4  A    between atoms: C_11  and  O_12 
ROOT
HETATM    1  C   UNL     1      -3.064 -13.624 -36.925  1.00  0.00     0.062 A 
HETATM    2  C   UNL     1      -1.746 -14.010 -37.584  1.00  0.00     0.202 A 
HETATM    3  N   UNL     1      -0.966 -14.917 -36.731  1.00  0.00    -0.083 N 
HETATM    4  C   UNL     1      -1.349 -15.306 -35.476  1.00  0.00     0.726 A 
HETATM    5  N   UNL     1      -2.514 -14.858 -34.972  1.00  0.00    -0.192 N 
HETATM    6  N   UNL     1       0.265 -15.382 -37.031  1.00  0.00    -0.141 NA
HETATM    7  C   UNL     1       0.522 -16.132 -35.950  1.00  0.00     0.162 A 
HETATM    8  C   UNL     1       1.743 -16.953 -35.820  1.00  0.00     0.096 C 
HETATM    9  N   UNL     1      -0.439 -16.094 -34.966  1.00  0.00    -0.046 NA
HETATM   10  C   UNL     1      -3.393 -14.049 -35.680  1.00  0.00     0.037 A 
HETATM   11  C   UNL     1      -4.678 -13.697 -34.971  1.00  0.00     0.070 C 
HETATM   12  H   UNL     1      -2.808 -15.189 -34.057  1.00  0.00     0.184 HD
ENDROOT
BRANCH   1  13
HETATM   13  C   UNL     1      -4.043 -12.863 -37.745  1.00  0.00     0.256 C 
HETATM   14  N   UNL     1      -5.148 -13.609 -38.095  1.00  0.00    -0.323 N 
HETATM   15  H   UNL     1      -5.144 -14.585 -37.844  1.00  0.00     0.169 HD
HETATM   16  O   UNL     1      -3.791 -11.702 -38.044  1.00  0.00    -0.267 OA
BRANCH  14  17
HETATM   17  C   UNL     1      -6.293 -13.162 -38.803  1.00  0.00     0.041 A 
HETATM   18  C   UNL     1      -6.209 -12.999 -40.204  1.00  0.00    -0.035 A 
HETATM   19  C   UNL     1      -4.950 -13.284 -40.979  1.00  0.00     0.050 C 
HETATM   20  C   UNL     1      -7.342 -12.569 -40.920  1.00  0.00     0.009 A 
HETATM   21  C   UNL     1      -8.542 -12.299 -40.267  1.00  0.00     0.001 A 
HETATM   22  C   UNL     1      -8.626 -12.462 -38.890  1.00  0.00     0.002 A 
HETATM   23  C   UNL     1      -7.511 -12.891 -38.166  1.00  0.00     0.030 A 
ENDBRANCH  14  17
ENDBRANCH   1  13
BRANCH   2  24
HETATM   24  C   UNL     1      -1.904 -14.591 -38.984  1.00  0.00    -0.028 A 
HETATM   25  C   UNL     1      -1.361 -13.913 -40.086  1.00  0.00     0.012 A 
HETATM   26  C   UNL     1      -1.503 -14.428 -41.376  1.00  0.00     0.037 A 
HETATM   27  C   UNL     1      -2.180 -15.628 -41.594  1.00  0.00     0.068 A 
HETATM   28  C   UNL     1      -2.727 -16.308 -40.506  1.00  0.00     0.037 A 
HETATM   29  C   UNL     1      -2.590 -15.794 -39.210  1.00  0.00     0.012 A 
BRANCH  27  30
HETATM   30  O   UNL     1      -2.238 -16.020 -42.903  1.00  0.00    -0.356 OA
HETATM   31  C   UNL     1      -3.362 -15.580 -43.653  1.00  0.00     0.210 C 
ENDBRANCH  27  30
ENDBRANCH   2  24
TORSDOF 4
ENDMDL
MODEL 10
REMARK VINA RESULT:      -7.6      2.437      3.238
REMARK  4 active torsions:
REMARK  status: ('A' for Active; 'I' for Inactive)
REMARK    1  A    between atoms: C_3  and  N_4 
REMARK       I    between atoms: N_4  and  C_5 
REMARK    2  A    between atoms: C_5  and  C_6 
REMARK    3  A    between atoms: C_7  and  C_8 
REMARK    4  A    between atoms: C_11  and  O_12 
ROOT
HETATM    1  C   UNL     1      -8.350   1.756 -33.183  1.00  0.00     0.062 A 
HETATM    2  C   UNL     1      -7.889   3.156 -33.564  1.00  0.00     0.202 A 
HETATM    3  N   UNL     1      -8.993   3.949 -34.122  1.00  0.00    -0.083 N 
HETATM    4  C   UNL     1     -10.255   3.463 -34.334  1.00  0.00     0.726 A 
HETATM    5  N   UNL     1     -10.534   2.188 -34.007  1.00  0.00    -0.192 N 
HETATM    6  N   UNL     1      -8.869   5.208 -34.595  1.00  0.00    -0.141 NA
HETATM    7  C   UNL     1     -10.128   5.455 -34.986  1.00  0.00     0.162 A 
HETATM    8  C   UNL     1     -10.558   6.768 -35.508  1.00  0.00     0.096 C 
HETATM    9  N   UNL     1     -11.001   4.399 -34.858  1.00  0.00    -0.046 NA
HETATM   10  C   UNL     1      -9.618   1.332 -33.409  1.00  0.00     0.037 A 
HETATM   11  C   UNL     1     -10.133  -0.043 -33.061  1.00  0.00     0.070 C 
HETATM   12  H   UNL     1     -11.487   1.852 -34.128  1.00  0.00     0.184 HD
ENDROOT
BRANCH   1  13
HETATM   13  C   UNL     1      -7.393   0.900 -32.433  1.00  0.00     0.256 C 
HETATM   14  N   UNL     1      -6.322   0.491 -33.198  1.00  0.00    -0.323 N 
HETATM   15  H   UNL     1      -6.337   0.730 -34.177  1.00  0.00     0.169 HD
HETATM   16  O   UNL     1      -7.632   0.626 -31.263  1.00  0.00    -0.267 OA
BRANCH  14  17
HETATM   17  C   UNL     1      -5.201  -0.265 -32.768  1.00  0.00     0.041 A 
HETATM   18  C   UNL     1      -4.985  -1.545 -33.327  1.00  0.00    -0.035 A 
HETATM   19  C   UNL     1      -5.897  -2.139 -34.367  1.00  0.00     0.050 C 
HETATM   20  C   UNL     1      -3.869  -2.298 -32.918  1.00  0.00     0.009 A 
HETATM   21  C   UNL     1      -2.978  -1.803 -31.969  1.00  0.00     0.001 A 
HETATM   22  C   UNL     1      -3.189  -0.544 -31.421  1.00  0.00     0.002 A 
HETATM   23  C   UNL     1      -4.290   0.218 -31.819  1.00  0.00     0.030 A 
ENDBRANCH  14  17
ENDBRANCH   1  13
BRANCH   2  24
HETATM   24  C   UNL     1      -7.205   3.910 -32.430  1.00  0.00    -0.028 A 
HETATM   25  C   UNL     1      -7.925   4.229 -31.269  1.00  0.00     0.012 A 
HETATM   26  C   UNL     1      -7.315   4.925 -30.224  1.00  0.00     0.037 A 
HETATM   27  C   UNL     1      -5.977   5.311 -30.311  1.00  0.00     0.068 A 
HETATM   28  C   UNL     1      -5.253   5.003 -31.461  1.00  0.00     0.037 A 
HETATM   29  C   UNL     1      -5.861   4.307 -32.514  1.00  0.00     0.012 A 
BRANCH  27  30
HETATM   30  O   UNL     1      -5.505   5.979 -29.215  1.00  0.00    -0.356 OA
HETATM   31  C   UNL     1      -6.334   7.003 -28.682  1.00  0.00     0.210 C 
ENDBRANCH  27  30
ENDBRANCH   2  24
TORSDOF 4
ENDMDL
