MODEL 1
REMARK VINA RESULT:      -7.7      0.000      0.000
REMARK  5 active torsions:
REMARK  status: ('A' for Active; 'I' for Inactive)
REMARK    1  A    between atoms: C_2  and  C_3 
REMARK    2  A    between atoms: C_3  and  N_4 
REMARK       I    between atoms: N_4  and  C_5 
REMARK    3  A    between atoms: C_5  and  C_6 
REMARK    4  A    between atoms: C_7  and  O_8 
REMARK    5  A    between atoms: O_8  and  C_9 
ROOT
HETATM    1  C   UNL     1      -2.484   5.370 -32.626  1.00  0.00     0.121 C 
HETATM    2  C   UNL     1      -2.432   6.860 -32.516  1.00  0.00     0.091 C 
HETATM    3  N   UNL     1      -2.429   8.017 -32.421  1.00  0.00    -0.195 NA
HETATM    4  C   UNL     1      -1.359   4.809 -31.733  1.00  0.00     0.055 C 
ENDROOT
BRANCH   1   5
HETATM    5  C   UNL     1      -2.304   4.939 -34.126  1.00  0.00     0.020 C 
HETATM    6  C   UNL     1      -1.058   5.531 -34.800  1.00  0.00     0.013 C 
HETATM    7  C   UNL     1      -3.537   5.253 -34.991  1.00  0.00     0.013 C 
ENDBRANCH   1   5
BRANCH   1   8
HETATM    8  N   UNL     1      -3.801   4.928 -32.107  1.00  0.00    -0.335 N 
HETATM    9  C   UNL     1      -4.133   3.623 -31.829  1.00  0.00     0.257 C 
HETATM   10  O   UNL     1      -3.338   2.696 -31.940  1.00  0.00    -0.267 OA
HETATM   11  H   UNL     1      -4.515   5.642 -32.003  1.00  0.00     0.164 HD
BRANCH   9  12
HETATM   12  C   UNL     1      -5.538   3.328 -31.435  1.00  0.00     0.085 A 
HETATM   13  C   UNL     1      -6.483   2.692 -32.238  1.00  0.00     0.185 A 
HETATM   14  N   UNL     1      -7.742   2.395 -31.818  1.00  0.00    -0.236 NA
HETATM   15  C   UNL     1      -8.090   2.776 -30.571  1.00  0.00     0.119 A 
HETATM   16  C   UNL     1      -7.236   3.439 -29.710  1.00  0.00     0.020 A 
HETATM   17  C   UNL     1      -5.945   3.717 -30.151  1.00  0.00     0.023 A 
BRANCH  13  18
HETATM   18  O   UNL     1      -6.108   2.301 -33.519  1.00  0.00    -0.291 OA
BRANCH  18  19
HETATM   19  C   UNL     1      -6.204   0.966 -33.833  1.00  0.00     0.078 A 
HETATM   20  C   UNL     1      -5.440  -0.008 -33.185  1.00  0.00     0.039 A 
HETATM   21  C   UNL     1      -5.609  -1.356 -33.514  1.00  0.00     0.026 A 
HETATM   22  C   UNL     1      -6.556  -1.720 -34.470  1.00  0.00     0.034 A 
HETATM   23 CL   UNL     1      -6.761  -3.380 -34.877  1.00  0.00    -0.084 Cl
HETATM   24  C   UNL     1      -7.343  -0.753 -35.094  1.00  0.00     0.026 A 
HETATM   25  C   UNL     1      -7.172   0.595 -34.768  1.00  0.00     0.039 A 
ENDBRANCH  18  19
ENDBRANCH  13  18
ENDBRANCH   9  12
ENDBRANCH   1   8
TORSDOF 5
ENDMDL
MODEL 2
REMARK VINA RESULT:      -7.5      1.817      2.367
REMARK  5 active torsions:
REMARK  status: ('A' for Active; 'I' for Inactive)
REMARK    1  A    between atoms: C_2  and  C_3 
REMARK    2  A    between atoms: C_3  and  N_4 
REMARK       I    between atoms: N_4  and  C_5 
REMARK    3  A    between atoms: C_5  and  C_6 
REMARK    4  A    between atoms: C_7  and  O_8 
REMARK    5  A    between atoms: O_8  and  C_9 
ROOT
HETATM    1  C   UNL     1      -2.123   4.958 -32.457  1.00  0.00     0.121 C 
HETATM    2  C   UNL     1      -0.764   4.976 -31.833  1.00  0.00     0.091 C 
HETATM    3  N   UNL     1       0.278   4.964 -31.322  1.00  0.00    -0.195 NA
HETATM    4  C   UNL     1      -1.929   4.676 -33.961  1.00  0.00     0.055 C 
ENDROOT
BRANCH   1   5
HETATM    5  C   UNL     1      -2.841   6.334 -32.214  1.00  0.00     0.020 C 
HETATM    6  C   UNL     1      -2.076   7.544 -32.772  1.00  0.00     0.013 C 
HETATM    7  C   UNL     1      -3.162   6.587 -30.730  1.00  0.00     0.013 C 
ENDBRANCH   1   5
BRANCH   1   8
HETATM    8  N   UNL     1      -2.888   3.850 -31.835  1.00  0.00    -0.335 N 
HETATM    9  C   UNL     1      -4.087   3.368 -32.305  1.00  0.00     0.257 C 
HETATM   10  O   UNL     1      -4.616   3.787 -33.330  1.00  0.00    -0.267 OA
HETATM   11  H   UNL     1      -2.514   3.463 -30.974  1.00  0.00     0.164 HD
BRANCH   9  12
HETATM   12  C   UNL     1      -4.791   2.337 -31.496  1.00  0.00     0.085 A 
HETATM   13  C   UNL     1      -4.866   0.981 -31.810  1.00  0.00     0.185 A 
HETATM   14  N   UNL     1      -5.476   0.062 -31.014  1.00  0.00    -0.236 NA
HETATM   15  C   UNL     1      -6.066   0.508 -29.885  1.00  0.00     0.119 A 
HETATM   16  C   UNL     1      -6.073   1.836 -29.502  1.00  0.00     0.020 A 
HETATM   17  C   UNL     1      -5.427   2.759 -30.320  1.00  0.00     0.023 A 
BRANCH  13  18
HETATM   18  O   UNL     1      -4.250   0.535 -32.974  1.00  0.00    -0.291 OA
BRANCH  18  19
HETATM   19  C   UNL     1      -4.741  -0.608 -33.560  1.00  0.00     0.078 A 
HETATM   20  C   UNL     1      -4.047  -1.821 -33.523  1.00  0.00     0.039 A 
HETATM   21  C   UNL     1      -4.613  -2.962 -34.098  1.00  0.00     0.026 A 
HETATM   22  C   UNL     1      -5.878  -2.888 -34.681  1.00  0.00     0.034 A 
HETATM   23 CL   UNL     1      -6.572  -4.293 -35.391  1.00  0.00    -0.084 Cl
HETATM   24  C   UNL     1      -6.586  -1.687 -34.688  1.00  0.00     0.026 A 
HETATM   25  C   UNL     1      -6.019  -0.544 -34.117  1.00  0.00     0.039 A 
ENDBRANCH  18  19
ENDBRANCH  13  18
ENDBRANCH   9  12
ENDBRANCH   1   8
TORSDOF 5
ENDMDL
MODEL 3
REMARK VINA RESULT:      -7.5      2.392      3.316
REMARK  5 active torsions:
REMARK  status: ('A' for Active; 'I' for Inactive)
REMARK    1  A    between atoms: C_2  and  C_3 
REMARK    2  A    between atoms: C_3  and  N_4 
REMARK       I    between atoms: N_4  and  C_5 
REMARK    3  A    between atoms: C_5  and  C_6 
REMARK    4  A    between atoms: C_7  and  O_8 
REMARK    5  A    between atoms: O_8  and  C_9 
ROOT
HETATM    1  C   UNL     1      -4.442   4.164 -33.034  1.00  0.00     0.121 C 
HETATM    2  C   UNL     1      -4.262   4.766 -34.391  1.00  0.00     0.091 C 
HETATM    3  N   UNL     1      -4.147   5.206 -35.459  1.00  0.00    -0.195 NA
HETATM    4  C   UNL     1      -4.826   5.311 -32.076  1.00  0.00     0.055 C 
ENDROOT
BRANCH   1   5
HETATM    5  C   UNL     1      -3.116   3.453 -32.584  1.00  0.00     0.020 C 
HETATM    6  C   UNL     1      -3.321   2.364 -31.521  1.00  0.00     0.013 C 
HETATM    7  C   UNL     1      -2.047   4.442 -32.086  1.00  0.00     0.013 C 
ENDBRANCH   1   5
BRANCH   1   8
HETATM    8  N   UNL     1      -5.557   3.191 -33.119  1.00  0.00    -0.335 N 
HETATM    9  C   UNL     1      -6.831   3.496 -33.537  1.00  0.00     0.257 C 
HETATM   10  O   UNL     1      -7.152   4.611 -33.932  1.00  0.00    -0.267 OA
HETATM   11  H   UNL     1      -5.367   2.247 -32.795  1.00  0.00     0.164 HD
BRANCH   9  12
HETATM   12  C   UNL     1      -7.870   2.434 -33.445  1.00  0.00     0.085 A 
HETATM   13  C   UNL     1      -7.772   1.162 -34.007  1.00  0.00     0.185 A 
HETATM   14  N   UNL     1      -8.724   0.202 -33.854  1.00  0.00    -0.236 NA
HETATM   15  C   UNL     1      -9.829   0.526 -33.151  1.00  0.00     0.119 A 
HETATM   16  C   UNL     1     -10.034   1.769 -32.581  1.00  0.00     0.020 A 
HETATM   17  C   UNL     1      -9.041   2.732 -32.732  1.00  0.00     0.023 A 
BRANCH  13  18
HETATM   18  O   UNL     1      -6.625   0.840 -34.724  1.00  0.00    -0.291 OA
BRANCH  18  19
HETATM   19  C   UNL     1      -5.983  -0.334 -34.411  1.00  0.00     0.078 A 
HETATM   20  C   UNL     1      -6.335  -1.555 -34.993  1.00  0.00     0.039 A 
HETATM   21  C   UNL     1      -5.620  -2.710 -34.670  1.00  0.00     0.026 A 
HETATM   22  C   UNL     1      -4.543  -2.633 -33.788  1.00  0.00     0.034 A 
HETATM   23 CL   UNL     1      -3.665  -4.058 -33.388  1.00  0.00    -0.084 Cl
HETATM   24  C   UNL     1      -4.168  -1.411 -33.232  1.00  0.00     0.026 A 
HETATM   25  C   UNL     1      -4.885  -0.255 -33.551  1.00  0.00     0.039 A 
ENDBRANCH  18  19
ENDBRANCH  13  18
ENDBRANCH   9  12
ENDBRANCH   1   8
TORSDOF 5
ENDMDL
MODEL 4
REMARK VINA RESULT:      -7.3      1.913      2.881
REMARK  5 active torsions:
REMARK  status: ('A' for Active; 'I' for Inactive)
REMARK    1  A    between atoms: C_2  and  C_3 
REMARK    2  A    between atoms: C_3  and  N_4 
REMARK       I    between atoms: N_4  and  C_5 
REMARK    3  A    between atoms: C_5  and  C_6 
REMARK    4  A    between atoms: C_7  and  O_8 
REMARK    5  A    between atoms: O_8  and  C_9 
ROOT
HETATM    1  C   UNL     1      -4.085   3.619 -32.385  1.00  0.00     0.121 C 
HETATM    2  C   UNL     1      -4.350   4.703 -31.391  1.00  0.00     0.091 C 
HETATM    3  N   UNL     1      -4.595   5.543 -30.628  1.00  0.00    -0.195 NA
HETATM    4  C   UNL     1      -3.298   2.513 -31.652  1.00  0.00     0.055 C 
ENDROOT
BRANCH   1   5
HETATM    5  C   UNL     1      -3.276   4.195 -33.602  1.00  0.00     0.020 C 
HETATM    6  C   UNL     1      -1.944   4.853 -33.211  1.00  0.00     0.013 C 
HETATM    7  C   UNL     1      -4.095   5.188 -34.447  1.00  0.00     0.013 C 
ENDBRANCH   1   5
BRANCH   1   8
HETATM    8  N   UNL     1      -5.396   3.087 -32.830  1.00  0.00    -0.335 N 
HETATM    9  C   UNL     1      -6.297   2.446 -32.013  1.00  0.00     0.257 C 
HETATM   10  O   UNL     1      -6.116   2.299 -30.809  1.00  0.00    -0.267 OA
HETATM   11  H   UNL     1      -5.607   3.162 -33.821  1.00  0.00     0.164 HD
BRANCH   9  12
HETATM   12  C   UNL     1      -7.512   1.858 -32.640  1.00  0.00     0.085 A 
HETATM   13  C   UNL     1      -7.522   1.058 -33.781  1.00  0.00     0.185 A 
HETATM   14  N   UNL     1      -8.652   0.498 -34.291  1.00  0.00    -0.236 NA
HETATM   15  C   UNL     1      -9.819   0.770 -33.671  1.00  0.00     0.119 A 
HETATM   16  C   UNL     1      -9.918   1.577 -32.553  1.00  0.00     0.020 A 
HETATM   17  C   UNL     1      -8.748   2.126 -32.034  1.00  0.00     0.023 A 
BRANCH  13  18
HETATM   18  O   UNL     1      -6.312   0.781 -34.408  1.00  0.00    -0.291 OA
BRANCH  18  19
HETATM   19  C   UNL     1      -5.743  -0.451 -34.184  1.00  0.00     0.078 A 
HETATM   20  C   UNL     1      -6.167  -1.600 -34.857  1.00  0.00     0.039 A 
HETATM   21  C   UNL     1      -5.525  -2.819 -34.622  1.00  0.00     0.026 A 
HETATM   22  C   UNL     1      -4.449  -2.874 -33.737  1.00  0.00     0.034 A 
HETATM   23 CL   UNL     1      -3.661  -4.376 -33.447  1.00  0.00    -0.084 Cl
HETATM   24  C   UNL     1      -4.002  -1.722 -33.091  1.00  0.00     0.026 A 
HETATM   25  C   UNL     1      -4.646  -0.504 -33.321  1.00  0.00     0.039 A 
ENDBRANCH  18  19
ENDBRANCH  13  18
ENDBRANCH   9  12
ENDBRANCH   1   8
TORSDOF 5
ENDMDL
MODEL 5
REMARK VINA RESULT:      -7.2      1.879      2.507
REMARK  5 active torsions:
REMARK  status: ('A' for Active; 'I' for Inactive)
REMARK    1  A    between atoms: C_2  and  C_3 
REMARK    2  A    between atoms: C_3  and  N_4 
REMARK       I    between atoms: N_4  and  C_5 
REMARK    3  A    between atoms: C_5  and  C_6 
REMARK    4  A    between atoms: C_7  and  O_8 
REMARK    5  A    between atoms: O_8  and  C_9 
ROOT
HETATM    1  C   UNL     1      -2.597   5.174 -32.647  1.00  0.00     0.121 C 
HETATM    2  C   UNL     1      -1.502   4.930 -31.659  1.00  0.00     0.091 C 
HETATM    3  N   UNL     1      -0.678   4.722 -30.868  1.00  0.00    -0.195 NA
HETATM    4  C   UNL     1      -2.093   4.671 -34.016  1.00  0.00     0.055 C 
ENDROOT
BRANCH   1   5
HETATM    5  C   UNL     1      -2.950   6.704 -32.687  1.00  0.00     0.020 C 
HETATM    6  C   UNL     1      -1.791   7.600 -33.149  1.00  0.00     0.013 C 
HETATM    7  C   UNL     1      -3.482   7.229 -31.342  1.00  0.00     0.013 C 
ENDBRANCH   1   5
BRANCH   1   8
HETATM    8  N   UNL     1      -3.771   4.375 -32.222  1.00  0.00    -0.335 N 
HETATM    9  C   UNL     1      -4.952   4.289 -32.921  1.00  0.00     0.257 C 
HETATM   10  O   UNL     1      -5.124   4.836 -34.005  1.00  0.00    -0.267 OA
HETATM   11  H   UNL     1      -3.704   3.904 -31.325  1.00  0.00     0.164 HD
BRANCH   9  12
HETATM   12  C   UNL     1      -6.081   3.546 -32.297  1.00  0.00     0.085 A 
HETATM   13  C   UNL     1      -6.429   2.226 -32.580  1.00  0.00     0.185 A 
HETATM   14  N   UNL     1      -7.438   1.568 -31.947  1.00  0.00    -0.236 NA
HETATM   15  C   UNL     1      -8.151   2.253 -31.029  1.00  0.00     0.119 A 
HETATM   16  C   UNL     1      -7.904   3.573 -30.701  1.00  0.00     0.020 A 
HETATM   17  C   UNL     1      -6.856   4.225 -31.346  1.00  0.00     0.023 A 
BRANCH  13  18
HETATM   18  O   UNL     1      -5.682   1.531 -33.524  1.00  0.00    -0.291 OA
BRANCH  18  19
HETATM   19  C   UNL     1      -4.985   0.424 -33.100  1.00  0.00     0.078 A 
HETATM   20  C   UNL     1      -4.107   0.469 -32.013  1.00  0.00     0.039 A 
HETATM   21  C   UNL     1      -3.457  -0.696 -31.598  1.00  0.00     0.026 A 
HETATM   22  C   UNL     1      -3.708  -1.900 -32.254  1.00  0.00     0.034 A 
HETATM   23 CL   UNL     1      -2.905  -3.333 -31.743  1.00  0.00    -0.084 Cl
HETATM   24  C   UNL     1      -4.610  -1.953 -33.317  1.00  0.00     0.026 A 
HETATM   25  C   UNL     1      -5.257  -0.788 -33.736  1.00  0.00     0.039 A 
ENDBRANCH  18  19
ENDBRANCH  13  18
ENDBRANCH   9  12
ENDBRANCH   1   8
TORSDOF 5
ENDMDL
MODEL 6
REMARK VINA RESULT:      -7.2      3.362      6.891
REMARK  5 active torsions:
REMARK  status: ('A' for Active; 'I' for Inactive)
REMARK    1  A    between atoms: C_2  and  C_3 
REMARK    2  A    between atoms: C_3  and  N_4 
REMARK       I    between atoms: N_4  and  C_5 
REMARK    3  A    between atoms: C_5  and  C_6 
REMARK    4  A    between atoms: C_7  and  O_8 
REMARK    5  A    between atoms: O_8  and  C_9 
ROOT
HETATM    1  C   UNL     1      -8.978   2.164 -32.967  1.00  0.00     0.121 C 
HETATM    2  C   UNL     1      -9.465   2.667 -31.647  1.00  0.00     0.091 C 
HETATM    3  N   UNL     1      -9.813   3.039 -30.603  1.00  0.00    -0.195 NA
HETATM    4  C   UNL     1      -8.859   3.386 -33.902  1.00  0.00     0.055 C 
ENDROOT
BRANCH   1   5
HETATM    5  C   UNL     1      -9.980   1.096 -33.535  1.00  0.00     0.020 C 
HETATM    6  C   UNL     1     -11.395   1.639 -33.786  1.00  0.00     0.013 C 
HETATM    7  C   UNL     1     -10.076  -0.161 -32.653  1.00  0.00     0.013 C 
ENDBRANCH   1   5
BRANCH   1   8
HETATM    8  N   UNL     1      -7.638   1.566 -32.754  1.00  0.00    -0.335 N 
HETATM    9  C   UNL     1      -6.867   1.003 -33.744  1.00  0.00     0.257 C 
HETATM   10  O   UNL     1      -7.204   0.990 -34.923  1.00  0.00    -0.267 OA
HETATM   11  H   UNL     1      -7.300   1.531 -31.797  1.00  0.00     0.164 HD
BRANCH   9  12
HETATM   12  C   UNL     1      -5.600   0.332 -33.345  1.00  0.00     0.085 A 
HETATM   13  C   UNL     1      -4.645   0.865 -32.481  1.00  0.00     0.185 A 
HETATM   14  N   UNL     1      -3.524   0.194 -32.102  1.00  0.00    -0.236 NA
HETATM   15  C   UNL     1      -3.323  -1.033 -32.626  1.00  0.00     0.119 A 
HETATM   16  C   UNL     1      -4.194  -1.635 -33.514  1.00  0.00     0.020 A 
HETATM   17  C   UNL     1      -5.346  -0.941 -33.876  1.00  0.00     0.023 A 
BRANCH  13  18
HETATM   18  O   UNL     1      -4.867   2.128 -31.944  1.00  0.00    -0.291 OA
BRANCH  18  19
HETATM   19  C   UNL     1      -4.233   3.195 -32.536  1.00  0.00     0.078 A 
HETATM   20  C   UNL     1      -4.880   4.035 -33.446  1.00  0.00     0.039 A 
HETATM   21  C   UNL     1      -4.200   5.130 -33.984  1.00  0.00     0.026 A 
HETATM   22  C   UNL     1      -2.889   5.393 -33.589  1.00  0.00     0.034 A 
HETATM   23 CL   UNL     1      -2.052   6.741 -34.255  1.00  0.00    -0.084 Cl
HETATM   24  C   UNL     1      -2.253   4.576 -32.655  1.00  0.00     0.026 A 
HETATM   25  C   UNL     1      -2.930   3.478 -32.119  1.00  0.00     0.039 A 
ENDBRANCH  18  19
ENDBRANCH  13  18
ENDBRANCH   9  12
ENDBRANCH   1   8
TORSDOF 5
ENDMDL
MODEL 7
REMARK VINA RESULT:      -7.1      3.351      6.626
REMARK  5 active torsions:
REMARK  status: ('A' for Active; 'I' for Inactive)
REMARK    1  A    between atoms: C_2  and  C_3 
REMARK    2  A    between atoms: C_3  and  N_4 
REMARK       I    between atoms: N_4  and  C_5 
REMARK    3  A    between atoms: C_5  and  C_6 
REMARK    4  A    between atoms: C_7  and  O_8 
REMARK    5  A    between atoms: O_8  and  C_9 
ROOT
HETATM    1  C   UNL     1      -5.768   0.052 -33.266  1.00  0.00     0.121 C 
HETATM    2  C   UNL     1      -4.307  -0.228 -33.116  1.00  0.00     0.091 C 
HETATM    3  N   UNL     1      -3.166  -0.407 -33.006  1.00  0.00    -0.195 NA
HETATM    4  C   UNL     1      -6.474  -0.547 -32.031  1.00  0.00     0.055 C 
ENDROOT
BRANCH   1   5
HETATM    5  C   UNL     1      -6.300  -0.581 -34.601  1.00  0.00     0.020 C 
HETATM    6  C   UNL     1      -7.433   0.218 -35.263  1.00  0.00     0.013 C 
HETATM    7  C   UNL     1      -6.752  -2.042 -34.431  1.00  0.00     0.013 C 
ENDBRANCH   1   5
BRANCH   1   8
HETATM    8  N   UNL     1      -5.944   1.524 -33.275  1.00  0.00    -0.335 N 
HETATM    9  C   UNL     1      -5.700   2.348 -32.202  1.00  0.00     0.257 C 
HETATM   10  O   UNL     1      -5.257   1.936 -31.135  1.00  0.00    -0.267 OA
HETATM   11  H   UNL     1      -6.322   1.934 -34.125  1.00  0.00     0.164 HD
BRANCH   9  12
HETATM   12  C   UNL     1      -6.048   3.789 -32.334  1.00  0.00     0.085 A 
HETATM   13  C   UNL     1      -5.276   4.745 -32.992  1.00  0.00     0.185 A 
HETATM   14  N   UNL     1      -5.657   6.043 -33.135  1.00  0.00    -0.236 NA
HETATM   15  C   UNL     1      -6.826   6.416 -32.573  1.00  0.00     0.119 A 
HETATM   16  C   UNL     1      -7.646   5.551 -31.874  1.00  0.00     0.020 A 
HETATM   17  C   UNL     1      -7.249   4.222 -31.755  1.00  0.00     0.023 A 
BRANCH  13  18
HETATM   18  O   UNL     1      -4.076   4.346 -33.571  1.00  0.00    -0.291 OA
BRANCH  18  19
HETATM   19  C   UNL     1      -2.916   4.909 -33.091  1.00  0.00     0.078 A 
HETATM   20  C   UNL     1      -2.245   5.926 -33.774  1.00  0.00     0.039 A 
HETATM   21  C   UNL     1      -1.094   6.492 -33.219  1.00  0.00     0.026 A 
HETATM   22  C   UNL     1      -0.639   6.055 -31.976  1.00  0.00     0.034 A 
HETATM   23 CL   UNL     1       0.781   6.750 -31.296  1.00  0.00    -0.084 Cl
HETATM   24  C   UNL     1      -1.327   5.064 -31.278  1.00  0.00     0.026 A 
HETATM   25  C   UNL     1      -2.475   4.494 -31.833  1.00  0.00     0.039 A 
ENDBRANCH  18  19
ENDBRANCH  13  18
ENDBRANCH   9  12
ENDBRANCH   1   8
TORSDOF 5
ENDMDL
MODEL 8
REMARK VINA RESULT:      -7.1      2.804      4.369
REMARK  5 active torsions:
REMARK  status: ('A' for Active; 'I' for Inactive)
REMARK    1  A    between atoms: C_2  and  C_3 
REMARK    2  A    between atoms: C_3  and  N_4 
REMARK       I    between atoms: N_4  and  C_5 
REMARK    3  A    between atoms: C_5  and  C_6 
REMARK    4  A    between atoms: C_7  and  O_8 
REMARK    5  A    between atoms: O_8  and  C_9 
ROOT
HETATM    1  C   UNL     1      -4.464   3.776 -32.389  1.00  0.00     0.121 C 
HETATM    2  C   UNL     1      -4.961   4.030 -31.003  1.00  0.00     0.091 C 
HETATM    3  N   UNL     1      -5.371   4.196 -29.930  1.00  0.00    -0.195 NA
HETATM    4  C   UNL     1      -2.924   3.722 -32.317  1.00  0.00     0.055 C 
ENDROOT
BRANCH   1   5
HETATM    5  C   UNL     1      -4.959   4.915 -33.352  1.00  0.00     0.020 C 
HETATM    6  C   UNL     1      -6.408   4.743 -33.830  1.00  0.00     0.013 C 
HETATM    7  C   UNL     1      -4.047   5.099 -34.578  1.00  0.00     0.013 C 
ENDBRANCH   1   5
BRANCH   1   8
HETATM    8  N   UNL     1      -4.990   2.459 -32.821  1.00  0.00    -0.335 N 
HETATM    9  C   UNL     1      -4.620   1.253 -32.275  1.00  0.00     0.257 C 
HETATM   10  O   UNL     1      -3.845   1.161 -31.329  1.00  0.00    -0.267 OA
HETATM   11  H   UNL     1      -5.628   2.458 -33.611  1.00  0.00     0.164 HD
BRANCH   9  12
HETATM   12  C   UNL     1      -5.143   0.010 -32.905  1.00  0.00     0.085 A 
HETATM   13  C   UNL     1      -6.478  -0.392 -32.904  1.00  0.00     0.185 A 
HETATM   14  N   UNL     1      -6.922  -1.510 -33.538  1.00  0.00    -0.236 NA
HETATM   15  C   UNL     1      -6.006  -2.278 -34.163  1.00  0.00     0.119 A 
HETATM   16  C   UNL     1      -4.656  -1.982 -34.195  1.00  0.00     0.020 A 
HETATM   17  C   UNL     1      -4.223  -0.824 -33.556  1.00  0.00     0.023 A 
BRANCH  13  18
HETATM   18  O   UNL     1      -7.412   0.412 -32.259  1.00  0.00    -0.291 OA
BRANCH  18  19
HETATM   19  C   UNL     1      -8.581   0.694 -32.926  1.00  0.00     0.078 A 
HETATM   20  C   UNL     1      -9.787   0.060 -32.615  1.00  0.00     0.039 A 
HETATM   21  C   UNL     1     -10.954   0.417 -33.295  1.00  0.00     0.026 A 
HETATM   22  C   UNL     1     -10.912   1.421 -34.262  1.00  0.00     0.034 A 
HETATM   23 CL   UNL     1     -12.350   1.857 -35.101  1.00  0.00    -0.084 Cl
HETATM   24  C   UNL     1      -9.717   2.079 -34.549  1.00  0.00     0.026 A 
HETATM   25  C   UNL     1      -8.548   1.721 -33.872  1.00  0.00     0.039 A 
ENDBRANCH  18  19
ENDBRANCH  13  18
ENDBRANCH   9  12
ENDBRANCH   1   8
TORSDOF 5
ENDMDL
MODEL 9
REMARK VINA RESULT:      -7.1      3.346      5.548
REMARK  5 active torsions:
REMARK  status: ('A' for Active; 'I' for Inactive)
REMARK    1  A    between atoms: C_2  and  C_3 
REMARK    2  A    between atoms: C_3  and  N_4 
REMARK       I    between atoms: N_4  and  C_5 
REMARK    3  A    between atoms: C_5  and  C_6 
REMARK    4  A    between atoms: C_7  and  O_8 
REMARK    5  A    between atoms: O_8  and  C_9 
ROOT
HETATM    1  C   UNL     1      -0.686   6.801 -28.525  1.00  0.00     0.121 C 
HETATM    2  C   UNL     1      -1.814   6.881 -27.548  1.00  0.00     0.091 C 
HETATM    3  N   UNL     1      -2.715   6.938 -26.818  1.00  0.00    -0.195 NA
HETATM    4  C   UNL     1       0.316   5.763 -27.978  1.00  0.00     0.055 C 
ENDROOT
BRANCH   1   5
HETATM    5  C   UNL     1      -0.022   8.214 -28.693  1.00  0.00     0.020 C 
HETATM    6  C   UNL     1       1.301   8.377 -27.930  1.00  0.00     0.013 C 
HETATM    7  C   UNL     1      -0.966   9.367 -28.309  1.00  0.00     0.013 C 
ENDBRANCH   1   5
BRANCH   1   8
HETATM    8  N   UNL     1      -1.243   6.325 -29.815  1.00  0.00    -0.335 N 
HETATM    9  C   UNL     1      -0.488   5.921 -30.891  1.00  0.00     0.257 C 
HETATM   10  O   UNL     1       0.737   5.869 -30.861  1.00  0.00    -0.267 OA
HETATM   11  H   UNL     1      -2.253   6.354 -29.915  1.00  0.00     0.164 HD
BRANCH   9  12
HETATM   12  C   UNL     1      -1.196   5.592 -32.157  1.00  0.00     0.085 A 
HETATM   13  C   UNL     1      -2.022   4.487 -32.353  1.00  0.00     0.185 A 
HETATM   14  N   UNL     1      -2.693   4.252 -33.513  1.00  0.00    -0.236 NA
HETATM   15  C   UNL     1      -2.510   5.122 -34.528  1.00  0.00     0.119 A 
HETATM   16  C   UNL     1      -1.688   6.230 -34.443  1.00  0.00     0.020 A 
HETATM   17  C   UNL     1      -1.024   6.465 -33.242  1.00  0.00     0.023 A 
BRANCH  13  18
HETATM   18  O   UNL     1      -2.206   3.601 -31.297  1.00  0.00    -0.291 OA
BRANCH  18  19
HETATM   19  C   UNL     1      -3.346   2.832 -31.299  1.00  0.00     0.078 A 
HETATM   20  C   UNL     1      -3.328   1.474 -31.628  1.00  0.00     0.039 A 
HETATM   21  C   UNL     1      -4.510   0.730 -31.571  1.00  0.00     0.026 A 
HETATM   22  C   UNL     1      -5.693   1.343 -31.161  1.00  0.00     0.034 A 
HETATM   23 CL   UNL     1      -7.148   0.427 -31.095  1.00  0.00    -0.084 Cl
HETATM   24  C   UNL     1      -5.707   2.689 -30.800  1.00  0.00     0.026 A 
HETATM   25  C   UNL     1      -4.527   3.435 -30.860  1.00  0.00     0.039 A 
ENDBRANCH  18  19
ENDBRANCH  13  18
ENDBRANCH   9  12
ENDBRANCH   1   8
TORSDOF 5
ENDMDL
MODEL 10
REMARK VINA RESULT:      -7.1      2.158      3.585
REMARK  5 active torsions:
REMARK  status: ('A' for Active; 'I' for Inactive)
REMARK    1  A    between atoms: C_2  and  C_3 
REMARK    2  A    between atoms: C_3  and  N_4 
REMARK       I    between atoms: N_4  and  C_5 
REMARK    3  A    between atoms: C_5  and  C_6 
REMARK    4  A    between atoms: C_7  and  O_8 
REMARK    5  A    between atoms: O_8  and  C_9 
ROOT
HETATM    1  C   UNL     1      -5.496   4.011 -31.689  1.00  0.00     0.121 C 
HETATM    2  C   UNL     1      -5.715   5.384 -32.239  1.00  0.00     0.091 C 
HETATM    3  N   UNL     1      -5.918   6.436 -32.684  1.00  0.00    -0.195 NA
HETATM    4  C   UNL     1      -5.327   4.155 -30.162  1.00  0.00     0.055 C 
ENDROOT
BRANCH   1   5
HETATM    5  C   UNL     1      -4.227   3.366 -32.353  1.00  0.00     0.020 C 
HETATM    6  C   UNL     1      -3.503   2.349 -31.457  1.00  0.00     0.013 C 
HETATM    7  C   UNL     1      -3.211   4.413 -32.843  1.00  0.00     0.013 C 
ENDBRANCH   1   5
BRANCH   1   8
HETATM    8  N   UNL     1      -6.708   3.210 -31.984  1.00  0.00    -0.335 N 
HETATM    9  C   UNL     1      -7.207   2.983 -33.244  1.00  0.00     0.257 C 
HETATM   10  O   UNL     1      -6.655   3.388 -34.261  1.00  0.00    -0.267 OA
HETATM   11  H   UNL     1      -7.225   2.852 -31.186  1.00  0.00     0.164 HD
BRANCH   9  12
HETATM   12  C   UNL     1      -8.505   2.263 -33.363  1.00  0.00     0.085 A 
HETATM   13  C   UNL     1      -8.796   1.029 -32.785  1.00  0.00     0.185 A 
HETATM   14  N   UNL     1     -10.014   0.430 -32.875  1.00  0.00    -0.236 NA
HETATM   15  C   UNL     1     -10.966   1.058 -33.595  1.00  0.00     0.119 A 
HETATM   16  C   UNL     1     -10.766   2.268 -34.232  1.00  0.00     0.020 A 
HETATM   17  C   UNL     1      -9.519   2.875 -34.113  1.00  0.00     0.023 A 
BRANCH  13  18
HETATM   18  O   UNL     1      -7.806   0.395 -32.041  1.00  0.00    -0.291 OA
BRANCH  18  19
HETATM   19  C   UNL     1      -6.977  -0.484 -32.697  1.00  0.00     0.078 A 
HETATM   20  C   UNL     1      -7.381  -1.175 -33.842  1.00  0.00     0.039 A 
HETATM   21  C   UNL     1      -6.482  -2.024 -34.494  1.00  0.00     0.026 A 
HETATM   22  C   UNL     1      -5.181  -2.155 -34.012  1.00  0.00     0.034 A 
HETATM   23 CL   UNL     1      -4.076  -3.202 -34.814  1.00  0.00    -0.084 Cl
HETATM   24  C   UNL     1      -4.765  -1.440 -32.889  1.00  0.00     0.026 A 
HETATM   25  C   UNL     1      -5.664  -0.594 -32.234  1.00  0.00     0.039 A 
ENDBRANCH  18  19
ENDBRANCH  13  18
ENDBRANCH   9  12
ENDBRANCH   1   8
TORSDOF 5
ENDMDL
