MODEL 1
REMARK VINA RESULT:      -7.7      0.000      0.000
REMARK  3 active torsions:
REMARK  status: ('A' for Active; 'I' for Inactive)
REMARK    1  A    between atoms: C_2  and  C_3 
REMARK    2  A    between atoms: C_4  and  N_5 
REMARK    3  A    between atoms: C_18  and  C_19 
ROOT
HETATM    1  N   UNL     1      -5.817   0.967 -32.105  1.00  0.00    -0.320 N 
HETATM    2  C   UNL     1      -6.229   0.976 -30.749  1.00  0.00     0.141 C 
HETATM    3  N   UNL     1      -6.840  -0.030 -30.190  1.00  0.00    -0.380 N 
HETATM    4  H   UNL     1      -7.131   0.036 -29.225  1.00  0.00     0.158 HD
HETATM    5  H   UNL     1      -7.036  -0.854 -30.741  1.00  0.00     0.158 HD
HETATM    6  S   UNL     1      -5.898   2.457 -29.952  1.00  0.00    -0.086 SA
HETATM    7  C   UNL     1      -5.558   3.310 -31.554  1.00  0.00     0.093 C 
HETATM    8  C   UNL     1      -5.107   2.192 -32.530  1.00  0.00     0.121 C 
HETATM    9  C   UNL     1      -4.499   4.396 -31.478  1.00  0.00     0.158 C 
HETATM   10  S   UNL     1      -3.046   3.737 -32.263  1.00  0.00     0.147 S 
HETATM   11  O   UNL     1      -1.937   3.791 -31.337  1.00  0.00    -0.228 OA
HETATM   12  O   UNL     1      -2.974   4.283 -33.602  1.00  0.00    -0.228 OA
HETATM   13  C   UNL     1      -3.597   2.060 -32.394  1.00  0.00     0.167 C 
ENDROOT
BRANCH   1  14
HETATM   14  C   UNL     1      -5.881  -0.095 -33.028  1.00  0.00     0.049 A 
HETATM   15  C   UNL     1      -6.924  -0.124 -33.999  1.00  0.00    -0.031 A 
HETATM   16  C   UNL     1      -6.945  -1.160 -34.948  1.00  0.00     0.009 A 
HETATM   17  C   UNL     1      -6.017  -2.191 -34.904  1.00  0.00     0.001 A 
HETATM   18  C   UNL     1      -5.036  -2.201 -33.919  1.00  0.00     0.009 A 
HETATM   19  C   UNL     1      -4.931  -1.155 -32.984  1.00  0.00    -0.031 A 
BRANCH  15  20
HETATM   20  C   UNL     1      -8.010   0.938 -34.047  1.00  0.00     0.036 C 
HETATM   21  C   UNL     1      -9.288   0.607 -33.280  1.00  0.00     0.010 C 
ENDBRANCH  15  20
BRANCH  19  22
HETATM   22  C   UNL     1      -3.835  -1.226 -31.933  1.00  0.00     0.036 C 
HETATM   23  C   UNL     1      -3.048  -2.532 -31.879  1.00  0.00     0.010 C 
ENDBRANCH  19  22
ENDBRANCH   1  14
TORSDOF 3
ENDMDL
MODEL 2
REMARK VINA RESULT:      -7.6      0.244      2.945
REMARK  3 active torsions:
REMARK  status: ('A' for Active; 'I' for Inactive)
REMARK    1  A    between atoms: C_2  and  C_3 
REMARK    2  A    between atoms: C_4  and  N_5 
REMARK    3  A    between atoms: C_18  and  C_19 
ROOT
HETATM    1  N   UNL     1      -5.790   1.037 -32.180  1.00  0.00    -0.320 N 
HETATM    2  C   UNL     1      -6.237   1.056 -30.836  1.00  0.00     0.141 C 
HETATM    3  N   UNL     1      -6.878   0.061 -30.292  1.00  0.00    -0.380 N 
HETATM    4  H   UNL     1      -7.193   0.133 -29.335  1.00  0.00     0.158 HD
HETATM    5  H   UNL     1      -7.073  -0.761 -30.846  1.00  0.00     0.158 HD
HETATM    6  S   UNL     1      -5.902   2.533 -30.033  1.00  0.00    -0.086 SA
HETATM    7  C   UNL     1      -5.507   3.377 -31.628  1.00  0.00     0.093 C 
HETATM    8  C   UNL     1      -5.049   2.250 -32.590  1.00  0.00     0.121 C 
HETATM    9  C   UNL     1      -4.433   4.446 -31.526  1.00  0.00     0.158 C 
HETATM   10  S   UNL     1      -2.971   3.761 -32.271  1.00  0.00     0.147 S 
HETATM   11  O   UNL     1      -1.885   3.799 -31.317  1.00  0.00    -0.228 OA
HETATM   12  O   UNL     1      -2.855   4.303 -33.609  1.00  0.00    -0.228 OA
HETATM   13  C   UNL     1      -3.546   2.094 -32.413  1.00  0.00     0.167 C 
ENDROOT
BRANCH   1  14
HETATM   14  C   UNL     1      -5.847  -0.026 -33.103  1.00  0.00     0.049 A 
HETATM   15  C   UNL     1      -4.927  -1.108 -32.992  1.00  0.00    -0.031 A 
HETATM   16  C   UNL     1      -5.029  -2.187 -33.886  1.00  0.00     0.009 A 
HETATM   17  C   UNL     1      -5.957  -2.176 -34.918  1.00  0.00     0.001 A 
HETATM   18  C   UNL     1      -6.815  -1.093 -35.069  1.00  0.00     0.009 A 
HETATM   19  C   UNL     1      -6.797  -0.017 -34.164  1.00  0.00    -0.031 A 
BRANCH  15  20
HETATM   20  C   UNL     1      -3.842  -1.137 -31.928  1.00  0.00     0.036 C 
HETATM   21  C   UNL     1      -3.039  -2.433 -31.842  1.00  0.00     0.010 C 
ENDBRANCH  15  20
BRANCH  19  22
HETATM   22  C   UNL     1      -7.763   1.137 -34.386  1.00  0.00     0.036 C 
HETATM   23  C   UNL     1      -9.237   0.828 -34.139  1.00  0.00     0.010 C 
ENDBRANCH  19  22
ENDBRANCH   1  14
TORSDOF 3
ENDMDL
MODEL 3
REMARK VINA RESULT:      -7.4      1.323      1.437
REMARK  3 active torsions:
REMARK  status: ('A' for Active; 'I' for Inactive)
REMARK    1  A    between atoms: C_2  and  C_3 
REMARK    2  A    between atoms: C_4  and  N_5 
REMARK    3  A    between atoms: C_18  and  C_19 
ROOT
HETATM    1  N   UNL     1      -6.552   1.260 -32.185  1.00  0.00    -0.320 N 
HETATM    2  C   UNL     1      -6.727   1.306 -30.780  1.00  0.00     0.141 C 
HETATM    3  N   UNL     1      -6.814   0.235 -30.044  1.00  0.00    -0.380 N 
HETATM    4  H   UNL     1      -6.958   0.322 -29.048  1.00  0.00     0.158 HD
HETATM    5  H   UNL     1      -6.760  -0.672 -30.487  1.00  0.00     0.158 HD
HETATM    6  S   UNL     1      -6.872   2.901 -30.168  1.00  0.00    -0.086 SA
HETATM    7  C   UNL     1      -7.131   3.589 -31.863  1.00  0.00     0.093 C 
HETATM    8  C   UNL     1      -6.439   2.589 -32.825  1.00  0.00     0.121 C 
HETATM    9  C   UNL     1      -6.571   4.986 -32.068  1.00  0.00     0.158 C 
HETATM   10  S   UNL     1      -5.112   4.799 -33.068  1.00  0.00     0.147 S 
HETATM   11  O   UNL     1      -3.982   5.381 -32.378  1.00  0.00    -0.228 OA
HETATM   12  O   UNL     1      -5.458   5.144 -34.431  1.00  0.00    -0.228 OA
HETATM   13  C   UNL     1      -4.992   3.037 -32.971  1.00  0.00     0.167 C 
ENDROOT
BRANCH   1  14
HETATM   14  C   UNL     1      -6.343   0.132 -33.001  1.00  0.00     0.049 A 
HETATM   15  C   UNL     1      -7.400  -0.349 -33.825  1.00  0.00    -0.031 A 
HETATM   16  C   UNL     1      -7.163  -1.443 -34.675  1.00  0.00     0.009 A 
HETATM   17  C   UNL     1      -5.943  -2.106 -34.663  1.00  0.00     0.001 A 
HETATM   18  C   UNL     1      -4.929  -1.679 -33.814  1.00  0.00     0.009 A 
HETATM   19  C   UNL     1      -5.093  -0.551 -32.991  1.00  0.00    -0.031 A 
BRANCH  15  20
HETATM   20  C   UNL     1      -8.779   0.291 -33.823  1.00  0.00     0.036 C 
HETATM   21  C   UNL     1      -9.709  -0.153 -32.696  1.00  0.00     0.010 C 
ENDBRANCH  15  20
BRANCH  19  22
HETATM   22  C   UNL     1      -3.944  -0.137 -32.085  1.00  0.00     0.036 C 
HETATM   23  C   UNL     1      -2.860  -1.188 -31.862  1.00  0.00     0.010 C 
ENDBRANCH  19  22
ENDBRANCH   1  14
TORSDOF 3
ENDMDL
MODEL 4
REMARK VINA RESULT:      -7.0      2.071      3.633
REMARK  3 active torsions:
REMARK  status: ('A' for Active; 'I' for Inactive)
REMARK    1  A    between atoms: C_2  and  C_3 
REMARK    2  A    between atoms: C_4  and  N_5 
REMARK    3  A    between atoms: C_18  and  C_19 
ROOT
HETATM    1  N   UNL     1      -6.850   1.583 -31.709  1.00  0.00    -0.320 N 
HETATM    2  C   UNL     1      -6.660   1.751 -30.315  1.00  0.00     0.141 C 
HETATM    3  N   UNL     1      -6.243   0.792 -29.539  1.00  0.00    -0.380 N 
HETATM    4  H   UNL     1      -6.143   0.959 -28.547  1.00  0.00     0.158 HD
HETATM    5  H   UNL     1      -6.049  -0.115 -29.938  1.00  0.00     0.158 HD
HETATM    6  S   UNL     1      -7.091   3.314 -29.758  1.00  0.00    -0.086 SA
HETATM    7  C   UNL     1      -7.966   3.699 -31.338  1.00  0.00     0.093 C 
HETATM    8  C   UNL     1      -7.292   2.807 -32.412  1.00  0.00     0.121 C 
HETATM    9  C   UNL     1      -7.902   5.158 -31.755  1.00  0.00     0.158 C 
HETATM   10  S   UNL     1      -6.763   5.242 -33.118  1.00  0.00     0.147 S 
HETATM   11  O   UNL     1      -5.708   6.179 -32.802  1.00  0.00    -0.228 OA
HETATM   12  O   UNL     1      -7.534   5.315 -34.341  1.00  0.00    -0.228 OA
HETATM   13  C   UNL     1      -6.123   3.598 -32.982  1.00  0.00     0.167 C 
ENDROOT
BRANCH   1  14
HETATM   14  C   UNL     1      -6.546   0.458 -32.501  1.00  0.00     0.049 A 
HETATM   15  C   UNL     1      -5.186   0.125 -32.760  1.00  0.00    -0.031 A 
HETATM   16  C   UNL     1      -4.895  -1.029 -33.506  1.00  0.00     0.009 A 
HETATM   17  C   UNL     1      -5.910  -1.800 -34.057  1.00  0.00     0.001 A 
HETATM   18  C   UNL     1      -7.239  -1.443 -33.859  1.00  0.00     0.009 A 
HETATM   19  C   UNL     1      -7.585  -0.333 -33.067  1.00  0.00    -0.031 A 
BRANCH  15  20
HETATM   20  C   UNL     1      -4.035   0.975 -32.246  1.00  0.00     0.036 C 
HETATM   21  C   UNL     1      -3.109   0.291 -31.243  1.00  0.00     0.010 C 
ENDBRANCH  15  20
BRANCH  19  22
HETATM   22  C   UNL     1      -9.058   0.003 -32.890  1.00  0.00     0.036 C 
HETATM   23  C   UNL     1      -9.699   0.801 -34.022  1.00  0.00     0.010 C 
ENDBRANCH  19  22
ENDBRANCH   1  14
TORSDOF 3
ENDMDL
MODEL 5
REMARK VINA RESULT:      -6.6      1.795      2.236
REMARK  3 active torsions:
REMARK  status: ('A' for Active; 'I' for Inactive)
REMARK    1  A    between atoms: C_2  and  C_3 
REMARK    2  A    between atoms: C_4  and  N_5 
REMARK    3  A    between atoms: C_18  and  C_19 
ROOT
HETATM    1  N   UNL     1      -6.522   1.991 -32.780  1.00  0.00    -0.320 N 
HETATM    2  C   UNL     1      -7.583   2.373 -31.923  1.00  0.00     0.141 C 
HETATM    3  N   UNL     1      -8.288   1.512 -31.245  1.00  0.00    -0.380 N 
HETATM    4  H   UNL     1      -9.047   1.836 -30.663  1.00  0.00     0.158 HD
HETATM    5  H   UNL     1      -8.078   0.528 -31.332  1.00  0.00     0.158 HD
HETATM    6  S   UNL     1      -7.876   4.062 -31.921  1.00  0.00    -0.086 SA
HETATM    7  C   UNL     1      -6.837   4.302 -33.429  1.00  0.00     0.093 C 
HETATM    8  C   UNL     1      -5.826   3.125 -33.426  1.00  0.00     0.121 C 
HETATM    9  C   UNL     1      -6.096   5.627 -33.479  1.00  0.00     0.158 C 
HETATM   10  S   UNL     1      -4.388   5.260 -33.147  1.00  0.00     0.147 S 
HETATM   11  O   UNL     1      -3.943   6.039 -32.013  1.00  0.00    -0.228 OA
HETATM   12  O   UNL     1      -3.680   5.245 -34.410  1.00  0.00    -0.228 OA
HETATM   13  C   UNL     1      -4.610   3.582 -32.634  1.00  0.00     0.167 C 
ENDROOT
BRANCH   1  14
HETATM   14  C   UNL     1      -5.980   0.706 -32.977  1.00  0.00     0.049 A 
HETATM   15  C   UNL     1      -6.317  -0.030 -34.149  1.00  0.00    -0.031 A 
HETATM   16  C   UNL     1      -5.728  -1.288 -34.360  1.00  0.00     0.009 A 
HETATM   17  C   UNL     1      -4.889  -1.854 -33.410  1.00  0.00     0.001 A 
HETATM   18  C   UNL     1      -4.607  -1.166 -32.235  1.00  0.00     0.009 A 
HETATM   19  C   UNL     1      -5.120   0.123 -32.004  1.00  0.00    -0.031 A 
BRANCH  15  20
HETATM   20  C   UNL     1      -7.289   0.508 -35.187  1.00  0.00     0.036 C 
HETATM   21  C   UNL     1      -8.762   0.482 -34.786  1.00  0.00     0.010 C 
ENDBRANCH  15  20
BRANCH  19  22
HETATM   22  C   UNL     1      -4.773   0.821 -30.698  1.00  0.00     0.036 C 
HETATM   23  C   UNL     1      -5.627   0.440 -29.492  1.00  0.00     0.010 C 
ENDBRANCH  19  22
ENDBRANCH   1  14
TORSDOF 3
ENDMDL
MODEL 6
REMARK VINA RESULT:      -6.4      4.521      6.175
REMARK  3 active torsions:
REMARK  status: ('A' for Active; 'I' for Inactive)
REMARK    1  A    between atoms: C_2  and  C_3 
REMARK    2  A    between atoms: C_4  and  N_5 
REMARK    3  A    between atoms: C_18  and  C_19 
ROOT
HETATM    1  N   UNL     1      -8.612   2.802 -33.030  1.00  0.00    -0.320 N 
HETATM    2  C   UNL     1      -8.327   3.985 -33.757  1.00  0.00     0.141 C 
HETATM    3  N   UNL     1      -7.121   4.458 -33.891  1.00  0.00    -0.380 N 
HETATM    4  H   UNL     1      -6.975   5.316 -34.403  1.00  0.00     0.158 HD
HETATM    5  H   UNL     1      -6.350   3.969 -33.458  1.00  0.00     0.158 HD
HETATM    6  S   UNL     1      -9.730   4.750 -34.378  1.00  0.00    -0.086 SA
HETATM    7  C   UNL     1     -10.833   3.721 -33.313  1.00  0.00     0.093 C 
HETATM    8  C   UNL     1     -10.040   2.419 -33.032  1.00  0.00     0.121 C 
HETATM    9  C   UNL     1     -12.180   3.391 -33.935  1.00  0.00     0.158 C 
HETATM   10  S   UNL     1     -12.109   1.676 -34.402  1.00  0.00     0.147 S 
HETATM   11  O   UNL     1     -12.396   1.553 -35.813  1.00  0.00    -0.228 OA
HETATM   12  O   UNL     1     -12.808   0.908 -33.392  1.00  0.00    -0.228 OA
HETATM   13  C   UNL     1     -10.373   1.441 -34.150  1.00  0.00     0.167 C 
ENDROOT
BRANCH   1  14
HETATM   14  C   UNL     1      -7.703   1.902 -32.440  1.00  0.00     0.049 A 
HETATM   15  C   UNL     1      -7.462   1.962 -31.038  1.00  0.00    -0.031 A 
HETATM   16  C   UNL     1      -6.594   1.023 -30.453  1.00  0.00     0.009 A 
HETATM   17  C   UNL     1      -5.914   0.096 -31.230  1.00  0.00     0.001 A 
HETATM   18  C   UNL     1      -6.098   0.076 -32.607  1.00  0.00     0.009 A 
HETATM   19  C   UNL     1      -7.003   0.950 -33.235  1.00  0.00    -0.031 A 
BRANCH  15  20
HETATM   20  C   UNL     1      -8.121   3.004 -30.149  1.00  0.00     0.036 C 
HETATM   21  C   UNL     1      -7.314   4.279 -29.920  1.00  0.00     0.010 C 
ENDBRANCH  15  20
BRANCH  19  22
HETATM   22  C   UNL     1      -7.159   0.876 -34.746  1.00  0.00     0.036 C 
HETATM   23  C   UNL     1      -7.395  -0.518 -35.322  1.00  0.00     0.010 C 
ENDBRANCH  19  22
ENDBRANCH   1  14
TORSDOF 3
ENDMDL
MODEL 7
REMARK VINA RESULT:      -6.3      2.098      3.196
REMARK  3 active torsions:
REMARK  status: ('A' for Active; 'I' for Inactive)
REMARK    1  A    between atoms: C_2  and  C_3 
REMARK    2  A    between atoms: C_4  and  N_5 
REMARK    3  A    between atoms: C_18  and  C_19 
ROOT
HETATM    1  N   UNL     1      -7.118   3.125 -31.594  1.00  0.00    -0.320 N 
HETATM    2  C   UNL     1      -6.674   3.242 -30.253  1.00  0.00     0.141 C 
HETATM    3  N   UNL     1      -7.147   2.507 -29.287  1.00  0.00    -0.380 N 
HETATM    4  H   UNL     1      -6.810   2.644 -28.344  1.00  0.00     0.158 HD
HETATM    5  H   UNL     1      -7.864   1.826 -29.492  1.00  0.00     0.158 HD
HETATM    6  S   UNL     1      -5.509   4.480 -30.033  1.00  0.00    -0.086 SA
HETATM    7  C   UNL     1      -5.876   5.200 -31.693  1.00  0.00     0.093 C 
HETATM    8  C   UNL     1      -6.426   4.025 -32.542  1.00  0.00     0.121 C 
HETATM    9  C   UNL     1      -4.679   5.830 -32.385  1.00  0.00     0.158 C 
HETATM   10  S   UNL     1      -4.209   4.715 -33.689  1.00  0.00     0.147 S 
HETATM   11  O   UNL     1      -2.823   4.339 -33.519  1.00  0.00    -0.228 OA
HETATM   12  O   UNL     1      -4.730   5.238 -34.934  1.00  0.00    -0.228 OA
HETATM   13  C   UNL     1      -5.232   3.355 -33.206  1.00  0.00     0.167 C 
ENDROOT
BRANCH   1  14
HETATM   14  C   UNL     1      -8.017   2.185 -32.136  1.00  0.00     0.049 A 
HETATM   15  C   UNL     1      -9.362   2.569 -32.403  1.00  0.00    -0.031 A 
HETATM   16  C   UNL     1     -10.234   1.638 -32.993  1.00  0.00     0.009 A 
HETATM   17  C   UNL     1      -9.826   0.335 -33.246  1.00  0.00     0.001 A 
HETATM   18  C   UNL     1      -8.532  -0.061 -32.928  1.00  0.00     0.009 A 
HETATM   19  C   UNL     1      -7.601   0.848 -32.394  1.00  0.00    -0.031 A 
BRANCH  15  20
HETATM   20  C   UNL     1      -9.885   3.959 -32.078  1.00  0.00     0.036 C 
HETATM   21  C   UNL     1     -10.491   4.125 -30.687  1.00  0.00     0.010 C 
ENDBRANCH  15  20
BRANCH  19  22
HETATM   22  C   UNL     1      -6.201   0.350 -32.070  1.00  0.00     0.036 C 
HETATM   23  C   UNL     1      -5.666  -0.762 -32.967  1.00  0.00     0.010 C 
ENDBRANCH  19  22
ENDBRANCH   1  14
TORSDOF 3
ENDMDL
MODEL 8
REMARK VINA RESULT:      -6.3      2.523      3.838
REMARK  3 active torsions:
REMARK  status: ('A' for Active; 'I' for Inactive)
REMARK    1  A    between atoms: C_2  and  C_3 
REMARK    2  A    between atoms: C_4  and  N_5 
REMARK    3  A    between atoms: C_18  and  C_19 
ROOT
HETATM    1  N   UNL     1      -7.598   1.349 -32.444  1.00  0.00    -0.320 N 
HETATM    2  C   UNL     1      -8.916   1.211 -31.943  1.00  0.00     0.141 C 
HETATM    3  N   UNL     1      -9.280   0.222 -31.178  1.00  0.00    -0.380 N 
HETATM    4  H   UNL     1     -10.238   0.159 -30.864  1.00  0.00     0.158 HD
HETATM    5  H   UNL     1      -8.601  -0.484 -30.930  1.00  0.00     0.158 HD
HETATM    6  S   UNL     1      -9.981   2.435 -32.497  1.00  0.00    -0.086 SA
HETATM    7  C   UNL     1      -8.782   2.971 -33.795  1.00  0.00     0.093 C 
HETATM    8  C   UNL     1      -7.385   2.563 -33.262  1.00  0.00     0.121 C 
HETATM    9  C   UNL     1      -8.811   4.458 -34.104  1.00  0.00     0.158 C 
HETATM   10  S   UNL     1      -7.342   5.150 -33.378  1.00  0.00     0.147 S 
HETATM   11  O   UNL     1      -7.712   6.208 -32.465  1.00  0.00    -0.228 OA
HETATM   12  O   UNL     1      -6.366   5.331 -34.431  1.00  0.00    -0.228 OA
HETATM   13  C   UNL     1      -6.862   3.730 -32.437  1.00  0.00     0.167 C 
ENDROOT
BRANCH   1  14
HETATM   14  C   UNL     1      -6.466   0.563 -32.150  1.00  0.00     0.049 A 
HETATM   15  C   UNL     1      -6.054  -0.449 -33.063  1.00  0.00    -0.031 A 
HETATM   16  C   UNL     1      -4.893  -1.190 -32.784  1.00  0.00     0.009 A 
HETATM   17  C   UNL     1      -4.192  -1.003 -31.600  1.00  0.00     0.001 A 
HETATM   18  C   UNL     1      -4.628  -0.061 -30.677  1.00  0.00     0.009 A 
HETATM   19  C   UNL     1      -5.746   0.752 -30.936  1.00  0.00    -0.031 A 
BRANCH  15  20
HETATM   20  C   UNL     1      -6.825  -0.748 -34.338  1.00  0.00     0.036 C 
HETATM   21  C   UNL     1      -6.789  -2.201 -34.804  1.00  0.00     0.010 C 
ENDBRANCH  15  20
BRANCH  19  22
HETATM   22  C   UNL     1      -6.170   1.765 -29.884  1.00  0.00     0.036 C 
HETATM   23  C   UNL     1      -5.304   3.017 -29.779  1.00  0.00     0.010 C 
ENDBRANCH  19  22
ENDBRANCH   1  14
TORSDOF 3
ENDMDL
MODEL 9
REMARK VINA RESULT:      -6.2      3.973      5.716
REMARK  3 active torsions:
REMARK  status: ('A' for Active; 'I' for Inactive)
REMARK    1  A    between atoms: C_2  and  C_3 
REMARK    2  A    between atoms: C_4  and  N_5 
REMARK    3  A    between atoms: C_18  and  C_19 
ROOT
HETATM    1  N   UNL     1      -8.954   1.910 -33.301  1.00  0.00    -0.320 N 
HETATM    2  C   UNL     1     -10.075   1.124 -32.940  1.00  0.00     0.141 C 
HETATM    3  N   UNL     1      -9.991   0.099 -32.141  1.00  0.00    -0.380 N 
HETATM    4  H   UNL     1     -10.819  -0.441 -31.931  1.00  0.00     0.158 HD
HETATM    5  H   UNL     1      -9.090  -0.157 -31.762  1.00  0.00     0.158 HD
HETATM    6  S   UNL     1     -11.525   1.623 -33.706  1.00  0.00    -0.086 SA
HETATM    7  C   UNL     1     -10.597   2.678 -34.904  1.00  0.00     0.093 C 
HETATM    8  C   UNL     1      -9.273   3.050 -34.187  1.00  0.00     0.121 C 
HETATM    9  C   UNL     1     -11.330   3.937 -35.334  1.00  0.00     0.158 C 
HETATM   10  S   UNL     1     -10.527   5.293 -34.509  1.00  0.00     0.147 S 
HETATM   11  O   UNL     1     -11.502   6.026 -33.734  1.00  0.00    -0.228 OA
HETATM   12  O   UNL     1      -9.642   5.934 -35.460  1.00  0.00    -0.228 OA
HETATM   13  C   UNL     1      -9.529   4.332 -33.408  1.00  0.00     0.167 C 
ENDROOT
BRANCH   1  14
HETATM   14  C   UNL     1      -7.633   1.817 -32.820  1.00  0.00     0.049 A 
HETATM   15  C   UNL     1      -6.635   1.186 -33.617  1.00  0.00    -0.031 A 
HETATM   16  C   UNL     1      -5.310   1.148 -33.149  1.00  0.00     0.009 A 
HETATM   17  C   UNL     1      -4.979   1.643 -31.895  1.00  0.00     0.001 A 
HETATM   18  C   UNL     1      -5.962   2.203 -31.088  1.00  0.00     0.009 A 
HETATM   19  C   UNL     1      -7.291   2.323 -31.534  1.00  0.00    -0.031 A 
BRANCH  15  20
HETATM   20  C   UNL     1      -6.955   0.560 -34.965  1.00  0.00     0.036 C 
HETATM   21  C   UNL     1      -7.021  -0.965 -34.982  1.00  0.00     0.010 C 
ENDBRANCH  15  20
BRANCH  19  22
HETATM   22  C   UNL     1      -8.318   2.947 -30.602  1.00  0.00     0.036 C 
HETATM   23  C   UNL     1      -7.854   4.178 -29.828  1.00  0.00     0.010 C 
ENDBRANCH  19  22
ENDBRANCH   1  14
TORSDOF 3
ENDMDL
MODEL 10
REMARK VINA RESULT:      -6.1      4.515      6.221
REMARK  3 active torsions:
REMARK  status: ('A' for Active; 'I' for Inactive)
REMARK    1  A    between atoms: C_2  and  C_3 
REMARK    2  A    between atoms: C_4  and  N_5 
REMARK    3  A    between atoms: C_18  and  C_19 
ROOT
HETATM    1  N   UNL     1      -8.602   2.798 -33.030  1.00  0.00    -0.320 N 
HETATM    2  C   UNL     1      -8.277   3.946 -33.793  1.00  0.00     0.141 C 
HETATM    3  N   UNL     1      -7.056   4.377 -33.935  1.00  0.00    -0.380 N 
HETATM    4  H   UNL     1      -6.880   5.212 -34.474  1.00  0.00     0.158 HD
HETATM    5  H   UNL     1      -6.303   3.879 -33.481  1.00  0.00     0.158 HD
HETATM    6  S   UNL     1      -9.651   4.732 -34.450  1.00  0.00    -0.086 SA
HETATM    7  C   UNL     1     -10.792   3.774 -33.358  1.00  0.00     0.093 C 
HETATM    8  C   UNL     1     -10.041   2.458 -33.029  1.00  0.00     0.121 C 
HETATM    9  C   UNL     1     -12.144   3.464 -33.978  1.00  0.00     0.158 C 
HETATM   10  S   UNL     1     -12.124   1.733 -34.386  1.00  0.00     0.147 S 
HETATM   11  O   UNL     1     -12.406   1.571 -35.795  1.00  0.00    -0.228 OA
HETATM   12  O   UNL     1     -12.852   1.023 -33.356  1.00  0.00    -0.228 OA
HETATM   13  C   UNL     1     -10.398   1.455 -34.115  1.00  0.00     0.167 C 
ENDROOT
BRANCH   1  14
HETATM   14  C   UNL     1      -7.725   1.890 -32.403  1.00  0.00     0.049 A 
HETATM   15  C   UNL     1      -7.107   0.862 -33.170  1.00  0.00    -0.031 A 
HETATM   16  C   UNL     1      -6.193  -0.003 -32.544  1.00  0.00     0.009 A 
HETATM   17  C   UNL     1      -5.947   0.081 -31.181  1.00  0.00     0.001 A 
HETATM   18  C   UNL     1      -6.597   1.043 -30.416  1.00  0.00     0.009 A 
HETATM   19  C   UNL     1      -7.472   1.974 -31.004  1.00  0.00    -0.031 A 
BRANCH  15  20
HETATM   20  C   UNL     1      -7.397   0.676 -34.651  1.00  0.00     0.036 C 
HETATM   21  C   UNL     1      -6.997  -0.678 -35.234  1.00  0.00     0.010 C 
ENDBRANCH  15  20
BRANCH  19  22
HETATM   22  C   UNL     1      -8.149   3.001 -30.111  1.00  0.00     0.036 C 
HETATM   23  C   UNL     1      -7.312   4.224 -29.748  1.00  0.00     0.010 C 
ENDBRANCH  19  22
ENDBRANCH   1  14
TORSDOF 3
ENDMDL
