MODEL 1
REMARK VINA RESULT:      -8.7      0.000      0.000
REMARK  10 active torsions:
REMARK  status: ('A' for Active; 'I' for Inactive)
REMARK    1  A    between atoms: C_2  and  C_3 
REMARK    2  A    between atoms: C_3  and  C_4 
REMARK    3  A    between atoms: C_4  and  O_5 
REMARK    4  A    between atoms: O_5  and  C_6 
REMARK    5  A    between atoms: C_10  and  C_11 
REMARK       I    between atoms: C_11  and  N_12 
REMARK    6  A    between atoms: N_12  and  C_13 
REMARK    7  A    between atoms: C_13  and  N_14 
REMARK    8  A    between atoms: N_14  and  C_15 
REMARK    9  A    between atoms: N_18  and  C_20 
REMARK   10  A    between atoms: C_20  and  C_21 
ROOT
HETATM    1  C   UNL     1      -8.532   3.412 -31.916  1.00  0.00     0.174 C 
HETATM    2  S   UNL     1      -9.217   4.005 -30.509  1.00  0.00    -0.041 SA
ENDROOT
BRANCH   1   3
HETATM    3  N   UNL     1      -7.203   3.631 -32.115  1.00  0.00    -0.300 N 
HETATM    4  C   UNL     1      -6.413   4.174 -33.132  1.00  0.00     0.257 C 
HETATM    5  O   UNL     1      -6.784   4.488 -34.256  1.00  0.00    -0.267 OA
HETATM    6  H   UNL     1      -6.672   3.201 -31.366  1.00  0.00     0.171 HD
BRANCH   4   7
HETATM    7  C   UNL     1      -4.960   4.273 -32.829  1.00  0.00     0.033 A 
HETATM    8  C   UNL     1      -4.036   4.766 -33.753  1.00  0.00     0.039 A 
HETATM    9  C   UNL     1      -2.679   4.825 -33.407  1.00  0.00     0.045 A 
HETATM   10  C   UNL     1      -2.228   4.387 -32.150  1.00  0.00     0.086 A 
HETATM   11 BR   UNL     1      -1.471   5.502 -34.710  1.00  0.00    -0.048 Br
HETATM   12  C   UNL     1      -3.162   3.879 -31.243  1.00  0.00     0.039 A 
HETATM   13  C   UNL     1      -4.517   3.818 -31.582  1.00  0.00     0.020 A 
BRANCH  10  14
HETATM   14  O   UNL     1      -0.887   4.498 -31.893  1.00  0.00    -0.350 OA
BRANCH  14  15
HETATM   15  C   UNL     1      -0.489   5.263 -30.753  1.00  0.00     0.176 C 
BRANCH  15  16
HETATM   16  C   UNL     1      -0.140   6.674 -31.224  1.00  0.00     0.030 C 
BRANCH  16  17
HETATM   17  C   UNL     1      -1.181   7.728 -30.810  1.00  0.00    -0.021 C 
HETATM   18  C   UNL     1      -2.116   7.150 -29.747  1.00  0.00     0.009 C 
HETATM   19  C   UNL     1      -2.000   8.226 -32.002  1.00  0.00     0.009 C 
ENDBRANCH  16  17
ENDBRANCH  15  16
ENDBRANCH  14  15
ENDBRANCH  10  14
ENDBRANCH   4   7
ENDBRANCH   1   3
BRANCH   1  20
HETATM   20  N   UNL     1      -9.360   2.779 -32.768  1.00  0.00    -0.362 N 
HETATM   21  H   UNL     1      -9.816   3.447 -33.383  1.00  0.00     0.162 HD
BRANCH  20  22
HETATM   22  C   UNL     1      -9.562   1.357 -33.039  1.00  0.00     0.087 C 
HETATM   23  C   UNL     1      -8.865   0.482 -31.988  1.00  0.00     0.053 C 
HETATM   24  C   UNL     1      -7.374   0.296 -32.225  1.00  0.00     0.237 C 
HETATM   25  N   UNL     1      -7.156  -0.201 -33.630  1.00  0.00    -0.067 N 
HETATM   26  H   UNL     1      -7.725  -1.050 -33.746  1.00  0.00     0.280 HD
HETATM   27  C   UNL     1      -7.637   0.810 -34.631  1.00  0.00     0.237 C 
HETATM   28  C   UNL     1      -9.133   0.996 -34.467  1.00  0.00     0.053 C 
BRANCH  25  29
HETATM   29  C   UNL     1      -5.733  -0.642 -33.899  1.00  0.00     0.273 C 
BRANCH  29  30
HETATM   30  C   UNL     1      -5.632  -2.113 -34.202  1.00  0.00    -0.033 A 
HETATM   31  C   UNL     1      -6.755  -2.828 -34.652  1.00  0.00     0.009 A 
HETATM   32  C   UNL     1      -6.672  -4.202 -34.883  1.00  0.00     0.001 A 
HETATM   33  C   UNL     1      -5.468  -4.871 -34.680  1.00  0.00     0.000 A 
HETATM   34  C   UNL     1      -4.343  -4.170 -34.252  1.00  0.00     0.001 A 
HETATM   35  C   UNL     1      -4.423  -2.797 -34.014  1.00  0.00     0.009 A 
ENDBRANCH  29  30
ENDBRANCH  25  29
ENDBRANCH  20  22
ENDBRANCH   1  20
TORSDOF 10
ENDMDL
MODEL 2
REMARK VINA RESULT:      -8.2      2.586      4.836
REMARK  10 active torsions:
REMARK  status: ('A' for Active; 'I' for Inactive)
REMARK    1  A    between atoms: C_2  and  C_3 
REMARK    2  A    between atoms: C_3  and  C_4 
REMARK    3  A    between atoms: C_4  and  O_5 
REMARK    4  A    between atoms: O_5  and  C_6 
REMARK    5  A    between atoms: C_10  and  C_11 
REMARK       I    between atoms: C_11  and  N_12 
REMARK    6  A    between atoms: N_12  and  C_13 
REMARK    7  A    between atoms: C_13  and  N_14 
REMARK    8  A    between atoms: N_14  and  C_15 
REMARK    9  A    between atoms: N_18  and  C_20 
REMARK   10  A    between atoms: C_20  and  C_21 
ROOT
HETATM    1  C   UNL     1      -4.097  -0.282 -32.883  1.00  0.00     0.174 C 
HETATM    2  S   UNL     1      -3.207  -1.343 -31.944  1.00  0.00    -0.041 SA
ENDROOT
BRANCH   1   3
HETATM    3  N   UNL     1      -3.906   1.051 -32.686  1.00  0.00    -0.300 N 
HETATM    4  C   UNL     1      -4.160   1.965 -31.659  1.00  0.00     0.257 C 
HETATM    5  O   UNL     1      -4.808   1.756 -30.641  1.00  0.00    -0.267 OA
HETATM    6  H   UNL     1      -3.584   1.480 -33.547  1.00  0.00     0.171 HD
BRANCH   4   7
HETATM    7  C   UNL     1      -3.671   3.349 -31.898  1.00  0.00     0.033 A 
HETATM    8  C   UNL     1      -2.895   3.687 -33.009  1.00  0.00     0.039 A 
HETATM    9  C   UNL     1      -2.460   5.009 -33.171  1.00  0.00     0.045 A 
HETATM   10  C   UNL     1      -2.781   6.001 -32.229  1.00  0.00     0.086 A 
HETATM   11 BR   UNL     1      -1.403   5.403 -34.702  1.00  0.00    -0.048 Br
HETATM   12  C   UNL     1      -3.543   5.645 -31.113  1.00  0.00     0.039 A 
HETATM   13  C   UNL     1      -3.980   4.327 -30.946  1.00  0.00     0.020 A 
BRANCH  10  14
HETATM   14  O   UNL     1      -2.327   7.269 -32.477  1.00  0.00    -0.350 OA
BRANCH  14  15
HETATM   15  C   UNL     1      -1.405   7.840 -31.545  1.00  0.00     0.176 C 
BRANCH  15  16
HETATM   16  C   UNL     1      -0.066   7.119 -31.698  1.00  0.00     0.030 C 
BRANCH  16  17
HETATM   17  C   UNL     1       0.511   6.618 -30.363  1.00  0.00    -0.021 C 
HETATM   18  C   UNL     1       0.019   5.198 -30.081  1.00  0.00     0.009 C 
HETATM   19  C   UNL     1       0.138   7.535 -29.196  1.00  0.00     0.009 C 
ENDBRANCH  16  17
ENDBRANCH  15  16
ENDBRANCH  14  15
ENDBRANCH  10  14
ENDBRANCH   4   7
ENDBRANCH   1   3
BRANCH   1  20
HETATM   20  N   UNL     1      -4.964  -0.832 -33.754  1.00  0.00    -0.362 N 
HETATM   21  H   UNL     1      -4.507  -1.012 -34.643  1.00  0.00     0.162 HD
BRANCH  20  22
HETATM   22  C   UNL     1      -6.325  -1.331 -33.574  1.00  0.00     0.087 C 
HETATM   23  C   UNL     1      -7.138  -1.222 -34.872  1.00  0.00     0.053 C 
HETATM   24  C   UNL     1      -7.702   0.165 -35.137  1.00  0.00     0.237 C 
HETATM   25  N   UNL     1      -8.476   0.621 -33.928  1.00  0.00    -0.067 N 
HETATM   26  H   UNL     1      -9.178  -0.102 -33.722  1.00  0.00     0.280 HD
HETATM   27  C   UNL     1      -7.575   0.734 -32.733  1.00  0.00     0.237 C 
HETATM   28  C   UNL     1      -7.023  -0.637 -32.397  1.00  0.00     0.053 C 
BRANCH  25  29
HETATM   29  C   UNL     1      -9.275   1.886 -34.167  1.00  0.00     0.273 C 
BRANCH  29  30
HETATM   30  C   UNL     1     -10.754   1.623 -34.268  1.00  0.00    -0.033 A 
HETATM   31  C   UNL     1     -11.576   2.460 -35.041  1.00  0.00     0.009 A 
HETATM   32  C   UNL     1     -12.955   2.245 -35.093  1.00  0.00     0.001 A 
HETATM   33  C   UNL     1     -13.522   1.189 -34.384  1.00  0.00     0.000 A 
HETATM   34  C   UNL     1     -12.714   0.341 -33.630  1.00  0.00     0.001 A 
HETATM   35  C   UNL     1     -11.336   0.555 -33.571  1.00  0.00     0.009 A 
ENDBRANCH  29  30
ENDBRANCH  25  29
ENDBRANCH  20  22
ENDBRANCH   1  20
TORSDOF 10
ENDMDL
MODEL 3
REMARK VINA RESULT:      -8.1      1.972      2.617
REMARK  10 active torsions:
REMARK  status: ('A' for Active; 'I' for Inactive)
REMARK    1  A    between atoms: C_2  and  C_3 
REMARK    2  A    between atoms: C_3  and  C_4 
REMARK    3  A    between atoms: C_4  and  O_5 
REMARK    4  A    between atoms: O_5  and  C_6 
REMARK    5  A    between atoms: C_10  and  C_11 
REMARK       I    between atoms: C_11  and  N_12 
REMARK    6  A    between atoms: N_12  and  C_13 
REMARK    7  A    between atoms: C_13  and  N_14 
REMARK    8  A    between atoms: N_14  and  C_15 
REMARK    9  A    between atoms: N_18  and  C_20 
REMARK   10  A    between atoms: C_20  and  C_21 
ROOT
HETATM    1  C   UNL     1      -9.842   3.448 -32.746  1.00  0.00     0.174 C 
HETATM    2  S   UNL     1     -10.615   4.701 -33.542  1.00  0.00    -0.041 SA
ENDROOT
BRANCH   1   3
HETATM    3  N   UNL     1      -8.545   3.636 -32.380  1.00  0.00    -0.300 N 
HETATM    4  C   UNL     1      -7.874   4.083 -31.238  1.00  0.00     0.257 C 
HETATM    5  O   UNL     1      -8.383   4.587 -30.244  1.00  0.00    -0.267 OA
HETATM    6  H   UNL     1      -7.941   3.499 -33.184  1.00  0.00     0.171 HD
BRANCH   4   7
HETATM    7  C   UNL     1      -6.390   4.025 -31.303  1.00  0.00     0.033 A 
HETATM    8  C   UNL     1      -5.696   2.830 -31.502  1.00  0.00     0.039 A 
HETATM    9  C   UNL     1      -4.295   2.843 -31.544  1.00  0.00     0.045 A 
HETATM   10  C   UNL     1      -3.573   4.038 -31.381  1.00  0.00     0.086 A 
HETATM   11 BR   UNL     1      -3.410   1.182 -31.814  1.00  0.00    -0.048 Br
HETATM   12  C   UNL     1      -4.281   5.223 -31.165  1.00  0.00     0.039 A 
HETATM   13  C   UNL     1      -5.678   5.216 -31.121  1.00  0.00     0.020 A 
BRANCH  10  14
HETATM   14  O   UNL     1      -2.208   3.959 -31.454  1.00  0.00    -0.350 OA
BRANCH  14  15
HETATM   15  C   UNL     1      -1.537   4.852 -32.346  1.00  0.00     0.176 C 
BRANCH  15  16
HETATM   16  C   UNL     1      -1.834   4.408 -33.778  1.00  0.00     0.030 C 
BRANCH  16  17
HETATM   17  C   UNL     1      -2.413   5.531 -34.655  1.00  0.00    -0.021 C 
HETATM   18  C   UNL     1      -2.286   6.875 -33.935  1.00  0.00     0.009 C 
HETATM   19  C   UNL     1      -3.876   5.279 -35.021  1.00  0.00     0.009 C 
ENDBRANCH  16  17
ENDBRANCH  15  16
ENDBRANCH  14  15
ENDBRANCH  10  14
ENDBRANCH   4   7
ENDBRANCH   1   3
BRANCH   1  20
HETATM   20  N   UNL     1     -10.561   2.327 -32.548  1.00  0.00    -0.362 N 
HETATM   21  H   UNL     1     -11.323   2.504 -31.901  1.00  0.00     0.162 HD
BRANCH  20  22
HETATM   22  C   UNL     1     -10.516   1.023 -33.207  1.00  0.00     0.087 C 
HETATM   23  C   UNL     1      -9.821  -0.025 -32.327  1.00  0.00     0.053 C 
HETATM   24  C   UNL     1      -8.302   0.031 -32.376  1.00  0.00     0.237 C 
HETATM   25  N   UNL     1      -7.853  -0.027 -33.812  1.00  0.00    -0.067 N 
HETATM   26  H   UNL     1      -8.271  -0.869 -34.231  1.00  0.00     0.280 HD
HETATM   27  C   UNL     1      -8.361   1.161 -34.576  1.00  0.00     0.237 C 
HETATM   28  C   UNL     1      -9.876   1.125 -34.598  1.00  0.00     0.053 C 
BRANCH  25  29
HETATM   29  C   UNL     1      -6.357  -0.213 -33.969  1.00  0.00     0.273 C 
BRANCH  29  30
HETATM   30  C   UNL     1      -5.974  -1.654 -34.179  1.00  0.00    -0.033 A 
HETATM   31  C   UNL     1      -4.655  -2.083 -33.954  1.00  0.00     0.009 A 
HETATM   32  C   UNL     1      -4.290  -3.407 -34.199  1.00  0.00     0.001 A 
HETATM   33  C   UNL     1      -5.239  -4.317 -34.658  1.00  0.00     0.000 A 
HETATM   34  C   UNL     1      -6.554  -3.909 -34.866  1.00  0.00     0.001 A 
HETATM   35  C   UNL     1      -6.923  -2.584 -34.628  1.00  0.00     0.009 A 
ENDBRANCH  29  30
ENDBRANCH  25  29
ENDBRANCH  20  22
ENDBRANCH   1  20
TORSDOF 10
ENDMDL
MODEL 4
REMARK VINA RESULT:      -8.0      1.455      2.011
REMARK  10 active torsions:
REMARK  status: ('A' for Active; 'I' for Inactive)
REMARK    1  A    between atoms: C_2  and  C_3 
REMARK    2  A    between atoms: C_3  and  C_4 
REMARK    3  A    between atoms: C_4  and  O_5 
REMARK    4  A    between atoms: O_5  and  C_6 
REMARK    5  A    between atoms: C_10  and  C_11 
REMARK       I    between atoms: C_11  and  N_12 
REMARK    6  A    between atoms: N_12  and  C_13 
REMARK    7  A    between atoms: C_13  and  N_14 
REMARK    8  A    between atoms: N_14  and  C_15 
REMARK    9  A    between atoms: N_18  and  C_20 
REMARK   10  A    between atoms: C_20  and  C_21 
ROOT
HETATM    1  C   UNL     1      -9.070   3.854 -32.905  1.00  0.00     0.174 C 
HETATM    2  S   UNL     1     -10.208   4.769 -33.722  1.00  0.00    -0.041 SA
ENDROOT
BRANCH   1   3
HETATM    3  N   UNL     1      -7.824   4.382 -32.755  1.00  0.00    -0.300 N 
HETATM    4  C   UNL     1      -6.628   3.985 -32.149  1.00  0.00     0.257 C 
HETATM    5  O   UNL     1      -6.466   3.013 -31.422  1.00  0.00    -0.267 OA
HETATM    6  H   UNL     1      -7.815   5.338 -33.094  1.00  0.00     0.171 HD
BRANCH   4   7
HETATM    7  C   UNL     1      -5.478   4.908 -32.338  1.00  0.00     0.033 A 
HETATM    8  C   UNL     1      -4.471   4.667 -33.276  1.00  0.00     0.039 A 
HETATM    9  C   UNL     1      -3.409   5.574 -33.397  1.00  0.00     0.045 A 
HETATM   10  C   UNL     1      -3.333   6.718 -32.585  1.00  0.00     0.086 A 
HETATM   11 BR   UNL     1      -2.069   5.185 -34.689  1.00  0.00    -0.048 Br
HETATM   12  C   UNL     1      -4.337   6.937 -31.640  1.00  0.00     0.039 A 
HETATM   13  C   UNL     1      -5.399   6.036 -31.513  1.00  0.00     0.020 A 
BRANCH  10  14
HETATM   14  O   UNL     1      -2.268   7.557 -32.786  1.00  0.00    -0.350 OA
BRANCH  14  15
HETATM   15  C   UNL     1      -1.503   7.945 -31.642  1.00  0.00     0.176 C 
BRANCH  15  16
HETATM   16  C   UNL     1      -0.283   7.030 -31.552  1.00  0.00     0.030 C 
BRANCH  16  17
HETATM   17  C   UNL     1      -0.085   6.416 -30.155  1.00  0.00    -0.021 C 
HETATM   18  C   UNL     1       0.569   7.437 -29.223  1.00  0.00     0.009 C 
HETATM   19  C   UNL     1       0.762   5.143 -30.202  1.00  0.00     0.009 C 
ENDBRANCH  16  17
ENDBRANCH  15  16
ENDBRANCH  14  15
ENDBRANCH  10  14
ENDBRANCH   4   7
ENDBRANCH   1   3
BRANCH   1  20
HETATM   20  N   UNL     1      -9.467   2.642 -32.475  1.00  0.00    -0.362 N 
HETATM   21  H   UNL     1      -9.796   2.696 -31.516  1.00  0.00     0.162 HD
BRANCH  20  22
HETATM   22  C   UNL     1      -9.643   1.377 -33.186  1.00  0.00     0.087 C 
HETATM   23  C   UNL     1      -9.203   0.185 -32.325  1.00  0.00     0.053 C 
HETATM   24  C   UNL     1      -7.701  -0.053 -32.314  1.00  0.00     0.237 C 
HETATM   25  N   UNL     1      -7.207  -0.149 -33.733  1.00  0.00    -0.067 N 
HETATM   26  H   UNL     1      -7.759  -0.879 -34.201  1.00  0.00     0.280 HD
HETATM   27  C   UNL     1      -7.442   1.140 -34.465  1.00  0.00     0.237 C 
HETATM   28  C   UNL     1      -8.934   1.399 -34.546  1.00  0.00     0.053 C 
BRANCH  25  29
HETATM   29  C   UNL     1      -5.770  -0.615 -33.840  1.00  0.00     0.273 C 
BRANCH  29  30
HETATM   30  C   UNL     1      -5.662  -2.087 -34.137  1.00  0.00    -0.033 A 
HETATM   31  C   UNL     1      -4.461  -2.778 -33.900  1.00  0.00     0.009 A 
HETATM   32  C   UNL     1      -4.347  -4.131 -34.224  1.00  0.00     0.001 A 
HETATM   33  C   UNL     1      -5.432  -4.808 -34.775  1.00  0.00     0.000 A 
HETATM   34  C   UNL     1      -6.634  -4.139 -34.996  1.00  0.00     0.001 A 
HETATM   35  C   UNL     1      -6.750  -2.785 -34.679  1.00  0.00     0.009 A 
ENDBRANCH  29  30
ENDBRANCH  25  29
ENDBRANCH  20  22
ENDBRANCH   1  20
TORSDOF 10
ENDMDL
MODEL 5
REMARK VINA RESULT:      -7.9      3.986     10.561
REMARK  10 active torsions:
REMARK  status: ('A' for Active; 'I' for Inactive)
REMARK    1  A    between atoms: C_2  and  C_3 
REMARK    2  A    between atoms: C_3  and  C_4 
REMARK    3  A    between atoms: C_4  and  O_5 
REMARK    4  A    between atoms: O_5  and  C_6 
REMARK    5  A    between atoms: C_10  and  C_11 
REMARK       I    between atoms: C_11  and  N_12 
REMARK    6  A    between atoms: N_12  and  C_13 
REMARK    7  A    between atoms: C_13  and  N_14 
REMARK    8  A    between atoms: N_14  and  C_15 
REMARK    9  A    between atoms: N_18  and  C_20 
REMARK   10  A    between atoms: C_20  and  C_21 
ROOT
HETATM    1  C   UNL     1      -2.230   5.363 -33.188  1.00  0.00     0.174 C 
HETATM    2  S   UNL     1      -1.349   5.488 -34.605  1.00  0.00    -0.041 SA
ENDROOT
BRANCH   1   3
HETATM    3  N   UNL     1      -2.962   4.231 -32.997  1.00  0.00    -0.300 N 
HETATM    4  C   UNL     1      -4.139   3.894 -32.321  1.00  0.00     0.257 C 
HETATM    5  O   UNL     1      -4.770   4.611 -31.554  1.00  0.00    -0.267 OA
HETATM    6  H   UNL     1      -2.458   3.432 -33.368  1.00  0.00     0.171 HD
BRANCH   4   7
HETATM    7  C   UNL     1      -4.592   2.487 -32.486  1.00  0.00     0.033 A 
HETATM    8  C   UNL     1      -3.766   1.398 -32.203  1.00  0.00     0.039 A 
HETATM    9  C   UNL     1      -4.252   0.096 -32.388  1.00  0.00     0.045 A 
HETATM   10  C   UNL     1      -5.554  -0.133 -32.864  1.00  0.00     0.086 A 
HETATM   11 BR   UNL     1      -3.076  -1.343 -31.988  1.00  0.00    -0.048 Br
HETATM   12  C   UNL     1      -6.362   0.967 -33.161  1.00  0.00     0.039 A 
HETATM   13  C   UNL     1      -5.883   2.267 -32.979  1.00  0.00     0.020 A 
BRANCH  10  14
HETATM   14  O   UNL     1      -5.949  -1.438 -32.999  1.00  0.00    -0.350 OA
BRANCH  14  15
HETATM   15  C   UNL     1      -6.347  -1.882 -34.299  1.00  0.00     0.176 C 
BRANCH  15  16
HETATM   16  C   UNL     1      -5.173  -2.633 -34.925  1.00  0.00     0.030 C 
BRANCH  16  17
HETATM   17  C   UNL     1      -5.426  -4.144 -35.070  1.00  0.00    -0.021 C 
HETATM   18  C   UNL     1      -6.903  -4.452 -34.825  1.00  0.00     0.009 C 
HETATM   19  C   UNL     1      -4.561  -4.966 -34.113  1.00  0.00     0.009 C 
ENDBRANCH  16  17
ENDBRANCH  15  16
ENDBRANCH  14  15
ENDBRANCH  10  14
ENDBRANCH   4   7
ENDBRANCH   1   3
BRANCH   1  20
HETATM   20  N   UNL     1      -2.169   6.411 -32.346  1.00  0.00    -0.362 N 
HETATM   21  H   UNL     1      -3.079   6.583 -31.928  1.00  0.00     0.162 HD
BRANCH  20  22
HETATM   22  C   UNL     1      -1.033   7.182 -31.846  1.00  0.00     0.087 C 
HETATM   23  C   UNL     1       0.088   6.263 -31.341  1.00  0.00     0.053 C 
HETATM   24  C   UNL     1      -0.137   5.720 -29.939  1.00  0.00     0.237 C 
HETATM   25  N   UNL     1      -0.410   6.868 -29.004  1.00  0.00    -0.067 N 
HETATM   26  H   UNL     1       0.372   7.530 -29.094  1.00  0.00     0.280 HD
HETATM   27  C   UNL     1      -1.665   7.590 -29.402  1.00  0.00     0.237 C 
HETATM   28  C   UNL     1      -1.473   8.194 -30.779  1.00  0.00     0.053 C 
BRANCH  25  29
HETATM   29  C   UNL     1      -0.418   6.467 -27.543  1.00  0.00     0.273 C 
BRANCH  29  30
HETATM   30  C   UNL     1       0.231   7.497 -26.659  1.00  0.00    -0.033 A 
HETATM   31  C   UNL     1      -0.552   8.382 -25.898  1.00  0.00     0.009 A 
HETATM   32  C   UNL     1       0.051   9.370 -25.118  1.00  0.00     0.001 A 
HETATM   33  C   UNL     1       1.439   9.476 -25.081  1.00  0.00     0.000 A 
HETATM   34  C   UNL     1       2.227   8.592 -25.815  1.00  0.00     0.001 A 
HETATM   35  C   UNL     1       1.628   7.606 -26.601  1.00  0.00     0.009 A 
ENDBRANCH  29  30
ENDBRANCH  25  29
ENDBRANCH  20  22
ENDBRANCH   1  20
TORSDOF 10
ENDMDL
MODEL 6
REMARK VINA RESULT:      -7.9      3.899      7.503
REMARK  10 active torsions:
REMARK  status: ('A' for Active; 'I' for Inactive)
REMARK    1  A    between atoms: C_2  and  C_3 
REMARK    2  A    between atoms: C_3  and  C_4 
REMARK    3  A    between atoms: C_4  and  O_5 
REMARK    4  A    between atoms: O_5  and  C_6 
REMARK    5  A    between atoms: C_10  and  C_11 
REMARK       I    between atoms: C_11  and  N_12 
REMARK    6  A    between atoms: N_12  and  C_13 
REMARK    7  A    between atoms: C_13  and  N_14 
REMARK    8  A    between atoms: N_14  and  C_15 
REMARK    9  A    between atoms: N_18  and  C_20 
REMARK   10  A    between atoms: C_20  and  C_21 
ROOT
HETATM    1  C   UNL     1      -6.971   3.369 -30.709  1.00  0.00     0.174 C 
HETATM    2  S   UNL     1      -6.219   4.854 -30.542  1.00  0.00    -0.041 SA
ENDROOT
BRANCH   1   3
HETATM    3  N   UNL     1      -7.943   3.255 -31.655  1.00  0.00    -0.300 N 
HETATM    4  C   UNL     1      -8.046   3.495 -33.029  1.00  0.00     0.257 C 
HETATM    5  O   UNL     1      -7.215   4.051 -33.736  1.00  0.00    -0.267 OA
HETATM    6  H   UNL     1      -8.826   3.027 -31.210  1.00  0.00     0.171 HD
BRANCH   4   7
HETATM    7  C   UNL     1      -9.346   3.121 -33.648  1.00  0.00     0.033 A 
HETATM    8  C   UNL     1     -10.262   4.074 -34.097  1.00  0.00     0.039 A 
HETATM    9  C   UNL     1     -11.473   3.655 -34.664  1.00  0.00     0.045 A 
HETATM   10  C   UNL     1     -11.788   2.290 -34.781  1.00  0.00     0.086 A 
HETATM   11 BR   UNL     1     -12.679   5.002 -35.251  1.00  0.00    -0.048 Br
HETATM   12  C   UNL     1     -10.869   1.348 -34.311  1.00  0.00     0.039 A 
HETATM   13  C   UNL     1      -9.659   1.761 -33.744  1.00  0.00     0.020 A 
BRANCH  10  14
HETATM   14  O   UNL     1     -12.986   1.973 -35.363  1.00  0.00    -0.350 OA
BRANCH  14  15
HETATM   15  C   UNL     1     -13.902   1.174 -34.608  1.00  0.00     0.176 C 
BRANCH  15  16
HETATM   16  C   UNL     1     -13.771   1.563 -33.136  1.00  0.00     0.030 C 
BRANCH  16  17
HETATM   17  C   UNL     1     -14.706   2.713 -32.725  1.00  0.00    -0.021 C 
HETATM   18  C   UNL     1     -14.032   3.581 -31.662  1.00  0.00     0.009 C 
HETATM   19  C   UNL     1     -16.049   2.203 -32.200  1.00  0.00     0.009 C 
ENDBRANCH  16  17
ENDBRANCH  15  16
ENDBRANCH  14  15
ENDBRANCH  10  14
ENDBRANCH   4   7
ENDBRANCH   1   3
BRANCH   1  20
HETATM   20  N   UNL     1      -6.572   2.394 -29.871  1.00  0.00    -0.362 N 
HETATM   21  H   UNL     1      -7.137   2.399 -29.027  1.00  0.00     0.162 HD
BRANCH  20  22
HETATM   22  C   UNL     1      -5.626   1.295 -30.051  1.00  0.00     0.087 C 
HETATM   23  C   UNL     1      -4.600   1.613 -31.147  1.00  0.00     0.053 C 
HETATM   24  C   UNL     1      -5.109   1.381 -32.561  1.00  0.00     0.237 C 
HETATM   25  N   UNL     1      -5.653  -0.020 -32.665  1.00  0.00    -0.067 N 
HETATM   26  H   UNL     1      -4.909  -0.661 -32.359  1.00  0.00     0.280 HD
HETATM   27  C   UNL     1      -6.822  -0.205 -31.741  1.00  0.00     0.237 C 
HETATM   28  C   UNL     1      -6.354  -0.030 -30.309  1.00  0.00     0.053 C 
BRANCH  25  29
HETATM   29  C   UNL     1      -5.972  -0.438 -34.085  1.00  0.00     0.273 C 
BRANCH  29  30
HETATM   30  C   UNL     1      -5.764  -1.911 -34.313  1.00  0.00    -0.033 A 
HETATM   31  C   UNL     1      -6.819  -2.721 -34.766  1.00  0.00     0.009 A 
HETATM   32  C   UNL     1      -6.638  -4.095 -34.927  1.00  0.00     0.001 A 
HETATM   33  C   UNL     1      -5.401  -4.672 -34.650  1.00  0.00     0.000 A 
HETATM   34  C   UNL     1      -4.341  -3.877 -34.220  1.00  0.00     0.001 A 
HETATM   35  C   UNL     1      -4.520  -2.502 -34.051  1.00  0.00     0.009 A 
ENDBRANCH  29  30
ENDBRANCH  25  29
ENDBRANCH  20  22
ENDBRANCH   1  20
TORSDOF 10
ENDMDL
MODEL 7
REMARK VINA RESULT:      -7.8      2.201      2.612
REMARK  10 active torsions:
REMARK  status: ('A' for Active; 'I' for Inactive)
REMARK    1  A    between atoms: C_2  and  C_3 
REMARK    2  A    between atoms: C_3  and  C_4 
REMARK    3  A    between atoms: C_4  and  O_5 
REMARK    4  A    between atoms: O_5  and  C_6 
REMARK    5  A    between atoms: C_10  and  C_11 
REMARK       I    between atoms: C_11  and  N_12 
REMARK    6  A    between atoms: N_12  and  C_13 
REMARK    7  A    between atoms: C_13  and  N_14 
REMARK    8  A    between atoms: N_14  and  C_15 
REMARK    9  A    between atoms: N_18  and  C_20 
REMARK   10  A    between atoms: C_20  and  C_21 
ROOT
HETATM    1  C   UNL     1      -7.291   3.527 -30.881  1.00  0.00     0.174 C 
HETATM    2  S   UNL     1      -8.351   4.123 -29.732  1.00  0.00    -0.041 SA
ENDROOT
BRANCH   1   3
HETATM    3  N   UNL     1      -6.030   4.041 -30.906  1.00  0.00    -0.300 N 
HETATM    4  C   UNL     1      -4.924   3.954 -31.756  1.00  0.00     0.257 C 
HETATM    5  O   UNL     1      -4.795   3.198 -32.711  1.00  0.00    -0.267 OA
HETATM    6  H   UNL     1      -5.843   4.527 -30.036  1.00  0.00     0.171 HD
BRANCH   4   7
HETATM    7  C   UNL     1      -3.760   4.801 -31.380  1.00  0.00     0.033 A 
HETATM    8  C   UNL     1      -3.907   6.025 -30.725  1.00  0.00     0.039 A 
HETATM    9  C   UNL     1      -2.769   6.778 -30.406  1.00  0.00     0.045 A 
HETATM   10  C   UNL     1      -1.481   6.329 -30.744  1.00  0.00     0.086 A 
HETATM   11 BR   UNL     1      -3.037   8.438 -29.518  1.00  0.00    -0.048 Br
HETATM   12  C   UNL     1      -1.351   5.111 -31.416  1.00  0.00     0.039 A 
HETATM   13  C   UNL     1      -2.482   4.355 -31.736  1.00  0.00     0.020 A 
BRANCH  10  14
HETATM   14  O   UNL     1      -0.426   7.123 -30.378  1.00  0.00    -0.350 OA
BRANCH  14  15
HETATM   15  C   UNL     1       0.614   6.529 -29.597  1.00  0.00     0.176 C 
BRANCH  15  16
HETATM   16  C   UNL     1       0.334   6.832 -28.125  1.00  0.00     0.030 C 
BRANCH  16  17
HETATM   17  C   UNL     1       1.039   8.103 -27.621  1.00  0.00    -0.021 C 
HETATM   18  C   UNL     1       1.784   7.807 -26.319  1.00  0.00     0.009 C 
HETATM   19  C   UNL     1       0.058   9.257 -27.404  1.00  0.00     0.009 C 
ENDBRANCH  16  17
ENDBRANCH  15  16
ENDBRANCH  14  15
ENDBRANCH  10  14
ENDBRANCH   4   7
ENDBRANCH   1   3
BRANCH   1  20
HETATM   20  N   UNL     1      -7.775   2.592 -31.721  1.00  0.00    -0.362 N 
HETATM   21  H   UNL     1      -7.845   2.964 -32.663  1.00  0.00     0.162 HD
BRANCH  20  22
HETATM   22  C   UNL     1      -8.040   1.168 -31.529  1.00  0.00     0.087 C 
HETATM   23  C   UNL     1      -6.735   0.362 -31.452  1.00  0.00     0.053 C 
HETATM   24  C   UNL     1      -6.118   0.047 -32.805  1.00  0.00     0.237 C 
HETATM   25  N   UNL     1      -7.154  -0.610 -33.678  1.00  0.00    -0.067 N 
HETATM   26  H   UNL     1      -7.516  -1.424 -33.165  1.00  0.00     0.280 HD
HETATM   27  C   UNL     1      -8.306   0.320 -33.927  1.00  0.00     0.237 C 
HETATM   28  C   UNL     1      -8.988   0.628 -32.608  1.00  0.00     0.053 C 
BRANCH  25  29
HETATM   29  C   UNL     1      -6.587  -1.177 -34.963  1.00  0.00     0.273 C 
BRANCH  29  30
HETATM   30  C   UNL     1      -5.952  -2.528 -34.767  1.00  0.00    -0.033 A 
HETATM   31  C   UNL     1      -6.689  -3.704 -34.991  1.00  0.00     0.009 A 
HETATM   32  C   UNL     1      -6.114  -4.954 -34.758  1.00  0.00     0.001 A 
HETATM   33  C   UNL     1      -4.797  -5.043 -34.313  1.00  0.00     0.000 A 
HETATM   34  C   UNL     1      -4.051  -3.886 -34.106  1.00  0.00     0.001 A 
HETATM   35  C   UNL     1      -4.624  -2.633 -34.331  1.00  0.00     0.009 A 
ENDBRANCH  29  30
ENDBRANCH  25  29
ENDBRANCH  20  22
ENDBRANCH   1  20
TORSDOF 10
ENDMDL
MODEL 8
REMARK VINA RESULT:      -7.7      2.944      4.079
REMARK  10 active torsions:
REMARK  status: ('A' for Active; 'I' for Inactive)
REMARK    1  A    between atoms: C_2  and  C_3 
REMARK    2  A    between atoms: C_3  and  C_4 
REMARK    3  A    between atoms: C_4  and  O_5 
REMARK    4  A    between atoms: O_5  and  C_6 
REMARK    5  A    between atoms: C_10  and  C_11 
REMARK       I    between atoms: C_11  and  N_12 
REMARK    6  A    between atoms: N_12  and  C_13 
REMARK    7  A    between atoms: C_13  and  N_14 
REMARK    8  A    between atoms: N_14  and  C_15 
REMARK    9  A    between atoms: N_18  and  C_20 
REMARK   10  A    between atoms: C_20  and  C_21 
ROOT
HETATM    1  C   UNL     1      -5.311   4.223 -32.071  1.00  0.00     0.174 C 
HETATM    2  S   UNL     1      -5.856   4.795 -33.546  1.00  0.00    -0.041 SA
ENDROOT
BRANCH   1   3
HETATM    3  N   UNL     1      -4.143   4.729 -31.588  1.00  0.00    -0.300 N 
HETATM    4  C   UNL     1      -2.795   4.678 -31.956  1.00  0.00     0.257 C 
HETATM    5  O   UNL     1      -2.303   3.972 -32.826  1.00  0.00    -0.267 OA
HETATM    6  H   UNL     1      -4.308   5.169 -30.689  1.00  0.00     0.171 HD
BRANCH   4   7
HETATM    7  C   UNL     1      -1.873   5.496 -31.123  1.00  0.00     0.033 A 
HETATM    8  C   UNL     1      -2.246   6.732 -30.589  1.00  0.00     0.039 A 
HETATM    9  C   UNL     1      -1.325   7.456 -29.819  1.00  0.00     0.045 A 
HETATM   10  C   UNL     1      -0.030   6.967 -29.582  1.00  0.00     0.086 A 
HETATM   11 BR   UNL     1      -1.892   9.133 -29.125  1.00  0.00    -0.048 Br
HETATM   12  C   UNL     1       0.334   5.738 -30.138  1.00  0.00     0.039 A 
HETATM   13  C   UNL     1      -0.579   5.010 -30.907  1.00  0.00     0.020 A 
BRANCH  10  14
HETATM   14  O   UNL     1       0.796   7.735 -28.805  1.00  0.00    -0.350 OA
BRANCH  14  15
HETATM   15  C   UNL     1       1.192   7.210 -27.535  1.00  0.00     0.176 C 
BRANCH  15  16
HETATM   16  C   UNL     1       0.376   7.917 -26.452  1.00  0.00     0.030 C 
BRANCH  16  17
HETATM   17  C   UNL     1       1.084   9.152 -25.867  1.00  0.00    -0.021 C 
HETATM   18  C   UNL     1       2.467   8.762 -25.344  1.00  0.00     0.009 C 
HETATM   19  C   UNL     1       0.272   9.802 -24.746  1.00  0.00     0.009 C 
ENDBRANCH  16  17
ENDBRANCH  15  16
ENDBRANCH  14  15
ENDBRANCH  10  14
ENDBRANCH   4   7
ENDBRANCH   1   3
BRANCH   1  20
HETATM   20  N   UNL     1      -6.063   3.277 -31.477  1.00  0.00    -0.362 N 
HETATM   21  H   UNL     1      -7.032   3.576 -31.423  1.00  0.00     0.162 HD
BRANCH  20  22
HETATM   22  C   UNL     1      -5.750   1.907 -31.078  1.00  0.00     0.087 C 
HETATM   23  C   UNL     1      -4.603   1.328 -31.918  1.00  0.00     0.053 C 
HETATM   24  C   UNL     1      -5.031   0.812 -33.283  1.00  0.00     0.237 C 
HETATM   25  N   UNL     1      -6.169  -0.158 -33.109  1.00  0.00    -0.067 N 
HETATM   26  H   UNL     1      -5.857  -0.882 -32.450  1.00  0.00     0.280 HD
HETATM   27  C   UNL     1      -7.361   0.525 -32.504  1.00  0.00     0.237 C 
HETATM   28  C   UNL     1      -6.999   1.016 -31.117  1.00  0.00     0.053 C 
BRANCH  25  29
HETATM   29  C   UNL     1      -6.521  -0.908 -34.378  1.00  0.00     0.273 C 
BRANCH  29  30
HETATM   30  C   UNL     1      -5.976  -2.311 -34.387  1.00  0.00    -0.033 A 
HETATM   31  C   UNL     1      -4.660  -2.570 -33.968  1.00  0.00     0.009 A 
HETATM   32  C   UNL     1      -4.141  -3.864 -34.026  1.00  0.00     0.001 A 
HETATM   33  C   UNL     1      -4.932  -4.912 -34.491  1.00  0.00     0.000 A 
HETATM   34  C   UNL     1      -6.244  -4.671 -34.891  1.00  0.00     0.001 A 
HETATM   35  C   UNL     1      -6.766  -3.377 -34.840  1.00  0.00     0.009 A 
ENDBRANCH  29  30
ENDBRANCH  25  29
ENDBRANCH  20  22
ENDBRANCH   1  20
TORSDOF 10
ENDMDL
MODEL 9
REMARK VINA RESULT:      -7.6      4.097     10.718
REMARK  10 active torsions:
REMARK  status: ('A' for Active; 'I' for Inactive)
REMARK    1  A    between atoms: C_2  and  C_3 
REMARK    2  A    between atoms: C_3  and  C_4 
REMARK    3  A    between atoms: C_4  and  O_5 
REMARK    4  A    between atoms: O_5  and  C_6 
REMARK    5  A    between atoms: C_10  and  C_11 
REMARK       I    between atoms: C_11  and  N_12 
REMARK    6  A    between atoms: N_12  and  C_13 
REMARK    7  A    between atoms: C_13  and  N_14 
REMARK    8  A    between atoms: N_14  and  C_15 
REMARK    9  A    between atoms: N_18  and  C_20 
REMARK   10  A    between atoms: C_20  and  C_21 
ROOT
HETATM    1  C   UNL     1      -2.093   4.536 -33.071  1.00  0.00     0.174 C 
HETATM    2  S   UNL     1      -1.853   5.382 -34.494  1.00  0.00    -0.041 SA
ENDROOT
BRANCH   1   3
HETATM    3  N   UNL     1      -3.157   3.688 -33.010  1.00  0.00    -0.300 N 
HETATM    4  C   UNL     1      -3.582   2.665 -32.158  1.00  0.00     0.257 C 
HETATM    5  O   UNL     1      -2.941   2.165 -31.243  1.00  0.00    -0.267 OA
HETATM    6  H   UNL     1      -3.714   3.780 -33.853  1.00  0.00     0.171 HD
BRANCH   4   7
HETATM    7  C   UNL     1      -4.907   2.072 -32.482  1.00  0.00     0.033 A 
HETATM    8  C   UNL     1      -5.041   0.793 -33.027  1.00  0.00     0.039 A 
HETATM    9  C   UNL     1      -6.319   0.297 -33.317  1.00  0.00     0.045 A 
HETATM   10  C   UNL     1      -7.470   1.067 -33.078  1.00  0.00     0.086 A 
HETATM   11 BR   UNL     1      -6.433  -1.449 -34.061  1.00  0.00    -0.048 Br
HETATM   12  C   UNL     1      -7.320   2.351 -32.550  1.00  0.00     0.039 A 
HETATM   13  C   UNL     1      -6.047   2.852 -32.259  1.00  0.00     0.020 A 
BRANCH  10  14
HETATM   14  O   UNL     1      -8.678   0.494 -33.376  1.00  0.00    -0.350 OA
BRANCH  14  15
HETATM   15  C   UNL     1      -9.862   1.197 -32.990  1.00  0.00     0.176 C 
BRANCH  15  16
HETATM   16  C   UNL     1     -10.823   1.201 -34.178  1.00  0.00     0.030 C 
BRANCH  16  17
HETATM   17  C   UNL     1     -12.298   1.344 -33.766  1.00  0.00    -0.021 C 
HETATM   18  C   UNL     1     -12.936  -0.039 -33.620  1.00  0.00     0.009 C 
HETATM   19  C   UNL     1     -13.097   2.177 -34.769  1.00  0.00     0.009 C 
ENDBRANCH  16  17
ENDBRANCH  15  16
ENDBRANCH  14  15
ENDBRANCH  10  14
ENDBRANCH   4   7
ENDBRANCH   1   3
BRANCH   1  20
HETATM   20  N   UNL     1      -1.223   4.778 -32.073  1.00  0.00    -0.362 N 
HETATM   21  H   UNL     1      -0.969   3.912 -31.606  1.00  0.00     0.162 HD
BRANCH  20  22
HETATM   22  C   UNL     1      -0.505   5.992 -31.692  1.00  0.00     0.087 C 
HETATM   23  C   UNL     1       0.728   5.669 -30.836  1.00  0.00     0.053 C 
HETATM   24  C   UNL     1       0.416   5.416 -29.369  1.00  0.00     0.237 C 
HETATM   25  N   UNL     1      -0.378   6.574 -28.827  1.00  0.00    -0.067 N 
HETATM   26  H   UNL     1       0.159   7.430 -29.016  1.00  0.00     0.280 HD
HETATM   27  C   UNL     1      -1.694   6.696 -29.541  1.00  0.00     0.237 C 
HETATM   28  C   UNL     1      -1.437   6.998 -31.004  1.00  0.00     0.053 C 
BRANCH  25  29
HETATM   29  C   UNL     1      -0.544   6.540 -27.322  1.00  0.00     0.273 C 
BRANCH  29  30
HETATM   30  C   UNL     1       0.201   7.653 -26.634  1.00  0.00    -0.033 A 
HETATM   31  C   UNL     1       1.603   7.629 -26.550  1.00  0.00     0.009 A 
HETATM   32  C   UNL     1       2.288   8.636 -25.868  1.00  0.00     0.001 A 
HETATM   33  C   UNL     1       1.582   9.679 -25.274  1.00  0.00     0.000 A 
HETATM   34  C   UNL     1       0.193   9.724 -25.367  1.00  0.00     0.001 A 
HETATM   35  C   UNL     1      -0.496   8.716 -26.044  1.00  0.00     0.009 A 
ENDBRANCH  29  30
ENDBRANCH  25  29
ENDBRANCH  20  22
ENDBRANCH   1  20
TORSDOF 10
ENDMDL
MODEL 10
REMARK VINA RESULT:      -7.6      3.153      8.655
REMARK  10 active torsions:
REMARK  status: ('A' for Active; 'I' for Inactive)
REMARK    1  A    between atoms: C_2  and  C_3 
REMARK    2  A    between atoms: C_3  and  C_4 
REMARK    3  A    between atoms: C_4  and  O_5 
REMARK    4  A    between atoms: O_5  and  C_6 
REMARK    5  A    between atoms: C_10  and  C_11 
REMARK       I    between atoms: C_11  and  N_12 
REMARK    6  A    between atoms: N_12  and  C_13 
REMARK    7  A    between atoms: C_13  and  N_14 
REMARK    8  A    between atoms: N_14  and  C_15 
REMARK    9  A    between atoms: N_18  and  C_20 
REMARK   10  A    between atoms: C_20  and  C_21 
ROOT
HETATM    1  C   UNL     1      -4.179   6.699 -28.067  1.00  0.00     0.174 C 
HETATM    2  S   UNL     1      -5.322   7.776 -27.491  1.00  0.00    -0.041 SA
ENDROOT
BRANCH   1   3
HETATM    3  N   UNL     1      -4.531   5.902 -29.113  1.00  0.00    -0.300 N 
HETATM    4  C   UNL     1      -5.045   6.095 -30.398  1.00  0.00     0.257 C 
HETATM    5  O   UNL     1      -5.463   7.147 -30.866  1.00  0.00    -0.267 OA
HETATM    6  H   UNL     1      -4.486   4.929 -28.830  1.00  0.00     0.171 HD
BRANCH   4   7
HETATM    7  C   UNL     1      -5.185   4.865 -31.224  1.00  0.00     0.033 A 
HETATM    8  C   UNL     1      -4.659   3.634 -30.826  1.00  0.00     0.039 A 
HETATM    9  C   UNL     1      -4.818   2.515 -31.655  1.00  0.00     0.045 A 
HETATM   10  C   UNL     1      -5.490   2.611 -32.885  1.00  0.00     0.086 A 
HETATM   11 BR   UNL     1      -4.075   0.870 -31.059  1.00  0.00    -0.048 Br
HETATM   12  C   UNL     1      -5.995   3.853 -33.278  1.00  0.00     0.039 A 
HETATM   13  C   UNL     1      -5.839   4.973 -32.456  1.00  0.00     0.020 A 
BRANCH  10  14
HETATM   14  O   UNL     1      -5.613   1.462 -33.621  1.00  0.00    -0.350 OA
BRANCH  14  15
HETATM   15  C   UNL     1      -6.912   0.874 -33.725  1.00  0.00     0.176 C 
BRANCH  15  16
HETATM   16  C   UNL     1      -6.818  -0.575 -33.249  1.00  0.00     0.030 C 
BRANCH  16  17
HETATM   17  C   UNL     1      -6.060  -1.488 -34.227  1.00  0.00    -0.021 C 
HETATM   18  C   UNL     1      -6.907  -2.717 -34.559  1.00  0.00     0.009 C 
HETATM   19  C   UNL     1      -4.706  -1.930 -33.670  1.00  0.00     0.009 C 
ENDBRANCH  16  17
ENDBRANCH  15  16
ENDBRANCH  14  15
ENDBRANCH  10  14
ENDBRANCH   4   7
ENDBRANCH   1   3
BRANCH   1  20
HETATM   20  N   UNL     1      -2.993   6.682 -27.430  1.00  0.00    -0.362 N 
HETATM   21  H   UNL     1      -2.893   5.828 -26.889  1.00  0.00     0.162 HD
BRANCH  20  22
HETATM   22  C   UNL     1      -1.833   7.566 -27.527  1.00  0.00     0.087 C 
HETATM   23  C   UNL     1      -1.951   8.514 -28.728  1.00  0.00     0.053 C 
HETATM   24  C   UNL     1      -1.559   7.886 -30.056  1.00  0.00     0.237 C 
HETATM   25  N   UNL     1      -0.187   7.280 -29.929  1.00  0.00    -0.067 N 
HETATM   26  H   UNL     1       0.445   8.019 -29.594  1.00  0.00     0.280 HD
HETATM   27  C   UNL     1      -0.185   6.181 -28.906  1.00  0.00     0.237 C 
HETATM   28  C   UNL     1      -0.524   6.767 -27.549  1.00  0.00     0.053 C 
BRANCH  25  29
HETATM   29  C   UNL     1       0.399   6.833 -31.252  1.00  0.00     0.273 C 
BRANCH  29  30
HETATM   30  C   UNL     1      -0.654   6.369 -32.222  1.00  0.00    -0.033 A 
HETATM   31  C   UNL     1      -1.093   5.034 -32.215  1.00  0.00     0.009 A 
HETATM   32  C   UNL     1      -2.032   4.593 -33.149  1.00  0.00     0.001 A 
HETATM   33  C   UNL     1      -2.550   5.481 -34.088  1.00  0.00     0.000 A 
HETATM   34  C   UNL     1      -2.138   6.812 -34.092  1.00  0.00     0.001 A 
HETATM   35  C   UNL     1      -1.194   7.256 -33.164  1.00  0.00     0.009 A 
ENDBRANCH  29  30
ENDBRANCH  25  29
ENDBRANCH  20  22
ENDBRANCH   1  20
TORSDOF 10
ENDMDL
