MODEL 1
REMARK VINA RESULT:      -9.0      0.000      0.000
REMARK  2 active torsions:
REMARK  status: ('A' for Active; 'I' for Inactive)
REMARK    1  A    between atoms: C_9  and  C_10 
REMARK       I    between atoms: C_10  and  N_11 
REMARK    2  A    between atoms: N_11  and  N_12 
ROOT
HETATM    1  C   UNL     1      -5.482   0.268 -32.881  1.00  0.00     0.291 C 
HETATM    2  N   UNL     1      -6.742  -0.243 -33.097  1.00  0.00    -0.251 N 
HETATM    3  O   UNL     1      -5.182   1.452 -33.007  1.00  0.00    -0.264 OA
HETATM    4  H   UNL     1      -6.887  -1.248 -33.067  1.00  0.00     0.191 HD
ENDROOT
BRANCH   2   5
HETATM    5  N   UNL     1      -7.794   0.588 -33.417  1.00  0.00    -0.167 N 
HETATM    6  C   UNL     1      -8.061   0.972 -34.704  1.00  0.00     0.345 C 
HETATM    7  O   UNL     1      -7.398   0.762 -35.707  1.00  0.00    -0.245 OA
HETATM    8  N   UNL     1      -9.290   1.601 -34.710  1.00  0.00    -0.323 N 
HETATM    9  C   UNL     1      -9.943   1.544 -33.413  1.00  0.00     0.117 C 
HETATM   10  H   UNL     1      -9.704   1.922 -35.576  1.00  0.00     0.165 HD
HETATM   11  C   UNL     1     -11.247   0.739 -33.466  1.00  0.00     0.041 C 
HETATM   12  C   UNL     1     -10.148   2.947 -32.835  1.00  0.00     0.041 C 
HETATM   13  C   UNL     1      -8.889   0.760 -32.604  1.00  0.00     0.275 C 
HETATM   14  C   UNL     1     -12.372   1.502 -34.160  1.00  0.00     0.003 C 
HETATM   15  C   UNL     1     -12.574   2.885 -33.549  1.00  0.00     0.000 C 
HETATM   16  C   UNL     1     -11.281   3.695 -33.538  1.00  0.00     0.003 C 
HETATM   17  O   UNL     1      -9.052   0.332 -31.468  1.00  0.00    -0.268 OA
ENDBRANCH   2   5
BRANCH   1  18
HETATM   18  C   UNL     1      -4.527  -0.774 -32.476  1.00  0.00     0.158 A 
HETATM   19  C   UNL     1      -4.434  -2.106 -32.977  1.00  0.00     0.029 A 
HETATM   20  C   UNL     1      -5.115  -2.878 -33.939  1.00  0.00     0.023 A 
HETATM   21  C   UNL     1      -3.369  -2.677 -32.291  1.00  0.00     0.063 A 
HETATM   22  C   UNL     1      -4.700  -4.196 -34.187  1.00  0.00    -0.061 A 
HETATM   23  C   UNL     1      -5.399  -5.030 -35.223  1.00  0.00     0.048 C 
HETATM   24  C   UNL     1      -3.628  -4.737 -33.465  1.00  0.00     0.009 A 
HETATM   25  C   UNL     1      -2.942  -3.990 -32.501  1.00  0.00     0.032 A 
HETATM   26  N   UNL     1      -2.912  -1.697 -31.455  1.00  0.00    -0.277 N 
HETATM   27  H   UNL     1      -2.142  -1.763 -30.799  1.00  0.00     0.189 HD
HETATM   28  N   UNL     1      -3.569  -0.527 -31.554  1.00  0.00    -0.168 NA
ENDBRANCH   1  18
TORSDOF 2
ENDMDL
MODEL 2
REMARK VINA RESULT:      -8.9      4.759      7.180
REMARK  2 active torsions:
REMARK  status: ('A' for Active; 'I' for Inactive)
REMARK    1  A    between atoms: C_9  and  C_10 
REMARK       I    between atoms: C_10  and  N_11 
REMARK    2  A    between atoms: N_11  and  N_12 
ROOT
HETATM    1  C   UNL     1      -4.733   2.080 -32.536  1.00  0.00     0.291 C 
HETATM    2  N   UNL     1      -4.796   3.417 -32.858  1.00  0.00    -0.251 N 
HETATM    3  O   UNL     1      -3.938   1.596 -31.734  1.00  0.00    -0.264 OA
HETATM    4  H   UNL     1      -5.415   3.724 -33.603  1.00  0.00     0.191 HD
ENDROOT
BRANCH   2   5
HETATM    5  N   UNL     1      -3.982   4.334 -32.227  1.00  0.00    -0.167 N 
HETATM    6  C   UNL     1      -4.212   4.759 -30.946  1.00  0.00     0.345 C 
HETATM    7  O   UNL     1      -5.170   4.515 -30.230  1.00  0.00    -0.245 OA
HETATM    8  N   UNL     1      -3.109   5.484 -30.539  1.00  0.00    -0.323 N 
HETATM    9  C   UNL     1      -2.040   5.457 -31.522  1.00  0.00     0.117 C 
HETATM   10  H   UNL     1      -3.049   5.852 -29.598  1.00  0.00     0.165 HD
HETATM   11  C   UNL     1      -0.786   4.758 -30.982  1.00  0.00     0.041 C 
HETATM   12  C   UNL     1      -1.741   6.861 -32.054  1.00  0.00     0.041 C 
HETATM   13  C   UNL     1      -2.686   4.578 -32.613  1.00  0.00     0.275 C 
HETATM   14  C   UNL     1      -0.032   5.620 -29.973  1.00  0.00     0.003 C 
HETATM   15  C   UNL     1       0.277   7.004 -30.535  1.00  0.00     0.000 C 
HETATM   16  C   UNL     1      -0.982   7.709 -31.033  1.00  0.00     0.003 C 
HETATM   17  O   UNL     1      -2.105   4.145 -33.601  1.00  0.00    -0.268 OA
ENDBRANCH   2   5
BRANCH   1  18
HETATM   18  C   UNL     1      -5.735   1.290 -33.266  1.00  0.00     0.158 A 
HETATM   19  C   UNL     1      -5.642  -0.078 -33.657  1.00  0.00     0.029 A 
HETATM   20  C   UNL     1      -4.691  -1.108 -33.525  1.00  0.00     0.023 A 
HETATM   21  C   UNL     1      -6.844  -0.354 -34.298  1.00  0.00     0.063 A 
HETATM   22  C   UNL     1      -4.980  -2.385 -34.033  1.00  0.00    -0.061 A 
HETATM   23  C   UNL     1      -3.988  -3.504 -33.885  1.00  0.00     0.048 C 
HETATM   24  C   UNL     1      -6.199  -2.618 -34.682  1.00  0.00     0.009 A 
HETATM   25  C   UNL     1      -7.156  -1.607 -34.830  1.00  0.00     0.032 A 
HETATM   26  N   UNL     1      -7.550   0.816 -34.257  1.00  0.00    -0.277 N 
HETATM   27  H   UNL     1      -8.476   0.985 -34.636  1.00  0.00     0.189 HD
HETATM   28  N   UNL     1      -6.925   1.824 -33.622  1.00  0.00    -0.168 NA
ENDBRANCH   1  18
TORSDOF 2
ENDMDL
MODEL 3
REMARK VINA RESULT:      -8.8      4.600      6.619
REMARK  2 active torsions:
REMARK  status: ('A' for Active; 'I' for Inactive)
REMARK    1  A    between atoms: C_9  and  C_10 
REMARK       I    between atoms: C_10  and  N_11 
REMARK    2  A    between atoms: N_11  and  N_12 
ROOT
HETATM    1  C   UNL     1      -6.106   2.365 -32.940  1.00  0.00     0.291 C 
HETATM    2  N   UNL     1      -4.867   2.801 -33.349  1.00  0.00    -0.251 N 
HETATM    3  O   UNL     1      -6.725   2.828 -31.985  1.00  0.00    -0.264 OA
HETATM    4  H   UNL     1      -4.378   2.301 -34.086  1.00  0.00     0.191 HD
ENDROOT
BRANCH   2   5
HETATM    5  N   UNL     1      -4.253   3.868 -32.728  1.00  0.00    -0.167 N 
HETATM    6  C   UNL     1      -3.242   3.705 -31.820  1.00  0.00     0.345 C 
HETATM    7  O   UNL     1      -2.815   2.666 -31.344  1.00  0.00    -0.245 OA
HETATM    8  N   UNL     1      -2.701   4.950 -31.564  1.00  0.00    -0.323 N 
HETATM    9  C   UNL     1      -3.277   5.983 -32.408  1.00  0.00     0.117 C 
HETATM   10  H   UNL     1      -1.902   5.053 -30.952  1.00  0.00     0.165 HD
HETATM   11  C   UNL     1      -2.232   6.603 -33.343  1.00  0.00     0.041 C 
HETATM   12  C   UNL     1      -4.008   7.037 -31.572  1.00  0.00     0.041 C 
HETATM   13  C   UNL     1      -4.274   5.145 -33.235  1.00  0.00     0.275 C 
HETATM   14  C   UNL     1      -1.275   7.537 -32.607  1.00  0.00     0.003 C 
HETATM   15  C   UNL     1      -2.027   8.593 -31.803  1.00  0.00     0.000 C 
HETATM   16  C   UNL     1      -3.035   7.966 -30.844  1.00  0.00     0.003 C 
HETATM   17  O   UNL     1      -4.906   5.557 -34.200  1.00  0.00    -0.268 OA
ENDBRANCH   2   5
BRANCH   1  18
HETATM   18  C   UNL     1      -6.612   1.271 -33.782  1.00  0.00     0.158 A 
HETATM   19  C   UNL     1      -6.088  -0.050 -33.893  1.00  0.00     0.029 A 
HETATM   20  C   UNL     1      -5.022  -0.770 -33.320  1.00  0.00     0.023 A 
HETATM   21  C   UNL     1      -6.924  -0.696 -34.796  1.00  0.00     0.063 A 
HETATM   22  C   UNL     1      -4.833  -2.118 -33.665  1.00  0.00    -0.061 A 
HETATM   23  C   UNL     1      -3.714  -2.911 -33.051  1.00  0.00     0.048 C 
HETATM   24  C   UNL     1      -5.691  -2.728 -34.589  1.00  0.00     0.009 A 
HETATM   25  C   UNL     1      -6.753  -2.030 -35.176  1.00  0.00     0.032 A 
HETATM   26  N   UNL     1      -7.852   0.238 -35.160  1.00  0.00    -0.277 N 
HETATM   27  H   UNL     1      -8.620   0.118 -35.812  1.00  0.00     0.189 HD
HETATM   28  N   UNL     1      -7.713   1.431 -34.551  1.00  0.00    -0.168 NA
ENDBRANCH   1  18
TORSDOF 2
ENDMDL
MODEL 4
REMARK VINA RESULT:      -8.8      4.431      6.470
REMARK  2 active torsions:
REMARK  status: ('A' for Active; 'I' for Inactive)
REMARK    1  A    between atoms: C_9  and  C_10 
REMARK       I    between atoms: C_10  and  N_11 
REMARK    2  A    between atoms: N_11  and  N_12 
ROOT
HETATM    1  C   UNL     1      -3.425   1.013 -31.841  1.00  0.00     0.291 C 
HETATM    2  N   UNL     1      -4.125   2.034 -32.441  1.00  0.00    -0.251 N 
HETATM    3  O   UNL     1      -2.597   1.169 -30.947  1.00  0.00    -0.264 OA
HETATM    4  H   UNL     1      -4.719   1.833 -33.240  1.00  0.00     0.191 HD
ENDROOT
BRANCH   2   5
HETATM    5  N   UNL     1      -3.981   3.336 -32.011  1.00  0.00    -0.167 N 
HETATM    6  C   UNL     1      -4.499   3.779 -30.824  1.00  0.00     0.345 C 
HETATM    7  O   UNL     1      -5.228   3.181 -30.049  1.00  0.00    -0.245 OA
HETATM    8  N   UNL     1      -3.991   5.041 -30.587  1.00  0.00    -0.323 N 
HETATM    9  C   UNL     1      -3.003   5.431 -31.578  1.00  0.00     0.117 C 
HETATM   10  H   UNL     1      -4.210   5.535 -29.732  1.00  0.00     0.165 HD
HETATM   11  C   UNL     1      -1.616   5.624 -30.954  1.00  0.00     0.041 C 
HETATM   12  C   UNL     1      -3.464   6.660 -32.366  1.00  0.00     0.041 C 
HETATM   13  C   UNL     1      -2.993   4.173 -32.472  1.00  0.00     0.275 C 
HETATM   14  C   UNL     1      -1.520   6.913 -30.141  1.00  0.00     0.003 C 
HETATM   15  C   UNL     1      -1.959   8.126 -30.956  1.00  0.00     0.000 C 
HETATM   16  C   UNL     1      -3.358   7.942 -31.539  1.00  0.00     0.003 C 
HETATM   17  O   UNL     1      -2.197   3.964 -33.379  1.00  0.00    -0.268 OA
ENDBRANCH   2   5
BRANCH   1  18
HETATM   18  C   UNL     1      -3.782  -0.301 -32.397  1.00  0.00     0.158 A 
HETATM   19  C   UNL     1      -4.889  -0.613 -33.240  1.00  0.00     0.029 A 
HETATM   20  C   UNL     1      -5.954   0.102 -33.821  1.00  0.00     0.023 A 
HETATM   21  C   UNL     1      -4.774  -1.974 -33.499  1.00  0.00     0.063 A 
HETATM   22  C   UNL     1      -6.866  -0.570 -34.652  1.00  0.00    -0.061 A 
HETATM   23  C   UNL     1      -7.997   0.177 -35.299  1.00  0.00     0.048 C 
HETATM   24  C   UNL     1      -6.720  -1.945 -34.878  1.00  0.00     0.009 A 
HETATM   25  C   UNL     1      -5.673  -2.676 -34.305  1.00  0.00     0.032 A 
HETATM   26  N   UNL     1      -3.657  -2.377 -32.821  1.00  0.00    -0.277 N 
HETATM   27  H   UNL     1      -3.271  -3.313 -32.780  1.00  0.00     0.189 HD
HETATM   28  N   UNL     1      -3.017  -1.392 -32.164  1.00  0.00    -0.168 NA
ENDBRANCH   1  18
TORSDOF 2
ENDMDL
MODEL 5
REMARK VINA RESULT:      -8.8      1.772      2.382
REMARK  2 active torsions:
REMARK  status: ('A' for Active; 'I' for Inactive)
REMARK    1  A    between atoms: C_9  and  C_10 
REMARK       I    between atoms: C_10  and  N_11 
REMARK    2  A    between atoms: N_11  and  N_12 
ROOT
HETATM    1  C   UNL     1      -6.593   0.921 -33.575  1.00  0.00     0.291 C 
HETATM    2  N   UNL     1      -7.602   0.787 -32.650  1.00  0.00    -0.251 N 
HETATM    3  O   UNL     1      -6.595   1.739 -34.492  1.00  0.00    -0.264 OA
HETATM    4  H   UNL     1      -7.572   0.022 -31.982  1.00  0.00     0.191 HD
ENDROOT
BRANCH   2   5
HETATM    5  N   UNL     1      -8.687   1.638 -32.661  1.00  0.00    -0.167 N 
HETATM    6  C   UNL     1      -9.968   1.193 -32.847  1.00  0.00     0.345 C 
HETATM    7  O   UNL     1     -10.341   0.067 -33.135  1.00  0.00    -0.245 OA
HETATM    8  N   UNL     1     -10.822   2.243 -32.578  1.00  0.00    -0.323 N 
HETATM    9  C   UNL     1     -10.118   3.411 -32.076  1.00  0.00     0.117 C 
HETATM   10  H   UNL     1     -11.826   2.116 -32.607  1.00  0.00     0.165 HD
HETATM   11  C   UNL     1     -10.529   3.751 -30.639  1.00  0.00     0.041 C 
HETATM   12  C   UNL     1     -10.275   4.602 -33.025  1.00  0.00     0.041 C 
HETATM   13  C   UNL     1      -8.667   2.885 -32.084  1.00  0.00     0.275 C 
HETATM   14  C   UNL     1     -11.918   4.380 -30.566  1.00  0.00     0.003 C 
HETATM   15  C   UNL     1     -12.042   5.580 -31.500  1.00  0.00     0.000 C 
HETATM   16  C   UNL     1     -11.670   5.222 -32.936  1.00  0.00     0.003 C 
HETATM   17  O   UNL     1      -7.706   3.472 -31.602  1.00  0.00    -0.268 OA
ENDBRANCH   2   5
BRANCH   1  18
HETATM   18  C   UNL     1      -5.499  -0.033 -33.339  1.00  0.00     0.158 A 
HETATM   19  C   UNL     1      -5.432  -1.394 -33.757  1.00  0.00     0.029 A 
HETATM   20  C   UNL     1      -6.261  -2.277 -34.476  1.00  0.00     0.023 A 
HETATM   21  C   UNL     1      -4.198  -1.851 -33.307  1.00  0.00     0.063 A 
HETATM   22  C   UNL     1      -5.824  -3.587 -34.727  1.00  0.00    -0.061 A 
HETATM   23  C   UNL     1      -6.684  -4.539 -35.509  1.00  0.00     0.048 C 
HETATM   24  C   UNL     1      -4.578  -4.011 -34.245  1.00  0.00     0.009 A 
HETATM   25  C   UNL     1      -3.741  -3.152 -33.524  1.00  0.00     0.032 A 
HETATM   26  N   UNL     1      -3.630  -0.783 -32.671  1.00  0.00    -0.277 N 
HETATM   27  H   UNL     1      -2.725  -0.754 -32.213  1.00  0.00     0.189 HD
HETATM   28  N   UNL     1      -4.372   0.339 -32.690  1.00  0.00    -0.168 NA
ENDBRANCH   1  18
TORSDOF 2
ENDMDL
MODEL 6
REMARK VINA RESULT:      -8.4      4.347      7.694
REMARK  2 active torsions:
REMARK  status: ('A' for Active; 'I' for Inactive)
REMARK    1  A    between atoms: C_9  and  C_10 
REMARK       I    between atoms: C_10  and  N_11 
REMARK    2  A    between atoms: N_11  and  N_12 
ROOT
HETATM    1  C   UNL     1      -7.454   2.752 -31.970  1.00  0.00     0.291 C 
HETATM    2  N   UNL     1      -6.418   2.580 -32.860  1.00  0.00    -0.251 N 
HETATM    3  O   UNL     1      -7.447   3.558 -31.044  1.00  0.00    -0.264 OA
HETATM    4  H   UNL     1      -6.460   1.825 -33.538  1.00  0.00     0.191 HD
ENDROOT
BRANCH   2   5
HETATM    5  N   UNL     1      -5.296   3.379 -32.800  1.00  0.00    -0.167 N 
HETATM    6  C   UNL     1      -4.096   2.925 -32.323  1.00  0.00     0.345 C 
HETATM    7  O   UNL     1      -3.852   1.852 -31.795  1.00  0.00    -0.245 OA
HETATM    8  N   UNL     1      -3.141   3.880 -32.607  1.00  0.00    -0.323 N 
HETATM    9  C   UNL     1      -3.673   4.970 -33.407  1.00  0.00     0.117 C 
HETATM   10  H   UNL     1      -2.167   3.723 -32.382  1.00  0.00     0.165 HD
HETATM   11  C   UNL     1      -3.008   5.042 -34.786  1.00  0.00     0.041 C 
HETATM   12  C   UNL     1      -3.596   6.300 -32.653  1.00  0.00     0.041 C 
HETATM   13  C   UNL     1      -5.137   4.509 -33.567  1.00  0.00     0.275 C 
HETATM   14  C   UNL     1      -1.588   5.596 -34.717  1.00  0.00     0.003 C 
HETATM   15  C   UNL     1      -1.541   6.934 -33.985  1.00  0.00     0.000 C 
HETATM   16  C   UNL     1      -2.168   6.843 -32.596  1.00  0.00     0.003 C 
HETATM   17  O   UNL     1      -5.964   5.040 -34.298  1.00  0.00    -0.268 OA
ENDBRANCH   2   5
BRANCH   1  18
HETATM   18  C   UNL     1      -8.581   1.853 -32.257  1.00  0.00     0.158 A 
HETATM   19  C   UNL     1      -9.676   2.091 -33.140  1.00  0.00     0.029 A 
HETATM   20  C   UNL     1     -10.081   3.134 -33.994  1.00  0.00     0.023 A 
HETATM   21  C   UNL     1     -10.452   0.940 -33.072  1.00  0.00     0.063 A 
HETATM   22  C   UNL     1     -11.249   2.987 -34.760  1.00  0.00    -0.061 A 
HETATM   23  C   UNL     1     -11.690   4.079 -35.693  1.00  0.00     0.048 C 
HETATM   24  C   UNL     1     -12.009   1.815 -34.653  1.00  0.00     0.009 A 
HETATM   25  C   UNL     1     -11.628   0.768 -33.805  1.00  0.00     0.032 A 
HETATM   26  N   UNL     1      -9.806   0.122 -32.188  1.00  0.00    -0.277 N 
HETATM   27  H   UNL     1     -10.092  -0.805 -31.891  1.00  0.00     0.189 HD
HETATM   28  N   UNL     1      -8.661   0.626 -31.693  1.00  0.00    -0.168 NA
ENDBRANCH   1  18
TORSDOF 2
ENDMDL
MODEL 7
REMARK VINA RESULT:      -8.4      1.717      2.579
REMARK  2 active torsions:
REMARK  status: ('A' for Active; 'I' for Inactive)
REMARK    1  A    between atoms: C_9  and  C_10 
REMARK       I    between atoms: C_10  and  N_11 
REMARK    2  A    between atoms: N_11  and  N_12 
ROOT
HETATM    1  C   UNL     1      -7.321   0.905 -32.655  1.00  0.00     0.291 C 
HETATM    2  N   UNL     1      -7.933   1.147 -33.864  1.00  0.00    -0.251 N 
HETATM    3  O   UNL     1      -7.772   1.252 -31.567  1.00  0.00    -0.264 OA
HETATM    4  H   UNL     1      -7.449   0.915 -34.726  1.00  0.00     0.191 HD
ENDROOT
BRANCH   2   5
HETATM    5  N   UNL     1      -9.167   1.760 -33.920  1.00  0.00    -0.167 N 
HETATM    6  C   UNL     1     -10.314   1.139 -33.503  1.00  0.00     0.345 C 
HETATM    7  O   UNL     1     -10.459  -0.019 -33.148  1.00  0.00    -0.245 OA
HETATM    8  N   UNL     1     -11.319   2.086 -33.476  1.00  0.00    -0.323 N 
HETATM    9  C   UNL     1     -10.825   3.421 -33.767  1.00  0.00     0.117 C 
HETATM   10  H   UNL     1     -12.246   1.849 -33.147  1.00  0.00     0.165 HD
HETATM   11  C   UNL     1     -10.994   4.364 -32.570  1.00  0.00     0.041 C 
HETATM   12  C   UNL     1     -11.459   3.979 -35.044  1.00  0.00     0.041 C 
HETATM   13  C   UNL     1      -9.325   3.123 -33.977  1.00  0.00     0.275 C 
HETATM   14  C   UNL     1     -12.447   4.790 -32.368  1.00  0.00     0.003 C 
HETATM   15  C   UNL     1     -13.047   5.367 -33.646  1.00  0.00     0.000 C 
HETATM   16  C   UNL     1     -12.911   4.404 -34.823  1.00  0.00     0.003 C 
HETATM   17  O   UNL     1      -8.454   3.974 -34.109  1.00  0.00    -0.268 OA
ENDBRANCH   2   5
BRANCH   1  18
HETATM   18  C   UNL     1      -6.055   0.176 -32.815  1.00  0.00     0.158 A 
HETATM   19  C   UNL     1      -5.858  -1.095 -33.432  1.00  0.00     0.029 A 
HETATM   20  C   UNL     1      -6.675  -2.052 -34.065  1.00  0.00     0.023 A 
HETATM   21  C   UNL     1      -4.492  -1.332 -33.344  1.00  0.00     0.063 A 
HETATM   22  C   UNL     1      -6.093  -3.214 -34.597  1.00  0.00    -0.061 A 
HETATM   23  C   UNL     1      -6.943  -4.238 -35.294  1.00  0.00     0.048 C 
HETATM   24  C   UNL     1      -4.713  -3.420 -34.477  1.00  0.00     0.009 A 
HETATM   25  C   UNL     1      -3.884  -2.485 -33.846  1.00  0.00     0.032 A 
HETATM   26  N   UNL     1      -3.977  -0.240 -32.704  1.00  0.00    -0.277 N 
HETATM   27  H   UNL     1      -3.005  -0.073 -32.464  1.00  0.00     0.189 HD
HETATM   28  N   UNL     1      -4.884   0.703 -32.390  1.00  0.00    -0.168 NA
ENDBRANCH   1  18
TORSDOF 2
ENDMDL
MODEL 8
REMARK VINA RESULT:      -8.2      1.983      3.277
REMARK  2 active torsions:
REMARK  status: ('A' for Active; 'I' for Inactive)
REMARK    1  A    between atoms: C_9  and  C_10 
REMARK       I    between atoms: C_10  and  N_11 
REMARK    2  A    between atoms: N_11  and  N_12 
ROOT
HETATM    1  C   UNL     1      -7.615  -0.449 -34.494  1.00  0.00     0.291 C 
HETATM    2  N   UNL     1      -8.299  -0.194 -33.327  1.00  0.00    -0.251 N 
HETATM    3  O   UNL     1      -7.814   0.133 -35.557  1.00  0.00    -0.264 OA
HETATM    4  H   UNL     1      -8.144  -0.786 -32.516  1.00  0.00     0.191 HD
ENDROOT
BRANCH   2   5
HETATM    5  N   UNL     1      -9.239   0.813 -33.266  1.00  0.00    -0.167 N 
HETATM    6  C   UNL     1     -10.567   0.564 -33.049  1.00  0.00     0.345 C 
HETATM    7  O   UNL     1     -11.134  -0.515 -32.994  1.00  0.00    -0.245 OA
HETATM    8  N   UNL     1     -11.190   1.775 -32.818  1.00  0.00    -0.323 N 
HETATM    9  C   UNL     1     -10.245   2.877 -32.757  1.00  0.00     0.117 C 
HETATM   10  H   UNL     1     -12.174   1.816 -32.584  1.00  0.00     0.165 HD
HETATM   11  C   UNL     1     -10.221   3.530 -31.370  1.00  0.00     0.041 C 
HETATM   12  C   UNL     1     -10.503   3.891 -33.874  1.00  0.00     0.041 C 
HETATM   13  C   UNL     1      -8.920   2.121 -32.990  1.00  0.00     0.275 C 
HETATM   14  C   UNL     1     -11.457   4.388 -31.111  1.00  0.00     0.003 C 
HETATM   15  C   UNL     1     -11.677   5.407 -32.224  1.00  0.00     0.000 C 
HETATM   16  C   UNL     1     -11.742   4.743 -33.597  1.00  0.00     0.003 C 
HETATM   17  O   UNL     1      -7.803   2.613 -32.883  1.00  0.00    -0.268 OA
ENDBRANCH   2   5
BRANCH   1  18
HETATM   18  C   UNL     1      -6.607  -1.506 -34.322  1.00  0.00     0.158 A 
HETATM   19  C   UNL     1      -5.435  -1.462 -33.512  1.00  0.00     0.029 A 
HETATM   20  C   UNL     1      -4.833  -0.526 -32.650  1.00  0.00     0.023 A 
HETATM   21  C   UNL     1      -4.834  -2.704 -33.678  1.00  0.00     0.063 A 
HETATM   22  C   UNL     1      -3.649  -0.868 -31.976  1.00  0.00    -0.061 A 
HETATM   23  C   UNL     1      -3.000   0.108 -31.036  1.00  0.00     0.048 C 
HETATM   24  C   UNL     1      -3.069  -2.127 -32.181  1.00  0.00     0.009 A 
HETATM   25  C   UNL     1      -3.648  -3.070 -33.038  1.00  0.00     0.032 A 
HETATM   26  N   UNL     1      -5.644  -3.384 -34.544  1.00  0.00    -0.277 N 
HETATM   27  H   UNL     1      -5.510  -4.326 -34.896  1.00  0.00     0.189 HD
HETATM   28  N   UNL     1      -6.737  -2.704 -34.937  1.00  0.00    -0.168 NA
ENDBRANCH   1  18
TORSDOF 2
ENDMDL
MODEL 9
REMARK VINA RESULT:      -8.2      5.701      7.958
REMARK  2 active torsions:
REMARK  status: ('A' for Active; 'I' for Inactive)
REMARK    1  A    between atoms: C_9  and  C_10 
REMARK       I    between atoms: C_10  and  N_11 
REMARK    2  A    between atoms: N_11  and  N_12 
ROOT
HETATM    1  C   UNL     1      -2.233   4.204 -32.000  1.00  0.00     0.291 C 
HETATM    2  N   UNL     1      -3.102   3.378 -31.324  1.00  0.00    -0.251 N 
HETATM    3  O   UNL     1      -2.136   4.257 -33.224  1.00  0.00    -0.264 OA
HETATM    4  H   UNL     1      -3.053   3.321 -30.311  1.00  0.00     0.191 HD
ENDROOT
BRANCH   2   5
HETATM    5  N   UNL     1      -3.993   2.579 -32.008  1.00  0.00    -0.167 N 
HETATM    6  C   UNL     1      -3.837   1.222 -32.104  1.00  0.00     0.345 C 
HETATM    7  O   UNL     1      -2.894   0.543 -31.734  1.00  0.00    -0.245 OA
HETATM    8  N   UNL     1      -4.997   0.703 -32.645  1.00  0.00    -0.323 N 
HETATM    9  C   UNL     1      -6.025   1.714 -32.816  1.00  0.00     0.117 C 
HETATM   10  H   UNL     1      -5.114  -0.296 -32.758  1.00  0.00     0.165 HD
HETATM   11  C   UNL     1      -7.253   1.433 -31.942  1.00  0.00     0.041 C 
HETATM   12  C   UNL     1      -6.390   1.889 -34.293  1.00  0.00     0.041 C 
HETATM   13  C   UNL     1      -5.286   2.957 -32.278  1.00  0.00     0.275 C 
HETATM   14  C   UNL     1      -8.096   0.279 -32.479  1.00  0.00     0.003 C 
HETATM   15  C   UNL     1      -8.468   0.489 -33.943  1.00  0.00     0.000 C 
HETATM   16  C   UNL     1      -7.237   0.728 -34.814  1.00  0.00     0.003 C 
HETATM   17  O   UNL     1      -5.803   4.050 -32.082  1.00  0.00    -0.268 OA
ENDBRANCH   2   5
BRANCH   1  18
HETATM   18  C   UNL     1      -1.427   5.025 -31.085  1.00  0.00     0.158 A 
HETATM   19  C   UNL     1      -1.688   6.361 -30.662  1.00  0.00     0.029 A 
HETATM   20  C   UNL     1      -2.689   7.323 -30.901  1.00  0.00     0.023 A 
HETATM   21  C   UNL     1      -0.650   6.675 -29.793  1.00  0.00     0.063 A 
HETATM   22  C   UNL     1      -2.620   8.568 -30.255  1.00  0.00    -0.061 A 
HETATM   23  C   UNL     1      -3.686   9.602 -30.480  1.00  0.00     0.048 C 
HETATM   24  C   UNL     1      -1.549   8.848 -29.395  1.00  0.00     0.009 A 
HETATM   25  C   UNL     1      -0.542   7.909 -29.148  1.00  0.00     0.032 A 
HETATM   26  N   UNL     1       0.137   5.559 -29.754  1.00  0.00    -0.277 N 
HETATM   27  H   UNL     1       0.991   5.430 -29.222  1.00  0.00     0.189 HD
HETATM   28  N   UNL     1      -0.311   4.533 -30.501  1.00  0.00    -0.168 NA
ENDBRANCH   1  18
TORSDOF 2
ENDMDL
MODEL 10
REMARK VINA RESULT:      -8.2      5.957      7.855
REMARK  2 active torsions:
REMARK  status: ('A' for Active; 'I' for Inactive)
REMARK    1  A    between atoms: C_9  and  C_10 
REMARK       I    between atoms: C_10  and  N_11 
REMARK    2  A    between atoms: N_11  and  N_12 
ROOT
HETATM    1  C   UNL     1      -3.447   4.990 -31.505  1.00  0.00     0.291 C 
HETATM    2  N   UNL     1      -3.535   4.062 -32.518  1.00  0.00    -0.251 N 
HETATM    3  O   UNL     1      -4.413   5.475 -30.921  1.00  0.00    -0.264 OA
HETATM    4  H   UNL     1      -2.695   3.784 -33.017  1.00  0.00     0.191 HD
ENDROOT
BRANCH   2   5
HETATM    5  N   UNL     1      -4.757   3.556 -32.907  1.00  0.00    -0.167 N 
HETATM    6  C   UNL     1      -5.452   4.055 -33.976  1.00  0.00     0.345 C 
HETATM    7  O   UNL     1      -5.193   5.038 -34.651  1.00  0.00    -0.245 OA
HETATM    8  N   UNL     1      -6.502   3.196 -34.234  1.00  0.00    -0.323 N 
HETATM    9  C   UNL     1      -6.461   2.011 -33.395  1.00  0.00     0.117 C 
HETATM   10  H   UNL     1      -7.119   3.352 -35.021  1.00  0.00     0.165 HD
HETATM   11  C   UNL     1      -6.259   0.735 -34.222  1.00  0.00     0.041 C 
HETATM   12  C   UNL     1      -7.693   1.929 -32.490  1.00  0.00     0.041 C 
HETATM   13  C   UNL     1      -5.187   2.295 -32.572  1.00  0.00     0.275 C 
HETATM   14  C   UNL     1      -7.520   0.330 -34.981  1.00  0.00     0.003 C 
HETATM   15  C   UNL     1      -8.727   0.230 -34.054  1.00  0.00     0.000 C 
HETATM   16  C   UNL     1      -8.946   1.519 -33.266  1.00  0.00     0.003 C 
HETATM   17  O   UNL     1      -4.651   1.498 -31.812  1.00  0.00    -0.268 OA
ENDBRANCH   2   5
BRANCH   1  18
HETATM   18  C   UNL     1      -2.052   5.338 -31.197  1.00  0.00     0.158 A 
HETATM   19  C   UNL     1      -1.588   6.353 -30.310  1.00  0.00     0.029 A 
HETATM   20  C   UNL     1      -2.183   7.313 -29.467  1.00  0.00     0.023 A 
HETATM   21  C   UNL     1      -0.202   6.268 -30.355  1.00  0.00     0.063 A 
HETATM   22  C   UNL     1      -1.367   8.152 -28.691  1.00  0.00    -0.061 A 
HETATM   23  C   UNL     1      -1.980   9.168 -27.771  1.00  0.00     0.048 C 
HETATM   24  C   UNL     1       0.027   8.040 -28.775  1.00  0.00     0.009 A 
HETATM   25  C   UNL     1       0.639   7.098 -29.610  1.00  0.00     0.032 A 
HETATM   26  N   UNL     1       0.068   5.255 -31.232  1.00  0.00    -0.277 N 
HETATM   27  H   UNL     1       0.982   4.917 -31.514  1.00  0.00     0.189 HD
HETATM   28  N   UNL     1      -1.022   4.653 -31.743  1.00  0.00    -0.168 NA
ENDBRANCH   1  18
TORSDOF 2
ENDMDL
