MODEL 1
REMARK VINA RESULT:      -8.8      0.000      0.000
REMARK  7 active torsions:
REMARK  status: ('A' for Active; 'I' for Inactive)
REMARK    1  A    between atoms: C_3  and  N_4 
REMARK       I    between atoms: N_4  and  C_5 
REMARK    2  A    between atoms: C_5  and  C_6 
REMARK    3  A    between atoms: C_7  and  C_8 
REMARK    4  A    between atoms: C_19  and  C_20 
REMARK    5  A    between atoms: C_20  and  C_21 
REMARK    6  A    between atoms: C_21  and  C_22 
REMARK    7  A    between atoms: C_22  and  O_23 
ROOT
HETATM    1  C   UNL     1      -8.494   3.771 -33.051  1.00  0.00     0.062 C 
HETATM    2  C   UNL     1      -7.268   3.053 -32.474  1.00  0.00     0.202 C 
HETATM    3  N   UNL     1      -6.067   3.890 -32.589  1.00  0.00    -0.083 N 
HETATM    4  C   UNL     1      -5.992   5.010 -33.370  1.00  0.00     0.726 A 
HETATM    5  N   UNL     1      -7.101   5.460 -33.984  1.00  0.00    -0.192 N 
HETATM    6  N   UNL     1      -4.869   3.593 -32.041  1.00  0.00    -0.140 NA
HETATM    7  C   UNL     1      -4.097   4.532 -32.607  1.00  0.00     0.166 A 
HETATM    8  N   UNL     1      -4.758   5.442 -33.400  1.00  0.00    -0.046 NA
HETATM    9  C   UNL     1      -8.355   4.884 -33.819  1.00  0.00     0.037 C 
HETATM   10  C   UNL     1      -9.471   5.556 -34.584  1.00  0.00     0.070 C 
HETATM   11  H   UNL     1      -7.027   6.286 -34.570  1.00  0.00     0.184 HD
ENDROOT
BRANCH   1  12
HETATM   12  C   UNL     1      -9.806   3.134 -32.715  1.00  0.00     0.256 C 
HETATM   13  N   UNL     1     -10.447   2.566 -33.792  1.00  0.00    -0.323 N 
HETATM   14  H   UNL     1     -10.153   2.895 -34.703  1.00  0.00     0.169 HD
HETATM   15  O   UNL     1     -10.281   3.271 -31.596  1.00  0.00    -0.267 OA
BRANCH  13  16
HETATM   16  C   UNL     1     -11.562   1.696 -33.793  1.00  0.00     0.041 A 
HETATM   17  C   UNL     1     -11.577   0.357 -33.356  1.00  0.00    -0.035 A 
HETATM   18  C   UNL     1     -10.382  -0.402 -32.848  1.00  0.00     0.050 C 
HETATM   19  C   UNL     1     -12.787  -0.365 -33.426  1.00  0.00     0.009 A 
HETATM   20  C   UNL     1     -13.940   0.193 -33.970  1.00  0.00     0.001 A 
HETATM   21  C   UNL     1     -13.909   1.494 -34.453  1.00  0.00     0.002 A 
HETATM   22  C   UNL     1     -12.729   2.233 -34.368  1.00  0.00     0.030 A 
ENDBRANCH  13  16
ENDBRANCH   1  12
BRANCH   2  23
HETATM   23  C   UNL     1      -6.985   1.701 -33.134  1.00  0.00    -0.028 A 
HETATM   24  C   UNL     1      -7.064   1.530 -34.529  1.00  0.00     0.011 A 
HETATM   25  C   UNL     1      -6.792   0.290 -35.112  1.00  0.00     0.024 A 
HETATM   26  C   UNL     1      -6.444  -0.792 -34.307  1.00  0.00     0.034 A 
HETATM   27 CL   UNL     1      -6.114  -2.321 -35.025  1.00  0.00    -0.084 Cl
HETATM   28  C   UNL     1      -6.359  -0.644 -32.925  1.00  0.00     0.024 A 
HETATM   29  C   UNL     1      -6.626   0.596 -32.341  1.00  0.00     0.011 A 
ENDBRANCH   2  23
BRANCH   7  30
HETATM   30  C   UNL     1      -2.618   4.535 -32.487  1.00  0.00     0.085 C 
BRANCH  30  31
HETATM   31  C   UNL     1      -1.920   4.816 -33.819  1.00  0.00     0.034 C 
BRANCH  31  32
HETATM   32  C   UNL     1      -1.348   6.227 -33.910  1.00  0.00     0.164 C 
BRANCH  32  33
HETATM   33  O   UNL     1      -2.289   7.091 -34.539  1.00  0.00    -0.401 OA
HETATM   34  H   UNL     1      -2.827   6.552 -35.143  1.00  0.00     0.209 HD
ENDBRANCH  32  33
ENDBRANCH  31  32
ENDBRANCH  30  31
ENDBRANCH   7  30
TORSDOF 7
ENDMDL
MODEL 2
REMARK VINA RESULT:      -8.7      3.510      5.833
REMARK  7 active torsions:
REMARK  status: ('A' for Active; 'I' for Inactive)
REMARK    1  A    between atoms: C_3  and  N_4 
REMARK       I    between atoms: N_4  and  C_5 
REMARK    2  A    between atoms: C_5  and  C_6 
REMARK    3  A    between atoms: C_7  and  C_8 
REMARK    4  A    between atoms: C_19  and  C_20 
REMARK    5  A    between atoms: C_20  and  C_21 
REMARK    6  A    between atoms: C_21  and  C_22 
REMARK    7  A    between atoms: C_22  and  O_23 
ROOT
HETATM    1  C   UNL     1      -7.334   1.925 -32.964  1.00  0.00     0.062 C 
HETATM    2  C   UNL     1      -6.312   2.494 -31.972  1.00  0.00     0.202 C 
HETATM    3  N   UNL     1      -6.971   3.322 -30.955  1.00  0.00    -0.083 N 
HETATM    4  C   UNL     1      -8.260   3.769 -31.057  1.00  0.00     0.726 A 
HETATM    5  N   UNL     1      -9.026   3.344 -32.077  1.00  0.00    -0.192 N 
HETATM    6  N   UNL     1      -6.357   3.837 -29.869  1.00  0.00    -0.140 NA
HETATM    7  C   UNL     1      -7.313   4.656 -29.407  1.00  0.00     0.166 A 
HETATM    8  N   UNL     1      -8.507   4.615 -30.090  1.00  0.00    -0.046 NA
HETATM    9  C   UNL     1      -8.603   2.410 -33.015  1.00  0.00     0.037 C 
HETATM   10  C   UNL     1      -9.627   2.056 -34.067  1.00  0.00     0.070 C 
HETATM   11  H   UNL     1      -9.977   3.695 -32.145  1.00  0.00     0.184 HD
ENDROOT
BRANCH   1  12
HETATM   12  C   UNL     1      -6.807   0.840 -33.850  1.00  0.00     0.256 C 
HETATM   13  N   UNL     1      -6.308  -0.247 -33.171  1.00  0.00    -0.323 N 
HETATM   14  H   UNL     1      -6.060  -0.086 -32.203  1.00  0.00     0.169 HD
HETATM   15  O   UNL     1      -6.716   1.028 -35.056  1.00  0.00    -0.267 OA
BRANCH  13  16
HETATM   16  C   UNL     1      -5.958  -1.518 -33.683  1.00  0.00     0.041 A 
HETATM   17  C   UNL     1      -4.665  -2.077 -33.718  1.00  0.00    -0.035 A 
HETATM   18  C   UNL     1      -3.411  -1.390 -33.251  1.00  0.00     0.050 C 
HETATM   19  C   UNL     1      -4.499  -3.366 -34.266  1.00  0.00     0.009 A 
HETATM   20  C   UNL     1      -5.566  -4.066 -34.822  1.00  0.00     0.001 A 
HETATM   21  C   UNL     1      -6.828  -3.491 -34.838  1.00  0.00     0.002 A 
HETATM   22  C   UNL     1      -7.018  -2.227 -34.278  1.00  0.00     0.030 A 
ENDBRANCH  13  16
ENDBRANCH   1  12
BRANCH   2  23
HETATM   23  C   UNL     1      -5.211   3.325 -32.639  1.00  0.00    -0.028 A 
HETATM   24  C   UNL     1      -5.514   4.353 -33.552  1.00  0.00     0.011 A 
HETATM   25  C   UNL     1      -4.495   5.105 -34.141  1.00  0.00     0.024 A 
HETATM   26  C   UNL     1      -3.165   4.835 -33.828  1.00  0.00     0.034 A 
HETATM   27 CL   UNL     1      -1.910   5.759 -34.558  1.00  0.00    -0.084 Cl
HETATM   28  C   UNL     1      -2.844   3.824 -32.926  1.00  0.00     0.024 A 
HETATM   29  C   UNL     1      -3.862   3.073 -32.333  1.00  0.00     0.011 A 
ENDBRANCH   2  23
BRANCH   7  30
HETATM   30  C   UNL     1      -7.077   5.628 -28.311  1.00  0.00     0.085 C 
BRANCH  30  31
HETATM   31  C   UNL     1      -5.700   6.290 -28.395  1.00  0.00     0.034 C 
BRANCH  31  32
HETATM   32  C   UNL     1      -4.973   6.332 -27.055  1.00  0.00     0.164 C 
BRANCH  32  33
HETATM   33  O   UNL     1      -4.783   5.009 -26.565  1.00  0.00    -0.401 OA
HETATM   34  H   UNL     1      -4.296   5.072 -25.726  1.00  0.00     0.209 HD
ENDBRANCH  32  33
ENDBRANCH  31  32
ENDBRANCH  30  31
ENDBRANCH   7  30
TORSDOF 7
ENDMDL
MODEL 3
REMARK VINA RESULT:      -8.3     16.655     19.389
REMARK  7 active torsions:
REMARK  status: ('A' for Active; 'I' for Inactive)
REMARK    1  A    between atoms: C_3  and  N_4 
REMARK       I    between atoms: N_4  and  C_5 
REMARK    2  A    between atoms: C_5  and  C_6 
REMARK    3  A    between atoms: C_7  and  C_8 
REMARK    4  A    between atoms: C_19  and  C_20 
REMARK    5  A    between atoms: C_20  and  C_21 
REMARK    6  A    between atoms: C_21  and  C_22 
REMARK    7  A    between atoms: C_22  and  O_23 
ROOT
HETATM    1  C   UNL     1      -4.347 -13.002 -38.085  1.00  0.00     0.062 C 
HETATM    2  C   UNL     1      -5.023 -12.781 -39.445  1.00  0.00     0.202 C 
HETATM    3  N   UNL     1      -6.463 -12.542 -39.283  1.00  0.00    -0.083 N 
HETATM    4  C   UNL     1      -7.149 -12.786 -38.125  1.00  0.00     0.726 A 
HETATM    5  N   UNL     1      -6.471 -13.152 -37.022  1.00  0.00    -0.192 N 
HETATM    6  N   UNL     1      -7.295 -12.173 -40.279  1.00  0.00    -0.140 NA
HETATM    7  C   UNL     1      -8.483 -12.299 -39.670  1.00  0.00     0.166 A 
HETATM    8  N   UNL     1      -8.431 -12.639 -38.337  1.00  0.00    -0.046 NA
HETATM    9  C   UNL     1      -5.085 -13.237 -36.968  1.00  0.00     0.037 C 
HETATM   10  C   UNL     1      -4.524 -13.648 -35.627  1.00  0.00     0.070 C 
HETATM   11  H   UNL     1      -6.996 -13.341 -36.174  1.00  0.00     0.184 HD
ENDROOT
BRANCH   1  12
HETATM   12  C   UNL     1      -2.852 -12.957 -38.118  1.00  0.00     0.256 C 
HETATM   13  N   UNL     1      -2.250 -14.190 -38.021  1.00  0.00    -0.323 N 
HETATM   14  H   UNL     1      -2.822 -14.931 -37.634  1.00  0.00     0.169 HD
HETATM   15  O   UNL     1      -2.274 -11.879 -38.081  1.00  0.00    -0.267 OA
BRANCH  13  16
HETATM   16  C   UNL     1      -0.896 -14.528 -38.250  1.00  0.00     0.041 A 
HETATM   17  C   UNL     1      -0.195 -14.387 -39.464  1.00  0.00    -0.035 A 
HETATM   18  C   UNL     1      -0.786 -13.888 -40.754  1.00  0.00     0.050 C 
HETATM   19  C   UNL     1       1.161 -14.776 -39.512  1.00  0.00     0.009 A 
HETATM   20  C   UNL     1       1.797 -15.346 -38.412  1.00  0.00     0.001 A 
HETATM   21  C   UNL     1       1.088 -15.536 -37.235  1.00  0.00     0.002 A 
HETATM   22  C   UNL     1      -0.246 -15.136 -37.159  1.00  0.00     0.030 A 
ENDBRANCH  13  16
ENDBRANCH   1  12
BRANCH   2  23
HETATM   23  C   UNL     1      -4.829 -13.946 -40.420  1.00  0.00    -0.028 A 
HETATM   24  C   UNL     1      -5.084 -15.277 -40.039  1.00  0.00     0.011 A 
HETATM   25  C   UNL     1      -4.909 -16.324 -40.948  1.00  0.00     0.024 A 
HETATM   26  C   UNL     1      -4.474 -16.052 -42.242  1.00  0.00     0.034 A 
HETATM   27 CL   UNL     1      -4.255 -17.343 -43.359  1.00  0.00    -0.084 Cl
HETATM   28  C   UNL     1      -4.217 -14.742 -42.640  1.00  0.00     0.024 A 
HETATM   29  C   UNL     1      -4.395 -13.694 -41.734  1.00  0.00     0.011 A 
ENDBRANCH   2  23
BRANCH   7  30
HETATM   30  C   UNL     1      -9.773 -12.196 -40.395  1.00  0.00     0.085 C 
BRANCH  30  31
HETATM   31  C   UNL     1     -10.791 -13.244 -39.941  1.00  0.00     0.034 C 
BRANCH  31  32
HETATM   32  C   UNL     1     -10.958 -14.388 -40.936  1.00  0.00     0.164 C 
BRANCH  32  33
HETATM   33  O   UNL     1     -12.298 -14.421 -41.416  1.00  0.00    -0.401 OA
HETATM   34  H   UNL     1     -12.659 -15.303 -41.222  1.00  0.00     0.209 HD
ENDBRANCH  32  33
ENDBRANCH  31  32
ENDBRANCH  30  31
ENDBRANCH   7  30
TORSDOF 7
ENDMDL
MODEL 4
REMARK VINA RESULT:      -8.2      2.010      7.658
REMARK  7 active torsions:
REMARK  status: ('A' for Active; 'I' for Inactive)
REMARK    1  A    between atoms: C_3  and  N_4 
REMARK       I    between atoms: N_4  and  C_5 
REMARK    2  A    between atoms: C_5  and  C_6 
REMARK    3  A    between atoms: C_7  and  C_8 
REMARK    4  A    between atoms: C_19  and  C_20 
REMARK    5  A    between atoms: C_20  and  C_21 
REMARK    6  A    between atoms: C_21  and  C_22 
REMARK    7  A    between atoms: C_22  and  O_23 
ROOT
HETATM    1  C   UNL     1      -6.975   3.219 -32.304  1.00  0.00     0.062 C 
HETATM    2  C   UNL     1      -7.735   2.708 -33.535  1.00  0.00     0.202 C 
HETATM    3  N   UNL     1      -9.180   2.917 -33.383  1.00  0.00    -0.083 N 
HETATM    4  C   UNL     1      -9.782   3.235 -32.197  1.00  0.00     0.726 A 
HETATM    5  N   UNL     1      -9.020   3.494 -31.120  1.00  0.00    -0.192 N 
HETATM    6  N   UNL     1     -10.092   2.705 -34.355  1.00  0.00    -0.140 NA
HETATM    7  C   UNL     1     -11.232   2.829 -33.659  1.00  0.00     0.166 A 
HETATM    8  N   UNL     1     -11.082   3.190 -32.339  1.00  0.00    -0.046 NA
HETATM    9  C   UNL     1      -7.631   3.522 -31.153  1.00  0.00     0.037 C 
HETATM   10  C   UNL     1      -6.968   3.852 -29.836  1.00  0.00     0.070 C 
HETATM   11  H   UNL     1      -9.483   3.717 -30.243  1.00  0.00     0.184 HD
ENDROOT
BRANCH   1  12
HETATM   12  C   UNL     1      -5.493   3.324 -32.486  1.00  0.00     0.256 C 
HETATM   13  N   UNL     1      -5.085   4.470 -33.128  1.00  0.00    -0.323 N 
HETATM   14  H   UNL     1      -5.794   4.946 -33.672  1.00  0.00     0.169 HD
HETATM   15  O   UNL     1      -4.775   2.373 -32.204  1.00  0.00    -0.267 OA
BRANCH  13  16
HETATM   16  C   UNL     1      -3.776   4.990 -33.251  1.00  0.00     0.041 A 
HETATM   17  C   UNL     1      -3.019   5.597 -32.229  1.00  0.00    -0.035 A 
HETATM   18  C   UNL     1      -3.497   5.838 -30.823  1.00  0.00     0.050 C 
HETATM   19  C   UNL     1      -1.721   6.059 -32.531  1.00  0.00     0.009 A 
HETATM   20  C   UNL     1      -1.201   5.985 -33.821  1.00  0.00     0.001 A 
HETATM   21  C   UNL     1      -1.970   5.439 -34.838  1.00  0.00     0.002 A 
HETATM   22  C   UNL     1      -3.246   4.953 -34.555  1.00  0.00     0.030 A 
ENDBRANCH  13  16
ENDBRANCH   1  12
BRANCH   2  23
HETATM   23  C   UNL     1      -7.485   1.227 -33.835  1.00  0.00    -0.028 A 
HETATM   24  C   UNL     1      -7.086   0.791 -35.112  1.00  0.00     0.011 A 
HETATM   25  C   UNL     1      -6.854  -0.564 -35.362  1.00  0.00     0.024 A 
HETATM   26  C   UNL     1      -7.022  -1.496 -34.341  1.00  0.00     0.034 A 
HETATM   27 CL   UNL     1      -6.740  -3.164 -34.651  1.00  0.00    -0.084 Cl
HETATM   28  C   UNL     1      -7.415  -1.084 -33.069  1.00  0.00     0.024 A 
HETATM   29  C   UNL     1      -7.644   0.270 -32.816  1.00  0.00     0.011 A 
ENDBRANCH   2  23
BRANCH   7  30
HETATM   30  C   UNL     1     -12.561   2.494 -34.227  1.00  0.00     0.085 C 
BRANCH  30  31
HETATM   31  C   UNL     1     -12.728   0.996 -34.491  1.00  0.00     0.034 C 
BRANCH  31  32
HETATM   32  C   UNL     1     -13.794   0.348 -33.614  1.00  0.00     0.164 C 
BRANCH  32  33
HETATM   33  O   UNL     1     -13.522  -1.042 -33.467  1.00  0.00    -0.401 OA
HETATM   34  H   UNL     1     -13.181  -1.182 -32.568  1.00  0.00     0.209 HD
ENDBRANCH  32  33
ENDBRANCH  31  32
ENDBRANCH  30  31
ENDBRANCH   7  30
TORSDOF 7
ENDMDL
MODEL 5
REMARK VINA RESULT:      -7.9      3.592      6.164
REMARK  7 active torsions:
REMARK  status: ('A' for Active; 'I' for Inactive)
REMARK    1  A    between atoms: C_3  and  N_4 
REMARK       I    between atoms: N_4  and  C_5 
REMARK    2  A    between atoms: C_5  and  C_6 
REMARK    3  A    between atoms: C_7  and  C_8 
REMARK    4  A    between atoms: C_19  and  C_20 
REMARK    5  A    between atoms: C_20  and  C_21 
REMARK    6  A    between atoms: C_21  and  C_22 
REMARK    7  A    between atoms: C_22  and  O_23 
ROOT
HETATM    1  C   UNL     1      -7.596   1.547 -31.209  1.00  0.00     0.062 C 
HETATM    2  C   UNL     1      -6.672   2.517 -30.463  1.00  0.00     0.202 C 
HETATM    3  N   UNL     1      -7.421   3.677 -29.963  1.00  0.00    -0.083 N 
HETATM    4  C   UNL     1      -8.688   3.995 -30.368  1.00  0.00     0.726 A 
HETATM    5  N   UNL     1      -9.353   3.151 -31.177  1.00  0.00    -0.192 N 
HETATM    6  N   UNL     1      -6.913   4.625 -29.148  1.00  0.00    -0.140 NA
HETATM    7  C   UNL     1      -7.902   5.531 -29.173  1.00  0.00     0.166 A 
HETATM    8  N   UNL     1      -9.022   5.163 -29.883  1.00  0.00    -0.046 NA
HETATM    9  C   UNL     1      -8.848   1.921 -31.582  1.00  0.00     0.037 C 
HETATM   10  C   UNL     1      -9.765   1.119 -32.474  1.00  0.00     0.070 C 
HETATM   11  H   UNL     1     -10.289   3.408 -31.478  1.00  0.00     0.184 HD
ENDROOT
BRANCH   1  12
HETATM   12  C   UNL     1      -6.994   0.206 -31.493  1.00  0.00     0.256 C 
HETATM   13  N   UNL     1      -6.951  -0.118 -32.829  1.00  0.00    -0.323 N 
HETATM   14  H   UNL     1      -7.582   0.397 -33.429  1.00  0.00     0.169 HD
HETATM   15  O   UNL     1      -6.725  -0.549 -30.568  1.00  0.00    -0.267 OA
BRANCH  13  16
HETATM   16  C   UNL     1      -6.250  -1.177 -33.454  1.00  0.00     0.041 A 
HETATM   17  C   UNL     1      -4.851  -1.324 -33.526  1.00  0.00    -0.035 A 
HETATM   18  C   UNL     1      -3.847  -0.345 -32.981  1.00  0.00     0.050 C 
HETATM   19  C   UNL     1      -4.322  -2.451 -34.191  1.00  0.00     0.009 A 
HETATM   20  C   UNL     1      -5.145  -3.378 -34.824  1.00  0.00     0.001 A 
HETATM   21  C   UNL     1      -6.521  -3.200 -34.801  1.00  0.00     0.002 A 
HETATM   22  C   UNL     1      -7.065  -2.107 -34.127  1.00  0.00     0.030 A 
ENDBRANCH  13  16
ENDBRANCH   1  12
BRANCH   2  23
HETATM   23  C   UNL     1      -5.502   3.022 -31.313  1.00  0.00    -0.028 A 
HETATM   24  C   UNL     1      -4.165   2.783 -30.943  1.00  0.00     0.011 A 
HETATM   25  C   UNL     1      -3.113   3.244 -31.738  1.00  0.00     0.024 A 
HETATM   26  C   UNL     1      -3.385   3.950 -32.907  1.00  0.00     0.034 A 
HETATM   27 CL   UNL     1      -2.089   4.520 -33.884  1.00  0.00    -0.084 Cl
HETATM   28  C   UNL     1      -4.701   4.195 -33.292  1.00  0.00     0.024 A 
HETATM   29  C   UNL     1      -5.755   3.732 -32.500  1.00  0.00     0.011 A 
ENDBRANCH   2  23
BRANCH   7  30
HETATM   30  C   UNL     1      -7.767   6.884 -28.580  1.00  0.00     0.085 C 
BRANCH  30  31
HETATM   31  C   UNL     1      -9.019   7.320 -27.817  1.00  0.00     0.034 C 
BRANCH  31  32
HETATM   32  C   UNL     1      -9.798   8.425 -28.524  1.00  0.00     0.164 C 
BRANCH  32  33
HETATM   33  O   UNL     1      -9.633   8.307 -29.933  1.00  0.00    -0.401 OA
HETATM   34  H   UNL     1      -9.443   7.375 -30.131  1.00  0.00     0.209 HD
ENDBRANCH  32  33
ENDBRANCH  31  32
ENDBRANCH  30  31
ENDBRANCH   7  30
TORSDOF 7
ENDMDL
MODEL 6
REMARK VINA RESULT:      -7.9      3.910      6.008
REMARK  7 active torsions:
REMARK  status: ('A' for Active; 'I' for Inactive)
REMARK    1  A    between atoms: C_3  and  N_4 
REMARK       I    between atoms: N_4  and  C_5 
REMARK    2  A    between atoms: C_5  and  C_6 
REMARK    3  A    between atoms: C_7  and  C_8 
REMARK    4  A    between atoms: C_19  and  C_20 
REMARK    5  A    between atoms: C_20  and  C_21 
REMARK    6  A    between atoms: C_21  and  C_22 
REMARK    7  A    between atoms: C_22  and  O_23 
ROOT
HETATM    1  C   UNL     1      -6.738   2.814 -30.611  1.00  0.00     0.062 C 
HETATM    2  C   UNL     1      -5.544   3.712 -30.265  1.00  0.00     0.202 C 
HETATM    3  N   UNL     1      -5.993   4.982 -29.683  1.00  0.00    -0.083 N 
HETATM    4  C   UNL     1      -7.287   5.424 -29.728  1.00  0.00     0.726 A 
HETATM    5  N   UNL     1      -8.242   4.616 -30.220  1.00  0.00    -0.192 N 
HETATM    6  N   UNL     1      -5.175   5.913 -29.147  1.00  0.00    -0.140 NA
HETATM    7  C   UNL     1      -6.033   6.927 -28.969  1.00  0.00     0.166 A 
HETATM    8  N   UNL     1      -7.346   6.652 -29.281  1.00  0.00    -0.046 NA
HETATM    9  C   UNL     1      -8.003   3.311 -30.635  1.00  0.00     0.037 C 
HETATM   10  C   UNL     1      -9.219   2.569 -31.138  1.00  0.00     0.070 C 
HETATM   11  H   UNL     1      -9.196   4.963 -30.258  1.00  0.00     0.184 HD
ENDROOT
BRANCH   1  12
HETATM   12  C   UNL     1      -6.381   1.395 -30.928  1.00  0.00     0.256 C 
HETATM   13  N   UNL     1      -6.477   1.077 -32.263  1.00  0.00    -0.323 N 
HETATM   14  H   UNL     1      -7.055   1.691 -32.822  1.00  0.00     0.169 HD
HETATM   15  O   UNL     1      -6.177   0.600 -30.020  1.00  0.00    -0.267 OA
BRANCH  13  16
HETATM   16  C   UNL     1      -6.000  -0.077 -32.928  1.00  0.00     0.041 A 
HETATM   17  C   UNL     1      -4.652  -0.464 -33.065  1.00  0.00    -0.035 A 
HETATM   18  C   UNL     1      -3.471   0.317 -32.559  1.00  0.00     0.050 C 
HETATM   19  C   UNL     1      -4.357  -1.654 -33.762  1.00  0.00     0.009 A 
HETATM   20  C   UNL     1      -5.355  -2.415 -34.364  1.00  0.00     0.001 A 
HETATM   21  C   UNL     1      -6.677  -2.002 -34.277  1.00  0.00     0.002 A 
HETATM   22  C   UNL     1      -6.992  -0.842 -33.570  1.00  0.00     0.030 A 
ENDBRANCH  13  16
ENDBRANCH   1  12
BRANCH   2  23
HETATM   23  C   UNL     1      -4.642   4.017 -31.465  1.00  0.00    -0.028 A 
HETATM   24  C   UNL     1      -3.258   3.766 -31.431  1.00  0.00     0.011 A 
HETATM   25  C   UNL     1      -2.455   4.042 -32.540  1.00  0.00     0.024 A 
HETATM   26  C   UNL     1      -3.027   4.576 -33.693  1.00  0.00     0.034 A 
HETATM   27 CL   UNL     1      -2.037   4.921 -35.057  1.00  0.00    -0.084 Cl
HETATM   28  C   UNL     1      -4.395   4.830 -33.748  1.00  0.00     0.024 A 
HETATM   29  C   UNL     1      -5.200   4.551 -32.641  1.00  0.00     0.011 A 
ENDBRANCH   2  23
BRANCH   7  30
HETATM   30  C   UNL     1      -5.597   8.289 -28.575  1.00  0.00     0.085 C 
BRANCH  30  31
HETATM   31  C   UNL     1      -5.684   8.522 -27.065  1.00  0.00     0.034 C 
BRANCH  31  32
HETATM   32  C   UNL     1      -4.500   7.940 -26.300  1.00  0.00     0.164 C 
BRANCH  32  33
HETATM   33  O   UNL     1      -4.759   6.579 -25.969  1.00  0.00    -0.401 OA
HETATM   34  H   UNL     1      -5.590   6.551 -25.466  1.00  0.00     0.209 HD
ENDBRANCH  32  33
ENDBRANCH  31  32
ENDBRANCH  30  31
ENDBRANCH   7  30
TORSDOF 7
ENDMDL
MODEL 7
REMARK VINA RESULT:      -7.8      2.269      7.547
REMARK  7 active torsions:
REMARK  status: ('A' for Active; 'I' for Inactive)
REMARK    1  A    between atoms: C_3  and  N_4 
REMARK       I    between atoms: N_4  and  C_5 
REMARK    2  A    between atoms: C_5  and  C_6 
REMARK    3  A    between atoms: C_7  and  C_8 
REMARK    4  A    between atoms: C_19  and  C_20 
REMARK    5  A    between atoms: C_20  and  C_21 
REMARK    6  A    between atoms: C_21  and  C_22 
REMARK    7  A    between atoms: C_22  and  O_23 
ROOT
HETATM    1  C   UNL     1      -6.613   2.738 -32.058  1.00  0.00     0.062 C 
HETATM    2  C   UNL     1      -7.277   2.252 -33.352  1.00  0.00     0.202 C 
HETATM    3  N   UNL     1      -8.733   2.426 -33.294  1.00  0.00    -0.083 N 
HETATM    4  C   UNL     1      -9.421   2.693 -32.142  1.00  0.00     0.726 A 
HETATM    5  N   UNL     1      -8.739   2.932 -31.007  1.00  0.00    -0.192 N 
HETATM    6  N   UNL     1      -9.572   2.227 -34.332  1.00  0.00    -0.140 NA
HETATM    7  C   UNL     1     -10.759   2.305 -33.712  1.00  0.00     0.166 A 
HETATM    8  N   UNL     1     -10.706   2.625 -32.374  1.00  0.00    -0.046 NA
HETATM    9  C   UNL     1      -7.352   2.990 -30.945  1.00  0.00     0.037 C 
HETATM   10  C   UNL     1      -6.788   3.291 -29.577  1.00  0.00     0.070 C 
HETATM   11  H   UNL     1      -9.265   3.117 -30.158  1.00  0.00     0.184 HD
ENDROOT
BRANCH   1  12
HETATM   12  C   UNL     1      -5.125   2.879 -32.134  1.00  0.00     0.256 C 
HETATM   13  N   UNL     1      -4.701   4.069 -32.679  1.00  0.00    -0.323 N 
HETATM   14  H   UNL     1      -5.382   4.565 -33.239  1.00  0.00     0.169 HD
HETATM   15  O   UNL     1      -4.407   1.926 -31.863  1.00  0.00    -0.267 OA
BRANCH  13  16
HETATM   16  C   UNL     1      -3.397   4.619 -32.684  1.00  0.00     0.041 A 
HETATM   17  C   UNL     1      -2.747   5.214 -33.783  1.00  0.00    -0.035 A 
HETATM   18  C   UNL     1      -3.317   5.329 -35.170  1.00  0.00     0.050 C 
HETATM   19  C   UNL     1      -1.440   5.714 -33.605  1.00  0.00     0.009 A 
HETATM   20  C   UNL     1      -0.764   5.579 -32.396  1.00  0.00     0.001 A 
HETATM   21  C   UNL     1      -1.385   4.942 -31.332  1.00  0.00     0.002 A 
HETATM   22  C   UNL     1      -2.687   4.462 -31.479  1.00  0.00     0.030 A 
ENDBRANCH  13  16
ENDBRANCH   1  12
BRANCH   2  23
HETATM   23  C   UNL     1      -6.973   0.787 -33.681  1.00  0.00    -0.028 A 
HETATM   24  C   UNL     1      -6.733  -0.162 -32.669  1.00  0.00     0.011 A 
HETATM   25  C   UNL     1      -6.468  -1.495 -32.991  1.00  0.00     0.024 A 
HETATM   26  C   UNL     1      -6.436  -1.892 -34.326  1.00  0.00     0.034 A 
HETATM   27 CL   UNL     1      -6.105  -3.534 -34.721  1.00  0.00    -0.084 Cl
HETATM   28  C   UNL     1      -6.673  -0.970 -35.342  1.00  0.00     0.024 A 
HETATM   29  C   UNL     1      -6.942   0.363 -35.022  1.00  0.00     0.011 A 
ENDBRANCH   2  23
BRANCH   7  30
HETATM   30  C   UNL     1     -12.038   1.961 -34.379  1.00  0.00     0.085 C 
BRANCH  30  31
HETATM   31  C   UNL     1     -12.821   3.197 -34.826  1.00  0.00     0.034 C 
BRANCH  31  32
HETATM   32  C   UNL     1     -12.402   3.706 -36.202  1.00  0.00     0.164 C 
BRANCH  32  33
HETATM   33  O   UNL     1     -12.264   2.612 -37.102  1.00  0.00    -0.401 OA
HETATM   34  H   UNL     1     -12.219   2.975 -38.003  1.00  0.00     0.209 HD
ENDBRANCH  32  33
ENDBRANCH  31  32
ENDBRANCH  30  31
ENDBRANCH   7  30
TORSDOF 7
ENDMDL
MODEL 8
REMARK VINA RESULT:      -7.7      3.143      4.669
REMARK  7 active torsions:
REMARK  status: ('A' for Active; 'I' for Inactive)
REMARK    1  A    between atoms: C_3  and  N_4 
REMARK       I    between atoms: N_4  and  C_5 
REMARK    2  A    between atoms: C_5  and  C_6 
REMARK    3  A    between atoms: C_7  and  C_8 
REMARK    4  A    between atoms: C_19  and  C_20 
REMARK    5  A    between atoms: C_20  and  C_21 
REMARK    6  A    between atoms: C_21  and  C_22 
REMARK    7  A    between atoms: C_22  and  O_23 
ROOT
HETATM    1  C   UNL     1      -5.788   2.167 -33.067  1.00  0.00     0.062 C 
HETATM    2  C   UNL     1      -5.386   3.642 -33.192  1.00  0.00     0.202 C 
HETATM    3  N   UNL     1      -4.025   3.860 -32.687  1.00  0.00    -0.083 N 
HETATM    4  C   UNL     1      -3.337   2.947 -31.936  1.00  0.00     0.726 A 
HETATM    5  N   UNL     1      -3.866   1.727 -31.736  1.00  0.00    -0.192 N 
HETATM    6  N   UNL     1      -3.343   5.020 -32.796  1.00  0.00    -0.140 NA
HETATM    7  C   UNL     1      -2.286   4.762 -32.013  1.00  0.00     0.166 A 
HETATM    8  N   UNL     1      -2.230   3.486 -31.496  1.00  0.00    -0.046 NA
HETATM    9  C   UNL     1      -5.061   1.306 -32.308  1.00  0.00     0.037 C 
HETATM   10  C   UNL     1      -5.466  -0.109 -31.969  1.00  0.00     0.070 C 
HETATM   11  H   UNL     1      -3.348   1.064 -31.166  1.00  0.00     0.184 HD
ENDROOT
BRANCH   1  12
HETATM   12  C   UNL     1      -7.027   1.793 -33.819  1.00  0.00     0.256 C 
HETATM   13  N   UNL     1      -8.194   2.017 -33.126  1.00  0.00    -0.323 N 
HETATM   14  H   UNL     1      -8.102   2.100 -32.122  1.00  0.00     0.169 HD
HETATM   15  O   UNL     1      -6.937   1.204 -34.888  1.00  0.00    -0.267 OA
BRANCH  13  16
HETATM   16  C   UNL     1      -9.523   1.999 -33.613  1.00  0.00     0.041 A 
HETATM   17  C   UNL     1     -10.457   0.958 -33.451  1.00  0.00    -0.035 A 
HETATM   18  C   UNL     1     -10.185  -0.351 -32.763  1.00  0.00     0.050 C 
HETATM   19  C   UNL     1     -11.746   1.112 -34.004  1.00  0.00     0.009 A 
HETATM   20  C   UNL     1     -12.090   2.236 -34.751  1.00  0.00     0.001 A 
HETATM   21  C   UNL     1     -11.150   3.235 -34.957  1.00  0.00     0.002 A 
HETATM   22  C   UNL     1      -9.878   3.113 -34.397  1.00  0.00     0.030 A 
ENDBRANCH  13  16
ENDBRANCH   1  12
BRANCH   2  23
HETATM   23  C   UNL     1      -6.336   4.597 -32.462  1.00  0.00    -0.028 A 
HETATM   24  C   UNL     1      -6.520   4.532 -31.068  1.00  0.00     0.011 A 
HETATM   25  C   UNL     1      -7.384   5.420 -30.421  1.00  0.00     0.024 A 
HETATM   26  C   UNL     1      -8.074   6.377 -31.161  1.00  0.00     0.034 A 
HETATM   27 CL   UNL     1      -9.141   7.467 -30.364  1.00  0.00    -0.084 Cl
HETATM   28  C   UNL     1      -7.905   6.460 -32.541  1.00  0.00     0.024 A 
HETATM   29  C   UNL     1      -7.038   5.576 -33.189  1.00  0.00     0.011 A 
ENDBRANCH   2  23
BRANCH   7  30
HETATM   30  C   UNL     1      -1.298   5.800 -31.627  1.00  0.00     0.085 C 
BRANCH  30  31
HETATM   31  C   UNL     1       0.077   5.214 -31.301  1.00  0.00     0.034 C 
BRANCH  31  32
HETATM   32  C   UNL     1       0.385   5.203 -29.807  1.00  0.00     0.164 C 
BRANCH  32  33
HETATM   33  O   UNL     1       1.101   4.020 -29.469  1.00  0.00    -0.401 OA
HETATM   34  H   UNL     1       0.472   3.401 -29.062  1.00  0.00     0.209 HD
ENDBRANCH  32  33
ENDBRANCH  31  32
ENDBRANCH  30  31
ENDBRANCH   7  30
TORSDOF 7
ENDMDL
MODEL 9
REMARK VINA RESULT:      -7.6      2.033      7.753
REMARK  7 active torsions:
REMARK  status: ('A' for Active; 'I' for Inactive)
REMARK    1  A    between atoms: C_3  and  N_4 
REMARK       I    between atoms: N_4  and  C_5 
REMARK    2  A    between atoms: C_5  and  C_6 
REMARK    3  A    between atoms: C_7  and  C_8 
REMARK    4  A    between atoms: C_19  and  C_20 
REMARK    5  A    between atoms: C_20  and  C_21 
REMARK    6  A    between atoms: C_21  and  C_22 
REMARK    7  A    between atoms: C_22  and  O_23 
ROOT
HETATM    1  C   UNL     1      -7.803   4.220 -32.875  1.00  0.00     0.062 C 
HETATM    2  C   UNL     1      -8.177   2.991 -33.713  1.00  0.00     0.202 C 
HETATM    3  N   UNL     1      -9.594   2.649 -33.541  1.00  0.00    -0.083 N 
HETATM    4  C   UNL     1     -10.384   3.160 -32.549  1.00  0.00     0.726 A 
HETATM    5  N   UNL     1      -9.895   4.121 -31.746  1.00  0.00    -0.192 N 
HETATM    6  N   UNL     1     -10.249   1.710 -34.256  1.00  0.00    -0.140 NA
HETATM    7  C   UNL     1     -11.407   1.646 -33.583  1.00  0.00     0.166 A 
HETATM    8  N   UNL     1     -11.540   2.547 -32.550  1.00  0.00    -0.046 NA
HETATM    9  C   UNL     1      -8.634   4.683 -31.904  1.00  0.00     0.037 C 
HETATM   10  C   UNL     1      -8.286   5.761 -30.905  1.00  0.00     0.070 C 
HETATM   11  H   UNL     1     -10.490   4.482 -31.006  1.00  0.00     0.184 HD
ENDROOT
BRANCH   1  12
HETATM   12  C   UNL     1      -6.473   4.820 -33.208  1.00  0.00     0.256 C 
HETATM   13  N   UNL     1      -5.564   4.779 -32.176  1.00  0.00    -0.323 N 
HETATM   14  H   UNL     1      -5.953   4.654 -31.250  1.00  0.00     0.169 HD
HETATM   15  O   UNL     1      -6.320   5.415 -34.266  1.00  0.00    -0.267 OA
BRANCH  13  16
HETATM   16  C   UNL     1      -4.173   5.036 -32.218  1.00  0.00     0.041 A 
HETATM   17  C   UNL     1      -3.149   4.074 -32.310  1.00  0.00    -0.035 A 
HETATM   18  C   UNL     1      -3.359   2.584 -32.335  1.00  0.00     0.050 C 
HETATM   19  C   UNL     1      -1.809   4.512 -32.344  1.00  0.00     0.009 A 
HETATM   20  C   UNL     1      -1.478   5.860 -32.227  1.00  0.00     0.001 A 
HETATM   21  C   UNL     1      -2.486   6.801 -32.079  1.00  0.00     0.002 A 
HETATM   22  C   UNL     1      -3.819   6.391 -32.069  1.00  0.00     0.030 A 
ENDBRANCH  13  16
ENDBRANCH   1  12
BRANCH   2  23
HETATM   23  C   UNL     1      -7.334   1.753 -33.390  1.00  0.00    -0.028 A 
HETATM   24  C   UNL     1      -7.191   1.282 -32.071  1.00  0.00     0.011 A 
HETATM   25  C   UNL     1      -6.426   0.145 -31.800  1.00  0.00     0.024 A 
HETATM   26  C   UNL     1      -5.793  -0.529 -32.841  1.00  0.00     0.034 A 
HETATM   27 CL   UNL     1      -4.847  -1.927 -32.506  1.00  0.00    -0.084 Cl
HETATM   28  C   UNL     1      -5.923  -0.080 -34.154  1.00  0.00     0.024 A 
HETATM   29  C   UNL     1      -6.691   1.054 -34.427  1.00  0.00     0.011 A 
ENDBRANCH   2  23
BRANCH   7  30
HETATM   30  C   UNL     1     -12.433   0.608 -33.846  1.00  0.00     0.085 C 
BRANCH  30  31
HETATM   31  C   UNL     1     -13.638   1.152 -34.615  1.00  0.00     0.034 C 
BRANCH  31  32
HETATM   32  C   UNL     1     -14.974   0.778 -33.979  1.00  0.00     0.164 C 
BRANCH  32  33
HETATM   33  O   UNL     1     -15.896   0.383 -34.989  1.00  0.00    -0.401 OA
HETATM   34  H   UNL     1     -16.359   1.181 -35.295  1.00  0.00     0.209 HD
ENDBRANCH  32  33
ENDBRANCH  31  32
ENDBRANCH  30  31
ENDBRANCH   7  30
TORSDOF 7
ENDMDL
MODEL 10
REMARK VINA RESULT:      -7.6      2.619      4.296
REMARK  7 active torsions:
REMARK  status: ('A' for Active; 'I' for Inactive)
REMARK    1  A    between atoms: C_3  and  N_4 
REMARK       I    between atoms: N_4  and  C_5 
REMARK    2  A    between atoms: C_5  and  C_6 
REMARK    3  A    between atoms: C_7  and  C_8 
REMARK    4  A    between atoms: C_19  and  C_20 
REMARK    5  A    between atoms: C_20  and  C_21 
REMARK    6  A    between atoms: C_21  and  C_22 
REMARK    7  A    between atoms: C_22  and  O_23 
ROOT
HETATM    1  C   UNL     1      -6.378   1.756 -33.324  1.00  0.00     0.062 C 
HETATM    2  C   UNL     1      -5.977   3.226 -33.502  1.00  0.00     0.202 C 
HETATM    3  N   UNL     1      -4.603   3.456 -33.041  1.00  0.00    -0.083 N 
HETATM    4  C   UNL     1      -3.896   2.563 -32.283  1.00  0.00     0.726 A 
HETATM    5  N   UNL     1      -4.421   1.350 -32.033  1.00  0.00    -0.192 N 
HETATM    6  N   UNL     1      -3.922   4.610 -33.203  1.00  0.00    -0.140 NA
HETATM    7  C   UNL     1      -2.844   4.372 -32.441  1.00  0.00     0.166 A 
HETATM    8  N   UNL     1      -2.776   3.113 -31.890  1.00  0.00    -0.046 NA
HETATM    9  C   UNL     1      -5.631   0.916 -32.559  1.00  0.00     0.037 C 
HETATM   10  C   UNL     1      -6.029  -0.488 -32.168  1.00  0.00     0.070 C 
HETATM   11  H   UNL     1      -3.889   0.703 -31.458  1.00  0.00     0.184 HD
ENDROOT
BRANCH   1  12
HETATM   12  C   UNL     1      -7.637   1.363 -34.030  1.00  0.00     0.256 C 
HETATM   13  N   UNL     1      -8.773   1.484 -33.264  1.00  0.00    -0.323 N 
HETATM   14  H   UNL     1      -8.629   1.512 -32.263  1.00  0.00     0.169 HD
HETATM   15  O   UNL     1      -7.578   0.844 -35.137  1.00  0.00    -0.267 OA
BRANCH  13  16
HETATM   16  C   UNL     1     -10.124   1.426 -33.679  1.00  0.00     0.041 A 
HETATM   17  C   UNL     1     -10.818   2.414 -34.404  1.00  0.00    -0.035 A 
HETATM   18  C   UNL     1     -10.247   3.739 -34.828  1.00  0.00     0.050 C 
HETATM   19  C   UNL     1     -12.170   2.186 -34.737  1.00  0.00     0.009 A 
HETATM   20  C   UNL     1     -12.843   1.042 -34.316  1.00  0.00     0.001 A 
HETATM   21  C   UNL     1     -12.173   0.096 -33.554  1.00  0.00     0.002 A 
HETATM   22  C   UNL     1     -10.829   0.291 -33.236  1.00  0.00     0.030 A 
ENDBRANCH  13  16
ENDBRANCH   1  12
BRANCH   2  23
HETATM   23  C   UNL     1      -6.905   4.204 -32.776  1.00  0.00    -0.028 A 
HETATM   24  C   UNL     1      -7.242   4.033 -31.420  1.00  0.00     0.011 A 
HETATM   25  C   UNL     1      -8.082   4.943 -30.773  1.00  0.00     0.024 A 
HETATM   26  C   UNL     1      -8.598   6.029 -31.476  1.00  0.00     0.034 A 
HETATM   27 CL   UNL     1      -9.636   7.147 -30.680  1.00  0.00    -0.084 Cl
HETATM   28  C   UNL     1      -8.276   6.218 -32.818  1.00  0.00     0.024 A 
HETATM   29  C   UNL     1      -7.433   5.311 -33.465  1.00  0.00     0.011 A 
ENDBRANCH   2  23
BRANCH   7  30
HETATM   30  C   UNL     1      -1.845   5.419 -32.114  1.00  0.00     0.085 C 
BRANCH  30  31
HETATM   31  C   UNL     1      -1.176   6.005 -33.358  1.00  0.00     0.034 C 
BRANCH  31  32
HETATM   32  C   UNL     1      -1.821   7.304 -33.831  1.00  0.00     0.164 C 
BRANCH  32  33
HETATM   33  O   UNL     1      -1.704   8.299 -32.819  1.00  0.00    -0.401 OA
HETATM   34  H   UNL     1      -1.287   7.885 -32.045  1.00  0.00     0.209 HD
ENDBRANCH  32  33
ENDBRANCH  31  32
ENDBRANCH  30  31
ENDBRANCH   7  30
TORSDOF 7
ENDMDL
