MODEL 1
REMARK VINA RESULT:      -8.0      0.000      0.000
REMARK  6 active torsions:
REMARK  status: ('A' for Active; 'I' for Inactive)
REMARK    1  A    between atoms: C_4  and  O_5 
REMARK    2  A    between atoms: O_5  and  C_6 
REMARK    3  A    between atoms: C_6  and  C_7 
REMARK    4  A    between atoms: C_10  and  C_11 
REMARK    5  A    between atoms: C_11  and  N_12 
REMARK       I    between atoms: N_12  and  C_13 
REMARK       I    between atoms: C_13  and  N_14 
REMARK    6  A    between atoms: N_14  and  C_15 
ROOT
HETATM    1  C   UNL     1      -4.567   0.708 -31.650  1.00  0.00     0.165 C 
ENDROOT
BRANCH   1   2
HETATM    2  C   UNL     1      -6.013   0.555 -32.065  1.00  0.00    -0.007 A 
HETATM    3  C   UNL     1      -6.409  -0.154 -33.215  1.00  0.00     0.077 A 
HETATM    4  C   UNL     1      -7.774  -0.319 -33.494  1.00  0.00     0.044 A 
HETATM    5  C   UNL     1      -8.754   0.236 -32.661  1.00  0.00    -0.059 A 
HETATM    6  C   UNL     1     -10.213   0.040 -32.951  1.00  0.00     0.048 C 
HETATM    7  C   UNL     1      -8.359   0.937 -31.521  1.00  0.00     0.007 A 
HETATM    8  C   UNL     1      -7.005   1.091 -31.225  1.00  0.00     0.012 A 
BRANCH   3   9
HETATM    9  O   UNL     1      -5.398  -0.660 -33.996  1.00  0.00    -0.350 OA
BRANCH   9  10
HETATM   10  C   UNL     1      -5.022  -2.018 -33.764  1.00  0.00     0.180 C 
BRANCH  10  11
HETATM   11  C   UNL     1      -5.535  -2.837 -34.909  1.00  0.00     0.010 A 
HETATM   12  C   UNL     1      -5.510  -4.343 -34.835  1.00  0.00     0.007 A 
HETATM   13  C   UNL     1      -6.822  -3.612 -34.785  1.00  0.00     0.007 A 
ENDBRANCH  10  11
ENDBRANCH   9  10
ENDBRANCH   3   9
ENDBRANCH   1   2
BRANCH   1  14
HETATM   14  N   UNL     1      -3.801   1.547 -32.545  1.00  0.00    -0.339 N 
HETATM   15  C   UNL     1      -3.465   2.829 -32.178  1.00  0.00     0.321 C 
HETATM   16  N   UNL     1      -2.580   3.393 -33.068  1.00  0.00    -0.307 N 
HETATM   17  O   UNL     1      -3.931   3.369 -31.182  1.00  0.00    -0.247 OA
HETATM   18  H   UNL     1      -2.206   2.768 -33.762  1.00  0.00     0.170 HD
HETATM   19  H   UNL     1      -3.179   1.039 -33.158  1.00  0.00     0.164 HD
BRANCH  16  20
HETATM   20  C   UNL     1      -2.099   4.723 -33.061  1.00  0.00     0.059 A 
HETATM   21  C   UNL     1      -2.588   5.641 -34.010  1.00  0.00    -0.032 A 
HETATM   22  C   UNL     1      -3.574   5.257 -35.076  1.00  0.00     0.050 C 
HETATM   23  C   UNL     1      -2.126   6.966 -33.970  1.00  0.00     0.028 A 
HETATM   24  C   UNL     1      -1.203   7.331 -33.005  1.00  0.00     0.117 A 
HETATM   25  N   UNL     1      -0.712   6.480 -32.087  1.00  0.00    -0.271 NA
HETATM   26  C   UNL     1      -1.167   5.200 -32.137  1.00  0.00     0.146 A 
ENDBRANCH  16  20
ENDBRANCH   1  14
TORSDOF 6
ENDMDL
MODEL 2
REMARK VINA RESULT:      -8.0      1.346      3.360
REMARK  6 active torsions:
REMARK  status: ('A' for Active; 'I' for Inactive)
REMARK    1  A    between atoms: C_4  and  O_5 
REMARK    2  A    between atoms: O_5  and  C_6 
REMARK    3  A    between atoms: C_6  and  C_7 
REMARK    4  A    between atoms: C_10  and  C_11 
REMARK    5  A    between atoms: C_11  and  N_12 
REMARK       I    between atoms: N_12  and  C_13 
REMARK       I    between atoms: C_13  and  N_14 
REMARK    6  A    between atoms: N_14  and  C_15 
ROOT
HETATM    1  C   UNL     1      -4.180   0.724 -31.905  1.00  0.00     0.165 C 
ENDROOT
BRANCH   1   2
HETATM    2  C   UNL     1      -4.840  -0.376 -32.705  1.00  0.00    -0.007 A 
HETATM    3  C   UNL     1      -6.224  -0.417 -32.955  1.00  0.00     0.077 A 
HETATM    4  C   UNL     1      -6.754  -1.427 -33.771  1.00  0.00     0.044 A 
HETATM    5  C   UNL     1      -5.930  -2.418 -34.321  1.00  0.00    -0.059 A 
HETATM    6  C   UNL     1      -6.496  -3.485 -35.210  1.00  0.00     0.048 C 
HETATM    7  C   UNL     1      -4.557  -2.374 -34.073  1.00  0.00     0.007 A 
HETATM    8  C   UNL     1      -4.019  -1.363 -33.278  1.00  0.00     0.012 A 
BRANCH   3   9
HETATM    9  O   UNL     1      -6.977   0.576 -32.374  1.00  0.00    -0.350 OA
BRANCH   9  10
HETATM   10  C   UNL     1      -7.890   1.272 -33.223  1.00  0.00     0.180 C 
BRANCH  10  11
HETATM   11  C   UNL     1      -9.261   1.132 -32.633  1.00  0.00     0.010 A 
HETATM   12  C   UNL     1     -10.463   1.001 -33.533  1.00  0.00     0.007 A 
HETATM   13  C   UNL     1     -10.004  -0.176 -32.718  1.00  0.00     0.007 A 
ENDBRANCH  10  11
ENDBRANCH   9  10
ENDBRANCH   3   9
ENDBRANCH   1   2
BRANCH   1  14
HETATM   14  N   UNL     1      -4.383   2.041 -32.467  1.00  0.00    -0.339 N 
HETATM   15  C   UNL     1      -3.519   3.067 -32.162  1.00  0.00     0.321 C 
HETATM   16  N   UNL     1      -3.761   4.177 -32.938  1.00  0.00    -0.307 N 
HETATM   17  O   UNL     1      -2.665   2.967 -31.290  1.00  0.00    -0.247 OA
HETATM   18  H   UNL     1      -4.419   4.047 -33.689  1.00  0.00     0.170 HD
HETATM   19  H   UNL     1      -4.836   2.041 -33.370  1.00  0.00     0.164 HD
BRANCH  16  20
HETATM   20  C   UNL     1      -3.138   5.442 -32.831  1.00  0.00     0.059 A 
HETATM   21  C   UNL     1      -2.200   5.838 -33.804  1.00  0.00    -0.032 A 
HETATM   22  C   UNL     1      -1.788   4.947 -34.941  1.00  0.00     0.050 C 
HETATM   23  C   UNL     1      -1.614   7.109 -33.703  1.00  0.00     0.028 A 
HETATM   24  C   UNL     1      -1.971   7.935 -32.650  1.00  0.00     0.117 A 
HETATM   25  N   UNL     1      -2.858   7.588 -31.701  1.00  0.00    -0.271 NA
HETATM   26  C   UNL     1      -3.418   6.355 -31.811  1.00  0.00     0.146 A 
ENDBRANCH  16  20
ENDBRANCH   1  14
TORSDOF 6
ENDMDL
MODEL 3
REMARK VINA RESULT:      -7.5      2.346      7.647
REMARK  6 active torsions:
REMARK  status: ('A' for Active; 'I' for Inactive)
REMARK    1  A    between atoms: C_4  and  O_5 
REMARK    2  A    between atoms: O_5  and  C_6 
REMARK    3  A    between atoms: C_6  and  C_7 
REMARK    4  A    between atoms: C_10  and  C_11 
REMARK    5  A    between atoms: C_11  and  N_12 
REMARK       I    between atoms: N_12  and  C_13 
REMARK       I    between atoms: C_13  and  N_14 
REMARK    6  A    between atoms: N_14  and  C_15 
ROOT
HETATM    1  C   UNL     1      -3.521   1.753 -31.376  1.00  0.00     0.165 C 
ENDROOT
BRANCH   1   2
HETATM    2  C   UNL     1      -4.345   2.997 -31.616  1.00  0.00    -0.007 A 
HETATM    3  C   UNL     1      -3.865   4.108 -32.335  1.00  0.00     0.077 A 
HETATM    4  C   UNL     1      -4.715   5.196 -32.584  1.00  0.00     0.044 A 
HETATM    5  C   UNL     1      -6.030   5.210 -32.103  1.00  0.00    -0.059 A 
HETATM    6  C   UNL     1      -6.943   6.366 -32.388  1.00  0.00     0.048 C 
HETATM    7  C   UNL     1      -6.505   4.107 -31.391  1.00  0.00     0.007 A 
HETATM    8  C   UNL     1      -5.673   3.013 -31.154  1.00  0.00     0.012 A 
BRANCH   3   9
HETATM    9  O   UNL     1      -2.562   4.036 -32.766  1.00  0.00    -0.350 OA
BRANCH   9  10
HETATM   10  C   UNL     1      -2.254   4.688 -33.999  1.00  0.00     0.180 C 
BRANCH  10  11
HETATM   11  C   UNL     1      -1.217   5.733 -33.717  1.00  0.00     0.010 A 
HETATM   12  C   UNL     1      -1.606   7.188 -33.648  1.00  0.00     0.007 A 
HETATM   13  C   UNL     1      -1.199   6.461 -32.396  1.00  0.00     0.007 A 
ENDBRANCH  10  11
ENDBRANCH   9  10
ENDBRANCH   3   9
ENDBRANCH   1   2
BRANCH   1  14
HETATM   14  N   UNL     1      -3.497   0.855 -32.509  1.00  0.00    -0.339 N 
HETATM   15  C   UNL     1      -4.248  -0.297 -32.498  1.00  0.00     0.321 C 
HETATM   16  N   UNL     1      -4.246  -0.912 -33.729  1.00  0.00    -0.307 N 
HETATM   17  O   UNL     1      -4.820  -0.697 -31.492  1.00  0.00    -0.247 OA
HETATM   18  H   UNL     1      -3.827  -0.385 -34.477  1.00  0.00     0.170 HD
HETATM   19  H   UNL     1      -3.319   1.309 -33.394  1.00  0.00     0.164 HD
BRANCH  16  20
HETATM   20  C   UNL     1      -4.824  -2.160 -34.057  1.00  0.00     0.059 A 
HETATM   21  C   UNL     1      -6.146  -2.206 -34.541  1.00  0.00    -0.032 A 
HETATM   22  C   UNL     1      -7.000  -0.978 -34.680  1.00  0.00     0.050 C 
HETATM   23  C   UNL     1      -6.695  -3.448 -34.894  1.00  0.00     0.028 A 
HETATM   24  C   UNL     1      -5.926  -4.591 -34.754  1.00  0.00     0.117 A 
HETATM   25  N   UNL     1      -4.664  -4.585 -34.292  1.00  0.00    -0.271 NA
HETATM   26  C   UNL     1      -4.144  -3.376 -33.954  1.00  0.00     0.146 A 
ENDBRANCH  16  20
ENDBRANCH   1  14
TORSDOF 6
ENDMDL
MODEL 4
REMARK VINA RESULT:      -7.4      2.350      7.081
REMARK  6 active torsions:
REMARK  status: ('A' for Active; 'I' for Inactive)
REMARK    1  A    between atoms: C_4  and  O_5 
REMARK    2  A    between atoms: O_5  and  C_6 
REMARK    3  A    between atoms: C_6  and  C_7 
REMARK    4  A    between atoms: C_10  and  C_11 
REMARK    5  A    between atoms: C_11  and  N_12 
REMARK       I    between atoms: N_12  and  C_13 
REMARK       I    between atoms: C_13  and  N_14 
REMARK    6  A    between atoms: N_14  and  C_15 
ROOT
HETATM    1  C   UNL     1      -3.356   1.078 -31.288  1.00  0.00     0.165 C 
ENDROOT
BRANCH   1   2
HETATM    2  C   UNL     1      -3.891   2.440 -31.670  1.00  0.00    -0.007 A 
HETATM    3  C   UNL     1      -5.221   2.834 -31.434  1.00  0.00     0.077 A 
HETATM    4  C   UNL     1      -5.625   4.141 -31.745  1.00  0.00     0.044 A 
HETATM    5  C   UNL     1      -4.731   5.056 -32.316  1.00  0.00    -0.059 A 
HETATM    6  C   UNL     1      -5.160   6.460 -32.629  1.00  0.00     0.048 C 
HETATM    7  C   UNL     1      -3.412   4.663 -32.549  1.00  0.00     0.007 A 
HETATM    8  C   UNL     1      -2.997   3.372 -32.226  1.00  0.00     0.012 A 
BRANCH   3   9
HETATM    9  O   UNL     1      -6.048   1.884 -30.884  1.00  0.00    -0.350 OA
BRANCH   9  10
HETATM   10  C   UNL     1      -7.454   2.112 -30.996  1.00  0.00     0.180 C 
BRANCH  10  11
HETATM   11  C   UNL     1      -7.966   1.269 -32.125  1.00  0.00     0.010 A 
HETATM   12  C   UNL     1      -9.147   0.356 -31.915  1.00  0.00     0.007 A 
HETATM   13  C   UNL     1      -9.289   1.579 -32.777  1.00  0.00     0.007 A 
ENDBRANCH  10  11
ENDBRANCH   9  10
ENDBRANCH   3   9
ENDBRANCH   1   2
BRANCH   1  14
HETATM   14  N   UNL     1      -3.289   0.157 -32.401  1.00  0.00    -0.339 N 
HETATM   15  C   UNL     1      -4.214  -0.854 -32.521  1.00  0.00     0.321 C 
HETATM   16  N   UNL     1      -4.104  -1.496 -33.734  1.00  0.00    -0.307 N 
HETATM   17  O   UNL     1      -5.008  -1.126 -31.629  1.00  0.00    -0.247 OA
HETATM   18  H   UNL     1      -3.481  -1.066 -34.397  1.00  0.00     0.170 HD
HETATM   19  H   UNL     1      -2.889   0.550 -33.241  1.00  0.00     0.164 HD
BRANCH  16  20
HETATM   20  C   UNL     1      -4.820  -2.640 -34.158  1.00  0.00     0.059 A 
HETATM   21  C   UNL     1      -6.121  -2.492 -34.675  1.00  0.00    -0.032 A 
HETATM   22  C   UNL     1      -6.815  -1.162 -34.753  1.00  0.00     0.050 C 
HETATM   23  C   UNL     1      -6.806  -3.632 -35.123  1.00  0.00     0.028 A 
HETATM   24  C   UNL     1      -6.185  -4.868 -35.041  1.00  0.00     0.117 A 
HETATM   25  N   UNL     1      -4.947  -5.046 -34.550  1.00  0.00    -0.271 NA
HETATM   26  C   UNL     1      -4.295  -3.934 -34.119  1.00  0.00     0.146 A 
ENDBRANCH  16  20
ENDBRANCH   1  14
TORSDOF 6
ENDMDL
MODEL 5
REMARK VINA RESULT:      -7.4      4.259      8.050
REMARK  6 active torsions:
REMARK  status: ('A' for Active; 'I' for Inactive)
REMARK    1  A    between atoms: C_4  and  O_5 
REMARK    2  A    between atoms: O_5  and  C_6 
REMARK    3  A    between atoms: C_6  and  C_7 
REMARK    4  A    between atoms: C_10  and  C_11 
REMARK    5  A    between atoms: C_11  and  N_12 
REMARK       I    between atoms: N_12  and  C_13 
REMARK       I    between atoms: C_13  and  N_14 
REMARK    6  A    between atoms: N_14  and  C_15 
ROOT
HETATM    1  C   UNL     1      -7.277   1.324 -34.251  1.00  0.00     0.165 C 
ENDROOT
BRANCH   1   2
HETATM    2  C   UNL     1      -6.540   0.005 -34.289  1.00  0.00    -0.007 A 
HETATM    3  C   UNL     1      -5.304  -0.201 -33.647  1.00  0.00     0.077 A 
HETATM    4  C   UNL     1      -4.717  -1.475 -33.662  1.00  0.00     0.044 A 
HETATM    5  C   UNL     1      -5.327  -2.544 -34.330  1.00  0.00    -0.059 A 
HETATM    6  C   UNL     1      -4.707  -3.910 -34.326  1.00  0.00     0.048 C 
HETATM    7  C   UNL     1      -6.553  -2.337 -34.964  1.00  0.00     0.007 A 
HETATM    8  C   UNL     1      -7.154  -1.079 -34.940  1.00  0.00     0.012 A 
BRANCH   3   9
HETATM    9  O   UNL     1      -4.753   0.892 -33.023  1.00  0.00    -0.350 OA
BRANCH   9  10
HETATM   10  C   UNL     1      -4.482   0.768 -31.626  1.00  0.00     0.180 C 
BRANCH  10  11
HETATM   11  C   UNL     1      -5.796   0.688 -30.910  1.00  0.00     0.010 A 
HETATM   12  C   UNL     1      -5.834   0.474 -29.418  1.00  0.00     0.007 A 
HETATM   13  C   UNL     1      -6.242   1.800 -29.995  1.00  0.00     0.007 A 
ENDBRANCH  10  11
ENDBRANCH   9  10
ENDBRANCH   3   9
ENDBRANCH   1   2
BRANCH   1  14
HETATM   14  N   UNL     1      -8.626   1.241 -34.765  1.00  0.00    -0.339 N 
HETATM   15  C   UNL     1      -9.701   1.327 -33.911  1.00  0.00     0.321 C 
HETATM   16  N   UNL     1     -10.887   1.423 -34.602  1.00  0.00    -0.307 N 
HETATM   17  O   UNL     1      -9.574   1.305 -32.693  1.00  0.00    -0.247 OA
HETATM   18  H   UNL     1     -10.801   1.551 -35.597  1.00  0.00     0.170 HD
HETATM   19  H   UNL     1      -8.731   1.577 -35.712  1.00  0.00     0.164 HD
BRANCH  16  20
HETATM   20  C   UNL     1     -12.192   1.427 -34.056  1.00  0.00     0.059 A 
HETATM   21  C   UNL     1     -12.751   2.639 -33.606  1.00  0.00    -0.032 A 
HETATM   22  C   UNL     1     -11.997   3.938 -33.634  1.00  0.00     0.050 C 
HETATM   23  C   UNL     1     -14.059   2.634 -33.097  1.00  0.00     0.028 A 
HETATM   24  C   UNL     1     -14.760   1.440 -33.049  1.00  0.00     0.117 A 
HETATM   25  N   UNL     1     -14.256   0.265 -33.465  1.00  0.00    -0.271 NA
HETATM   26  C   UNL     1     -12.989   0.285 -33.956  1.00  0.00     0.146 A 
ENDBRANCH  16  20
ENDBRANCH   1  14
TORSDOF 6
ENDMDL
MODEL 6
REMARK VINA RESULT:      -7.3      3.681      6.640
REMARK  6 active torsions:
REMARK  status: ('A' for Active; 'I' for Inactive)
REMARK    1  A    between atoms: C_4  and  O_5 
REMARK    2  A    between atoms: O_5  and  C_6 
REMARK    3  A    between atoms: C_6  and  C_7 
REMARK    4  A    between atoms: C_10  and  C_11 
REMARK    5  A    between atoms: C_11  and  N_12 
REMARK       I    between atoms: N_12  and  C_13 
REMARK       I    between atoms: C_13  and  N_14 
REMARK    6  A    between atoms: N_14  and  C_15 
ROOT
HETATM    1  C   UNL     1      -7.396  -0.574 -34.760  1.00  0.00     0.165 C 
ENDROOT
BRANCH   1   2
HETATM    2  C   UNL     1      -6.347  -1.641 -34.545  1.00  0.00    -0.007 A 
HETATM    3  C   UNL     1      -5.102  -1.381 -33.942  1.00  0.00     0.077 A 
HETATM    4  C   UNL     1      -4.210  -2.437 -33.706  1.00  0.00     0.044 A 
HETATM    5  C   UNL     1      -4.524  -3.748 -34.089  1.00  0.00    -0.059 A 
HETATM    6  C   UNL     1      -3.576  -4.879 -33.817  1.00  0.00     0.048 C 
HETATM    7  C   UNL     1      -5.760  -4.003 -34.686  1.00  0.00     0.007 A 
HETATM    8  C   UNL     1      -6.661  -2.962 -34.908  1.00  0.00     0.012 A 
BRANCH   3   9
HETATM    9  O   UNL     1      -4.851  -0.073 -33.604  1.00  0.00    -0.350 OA
BRANCH   9  10
HETATM   10  C   UNL     1      -4.335   0.167 -32.294  1.00  0.00     0.180 C 
BRANCH  10  11
HETATM   11  C   UNL     1      -4.986   1.409 -31.765  1.00  0.00     0.010 A 
HETATM   12  C   UNL     1      -4.154   2.624 -31.444  1.00  0.00     0.007 A 
HETATM   13  C   UNL     1      -5.090   2.646 -32.620  1.00  0.00     0.007 A 
ENDBRANCH  10  11
ENDBRANCH   9  10
ENDBRANCH   3   9
ENDBRANCH   1   2
BRANCH   1  14
HETATM   14  N   UNL     1      -7.946  -0.057 -33.526  1.00  0.00    -0.339 N 
HETATM   15  C   UNL     1      -8.466   1.216 -33.477  1.00  0.00     0.321 C 
HETATM   16  N   UNL     1      -9.111   1.451 -32.285  1.00  0.00    -0.307 N 
HETATM   17  O   UNL     1      -8.335   2.013 -34.397  1.00  0.00    -0.247 OA
HETATM   18  H   UNL     1      -9.231   0.648 -31.690  1.00  0.00     0.170 HD
HETATM   19  H   UNL     1      -8.336  -0.764 -32.917  1.00  0.00     0.164 HD
BRANCH  16  20
HETATM   20  C   UNL     1      -9.673   2.674 -31.849  1.00  0.00     0.059 A 
HETATM   21  C   UNL     1      -9.049   3.394 -30.812  1.00  0.00    -0.032 A 
HETATM   22  C   UNL     1      -7.823   2.893 -30.103  1.00  0.00     0.050 C 
HETATM   23  C   UNL     1      -9.599   4.621 -30.414  1.00  0.00     0.028 A 
HETATM   24  C   UNL     1     -10.740   5.088 -31.046  1.00  0.00     0.117 A 
HETATM   25  N   UNL     1     -11.364   4.425 -32.036  1.00  0.00    -0.271 NA
HETATM   26  C   UNL     1     -10.820   3.238 -32.412  1.00  0.00     0.146 A 
ENDBRANCH  16  20
ENDBRANCH   1  14
TORSDOF 6
ENDMDL
MODEL 7
REMARK VINA RESULT:      -7.2      2.073      3.490
REMARK  6 active torsions:
REMARK  status: ('A' for Active; 'I' for Inactive)
REMARK    1  A    between atoms: C_4  and  O_5 
REMARK    2  A    between atoms: O_5  and  C_6 
REMARK    3  A    between atoms: C_6  and  C_7 
REMARK    4  A    between atoms: C_10  and  C_11 
REMARK    5  A    between atoms: C_11  and  N_12 
REMARK       I    between atoms: N_12  and  C_13 
REMARK       I    between atoms: C_13  and  N_14 
REMARK    6  A    between atoms: N_14  and  C_15 
ROOT
HETATM    1  C   UNL     1      -7.301   2.892 -33.223  1.00  0.00     0.165 C 
ENDROOT
BRANCH   1   2
HETATM    2  C   UNL     1      -7.110   1.433 -33.569  1.00  0.00    -0.007 A 
HETATM    3  C   UNL     1      -6.750   0.460 -32.617  1.00  0.00     0.077 A 
HETATM    4  C   UNL     1      -6.666  -0.887 -32.997  1.00  0.00     0.044 A 
HETATM    5  C   UNL     1      -6.908  -1.281 -34.320  1.00  0.00    -0.059 A 
HETATM    6  C   UNL     1      -6.839  -2.726 -34.719  1.00  0.00     0.048 C 
HETATM    7  C   UNL     1      -7.266  -0.315 -35.261  1.00  0.00     0.007 A 
HETATM    8  C   UNL     1      -7.369   1.025 -34.889  1.00  0.00     0.012 A 
BRANCH   3   9
HETATM    9  O   UNL     1      -6.513   0.915 -31.342  1.00  0.00    -0.350 OA
BRANCH   9  10
HETATM   10  C   UNL     1      -5.521   0.222 -30.583  1.00  0.00     0.180 C 
BRANCH  10  11
HETATM   11  C   UNL     1      -4.206   0.900 -30.822  1.00  0.00     0.010 A 
HETATM   12  C   UNL     1      -2.975   0.082 -31.122  1.00  0.00     0.007 A 
HETATM   13  C   UNL     1      -3.594   0.928 -32.200  1.00  0.00     0.007 A 
ENDBRANCH  10  11
ENDBRANCH   9  10
ENDBRANCH   3   9
ENDBRANCH   1   2
BRANCH   1  14
HETATM   14  N   UNL     1      -6.210   3.444 -32.451  1.00  0.00    -0.339 N 
HETATM   15  C   UNL     1      -5.478   4.501 -32.940  1.00  0.00     0.321 C 
HETATM   16  N   UNL     1      -4.622   5.005 -31.988  1.00  0.00    -0.307 N 
HETATM   17  O   UNL     1      -5.596   4.903 -34.091  1.00  0.00    -0.247 OA
HETATM   18  H   UNL     1      -4.741   4.637 -31.059  1.00  0.00     0.170 HD
HETATM   19  H   UNL     1      -6.322   3.353 -31.450  1.00  0.00     0.164 HD
BRANCH  16  20
HETATM   20  C   UNL     1      -3.655   6.021 -32.167  1.00  0.00     0.059 A 
HETATM   21  C   UNL     1      -2.443   5.718 -32.817  1.00  0.00    -0.032 A 
HETATM   22  C   UNL     1      -2.104   4.335 -33.294  1.00  0.00     0.050 C 
HETATM   23  C   UNL     1      -1.507   6.744 -33.017  1.00  0.00     0.028 A 
HETATM   24  C   UNL     1      -1.798   8.022 -32.567  1.00  0.00     0.117 A 
HETATM   25  N   UNL     1      -2.941   8.345 -31.939  1.00  0.00    -0.271 NA
HETATM   26  C   UNL     1      -3.839   7.342 -31.752  1.00  0.00     0.146 A 
ENDBRANCH  16  20
ENDBRANCH   1  14
TORSDOF 6
ENDMDL
MODEL 8
REMARK VINA RESULT:      -7.2      3.755      8.034
REMARK  6 active torsions:
REMARK  status: ('A' for Active; 'I' for Inactive)
REMARK    1  A    between atoms: C_4  and  O_5 
REMARK    2  A    between atoms: O_5  and  C_6 
REMARK    3  A    between atoms: C_6  and  C_7 
REMARK    4  A    between atoms: C_10  and  C_11 
REMARK    5  A    between atoms: C_11  and  N_12 
REMARK       I    between atoms: N_12  and  C_13 
REMARK       I    between atoms: C_13  and  N_14 
REMARK    6  A    between atoms: N_14  and  C_15 
ROOT
HETATM    1  C   UNL     1      -7.617   0.265 -34.988  1.00  0.00     0.165 C 
ENDROOT
BRANCH   1   2
HETATM    2  C   UNL     1      -6.447  -0.337 -34.244  1.00  0.00    -0.007 A 
HETATM    3  C   UNL     1      -5.868   0.265 -33.111  1.00  0.00     0.077 A 
HETATM    4  C   UNL     1      -4.835  -0.392 -32.426  1.00  0.00     0.044 A 
HETATM    5  C   UNL     1      -4.347  -1.629 -32.868  1.00  0.00    -0.059 A 
HETATM    6  C   UNL     1      -3.256  -2.339 -32.122  1.00  0.00     0.048 C 
HETATM    7  C   UNL     1      -4.924  -2.224 -33.991  1.00  0.00     0.007 A 
HETATM    8  C   UNL     1      -5.964  -1.588 -34.668  1.00  0.00     0.012 A 
BRANCH   3   9
HETATM    9  O   UNL     1      -6.383   1.483 -32.739  1.00  0.00    -0.350 OA
BRANCH   9  10
HETATM   10  C   UNL     1      -5.502   2.605 -32.811  1.00  0.00     0.180 C 
BRANCH  10  11
HETATM   11  C   UNL     1      -5.933   3.452 -33.969  1.00  0.00     0.010 A 
HETATM   12  C   UNL     1      -6.490   4.833 -33.733  1.00  0.00     0.007 A 
HETATM   13  C   UNL     1      -5.138   4.669 -34.369  1.00  0.00     0.007 A 
ENDBRANCH  10  11
ENDBRANCH   9  10
ENDBRANCH   3   9
ENDBRANCH   1   2
BRANCH   1  14
HETATM   14  N   UNL     1      -8.856   0.216 -34.243  1.00  0.00    -0.339 N 
HETATM   15  C   UNL     1      -9.663   1.327 -34.165  1.00  0.00     0.321 C 
HETATM   16  N   UNL     1     -10.875   1.029 -33.585  1.00  0.00    -0.307 N 
HETATM   17  O   UNL     1      -9.303   2.428 -34.561  1.00  0.00    -0.247 OA
HETATM   18  H   UNL     1     -11.053   0.051 -33.430  1.00  0.00     0.170 HD
HETATM   19  H   UNL     1      -9.284  -0.698 -34.212  1.00  0.00     0.164 HD
BRANCH  16  20
HETATM   20  C   UNL     1     -11.906   1.939 -33.254  1.00  0.00     0.059 A 
HETATM   21  C   UNL     1     -13.249   1.574 -33.468  1.00  0.00    -0.032 A 
HETATM   22  C   UNL     1     -13.642   0.263 -34.087  1.00  0.00     0.050 C 
HETATM   23  C   UNL     1     -14.262   2.474 -33.104  1.00  0.00     0.028 A 
HETATM   24  C   UNL     1     -13.914   3.695 -32.550  1.00  0.00     0.117 A 
HETATM   25  N   UNL     1     -12.643   4.077 -32.335  1.00  0.00    -0.271 NA
HETATM   26  C   UNL     1     -11.672   3.197 -32.692  1.00  0.00     0.146 A 
ENDBRANCH  16  20
ENDBRANCH   1  14
TORSDOF 6
ENDMDL
MODEL 9
REMARK VINA RESULT:      -7.0      1.905      3.665
REMARK  6 active torsions:
REMARK  status: ('A' for Active; 'I' for Inactive)
REMARK    1  A    between atoms: C_4  and  O_5 
REMARK    2  A    between atoms: O_5  and  C_6 
REMARK    3  A    between atoms: C_6  and  C_7 
REMARK    4  A    between atoms: C_10  and  C_11 
REMARK    5  A    between atoms: C_11  and  N_12 
REMARK       I    between atoms: N_12  and  C_13 
REMARK       I    between atoms: C_13  and  N_14 
REMARK    6  A    between atoms: N_14  and  C_15 
ROOT
HETATM    1  C   UNL     1      -4.960   1.816 -32.659  1.00  0.00     0.165 C 
ENDROOT
BRANCH   1   2
HETATM    2  C   UNL     1      -4.589   0.351 -32.624  1.00  0.00    -0.007 A 
HETATM    3  C   UNL     1      -5.194  -0.613 -33.451  1.00  0.00     0.077 A 
HETATM    4  C   UNL     1      -4.743  -1.941 -33.417  1.00  0.00     0.044 A 
HETATM    5  C   UNL     1      -3.714  -2.332 -32.549  1.00  0.00    -0.059 A 
HETATM    6  C   UNL     1      -3.220  -3.749 -32.530  1.00  0.00     0.048 C 
HETATM    7  C   UNL     1      -3.115  -1.374 -31.731  1.00  0.00     0.007 A 
HETATM    8  C   UNL     1      -3.545  -0.048 -31.771  1.00  0.00     0.012 A 
BRANCH   3   9
HETATM    9  O   UNL     1      -6.205  -0.166 -34.268  1.00  0.00    -0.350 OA
BRANCH   9  10
HETATM   10  C   UNL     1      -7.502  -0.725 -34.054  1.00  0.00     0.180 C 
BRANCH  10  11
HETATM   11  C   UNL     1      -8.371   0.347 -33.470  1.00  0.00     0.010 A 
HETATM   12  C   UNL     1      -9.662  -0.017 -32.781  1.00  0.00     0.007 A 
HETATM   13  C   UNL     1      -8.503   0.500 -31.976  1.00  0.00     0.007 A 
ENDBRANCH  10  11
ENDBRANCH   9  10
ENDBRANCH   3   9
ENDBRANCH   1   2
BRANCH   1  14
HETATM   14  N   UNL     1      -4.249   2.611 -31.682  1.00  0.00    -0.339 N 
HETATM   15  C   UNL     1      -3.248   3.466 -32.079  1.00  0.00     0.321 C 
HETATM   16  N   UNL     1      -2.831   4.269 -31.042  1.00  0.00    -0.307 N 
HETATM   17  O   UNL     1      -2.803   3.470 -33.220  1.00  0.00    -0.247 OA
HETATM   18  H   UNL     1      -3.387   4.220 -30.204  1.00  0.00     0.170 HD
HETATM   19  H   UNL     1      -4.794   2.847 -30.865  1.00  0.00     0.164 HD
BRANCH  16  20
HETATM   20  C   UNL     1      -1.758   5.190 -31.058  1.00  0.00     0.059 A 
HETATM   21  C   UNL     1      -2.028   6.566 -31.196  1.00  0.00    -0.032 A 
HETATM   22  C   UNL     1      -3.418   7.104 -31.378  1.00  0.00     0.050 C 
HETATM   23  C   UNL     1      -0.956   7.471 -31.177  1.00  0.00     0.028 A 
HETATM   24  C   UNL     1       0.334   6.988 -31.028  1.00  0.00     0.117 A 
HETATM   25  N   UNL     1       0.627   5.683 -30.898  1.00  0.00    -0.271 NA
HETATM   26  C   UNL     1      -0.420   4.817 -30.918  1.00  0.00     0.146 A 
ENDBRANCH  16  20
ENDBRANCH   1  14
TORSDOF 6
ENDMDL
MODEL 10
REMARK VINA RESULT:      -7.0      3.422      7.223
REMARK  6 active torsions:
REMARK  status: ('A' for Active; 'I' for Inactive)
REMARK    1  A    between atoms: C_4  and  O_5 
REMARK    2  A    between atoms: O_5  and  C_6 
REMARK    3  A    between atoms: C_6  and  C_7 
REMARK    4  A    between atoms: C_10  and  C_11 
REMARK    5  A    between atoms: C_11  and  N_12 
REMARK       I    between atoms: N_12  and  C_13 
REMARK       I    between atoms: C_13  and  N_14 
REMARK    6  A    between atoms: N_14  and  C_15 
ROOT
HETATM    1  C   UNL     1      -7.119   0.648 -31.088  1.00  0.00     0.165 C 
ENDROOT
BRANCH   1   2
HETATM    2  C   UNL     1      -6.478  -0.259 -32.113  1.00  0.00    -0.007 A 
HETATM    3  C   UNL     1      -5.123  -0.639 -32.060  1.00  0.00     0.077 A 
HETATM    4  C   UNL     1      -4.618  -1.546 -33.004  1.00  0.00     0.044 A 
HETATM    5  C   UNL     1      -5.434  -2.060 -34.021  1.00  0.00    -0.059 A 
HETATM    6  C   UNL     1      -4.896  -3.045 -35.016  1.00  0.00     0.048 C 
HETATM    7  C   UNL     1      -6.777  -1.682 -34.070  1.00  0.00     0.007 A 
HETATM    8  C   UNL     1      -7.293  -0.795 -33.126  1.00  0.00     0.012 A 
BRANCH   3   9
HETATM    9  O   UNL     1      -4.376  -0.088 -31.047  1.00  0.00    -0.350 OA
BRANCH   9  10
HETATM   10  C   UNL     1      -3.288   0.753 -31.433  1.00  0.00     0.180 C 
BRANCH  10  11
HETATM   11  C   UNL     1      -3.728   2.176 -31.263  1.00  0.00     0.010 A 
HETATM   12  C   UNL     1      -2.991   3.286 -31.968  1.00  0.00     0.007 A 
HETATM   13  C   UNL     1      -4.383   2.918 -32.400  1.00  0.00     0.007 A 
ENDBRANCH  10  11
ENDBRANCH   9  10
ENDBRANCH   3   9
ENDBRANCH   1   2
BRANCH   1  14
HETATM   14  N   UNL     1      -8.541   0.820 -31.285  1.00  0.00    -0.339 N 
HETATM   15  C   UNL     1      -9.013   1.823 -32.099  1.00  0.00     0.321 C 
HETATM   16  N   UNL     1     -10.367   1.703 -32.313  1.00  0.00    -0.307 N 
HETATM   17  O   UNL     1      -8.286   2.702 -32.544  1.00  0.00    -0.247 OA
HETATM   18  H   UNL     1     -10.786   0.853 -31.973  1.00  0.00     0.170 HD
HETATM   19  H   UNL     1      -9.076  -0.034 -31.207  1.00  0.00     0.164 HD
BRANCH  16  20
HETATM   20  C   UNL     1     -11.201   2.606 -33.012  1.00  0.00     0.059 A 
HETATM   21  C   UNL     1     -12.313   2.116 -33.723  1.00  0.00    -0.032 A 
HETATM   22  C   UNL     1     -12.633   0.651 -33.815  1.00  0.00     0.050 C 
HETATM   23  C   UNL     1     -13.150   3.028 -34.384  1.00  0.00     0.028 A 
HETATM   24  C   UNL     1     -12.858   4.380 -34.322  1.00  0.00     0.117 A 
HETATM   25  N   UNL     1     -11.803   4.883 -33.658  1.00  0.00    -0.271 NA
HETATM   26  C   UNL     1     -11.000   3.989 -33.022  1.00  0.00     0.146 A 
ENDBRANCH  16  20
ENDBRANCH   1  14
TORSDOF 6
ENDMDL
