MODEL 1
REMARK VINA RESULT:      -8.0      0.000      0.000
REMARK  7 active torsions:
REMARK  status: ('A' for Active; 'I' for Inactive)
REMARK    1  A    between atoms: C_2  and  N_3 
REMARK    2  A    between atoms: C_8  and  C_9 
REMARK    3  A    between atoms: C_9  and  N_10 
REMARK       I    between atoms: N_10  and  C_11 
REMARK       I    between atoms: C_11  and  N_12 
REMARK    4  A    between atoms: N_12  and  C_13 
REMARK    5  A    between atoms: C_14  and  O_15 
REMARK    6  A    between atoms: C_18  and  O_19 
REMARK    7  A    between atoms: C_26  and  N_27 
ROOT
HETATM    1  C   UNL     1      -6.075   3.858 -34.037  1.00  0.00     0.118 C 
HETATM    2  C   UNL     1      -4.955   4.774 -34.527  1.00  0.00     0.037 C 
ENDROOT
BRANCH   1   3
HETATM    3  C   UNL     1      -5.548   2.817 -33.045  1.00  0.00     0.006 A 
HETATM    4  C   UNL     1      -5.938   1.401 -33.073  1.00  0.00    -0.031 A 
HETATM    5  C   UNL     1      -5.285   0.656 -32.113  1.00  0.00     0.017 A 
HETATM    6  C   UNL     1      -6.886   0.720 -34.027  1.00  0.00     0.068 C 
HETATM    7  C   UNL     1      -5.452  -0.808 -31.876  1.00  0.00     0.281 C 
HETATM    8  S   UNL     1      -4.239   1.583 -31.177  1.00  0.00    -0.074 SA
HETATM    9  N   UNL     1      -6.078  -1.499 -33.081  1.00  0.00    -0.067 N 
HETATM   10  H   UNL     1      -6.449  -2.394 -32.740  1.00  0.00     0.280 HD
HETATM   11  C   UNL     1      -7.278  -0.699 -33.571  1.00  0.00     0.240 C 
HETATM   12  C   UNL     1      -4.640   3.029 -32.001  1.00  0.00     0.089 A 
BRANCH   9  13
HETATM   13  C   UNL     1      -5.092  -1.822 -34.183  1.00  0.00     0.231 C 
HETATM   14  C   UNL     1      -5.572  -3.018 -34.987  1.00  0.00     0.034 C 
ENDBRANCH   9  13
BRANCH  12  15
HETATM   15  N   UNL     1      -4.025   4.214 -31.516  1.00  0.00    -0.327 N 
HETATM   16  C   UNL     1      -2.673   4.546 -31.596  1.00  0.00     0.097 A 
HETATM   17  C   UNL     1      -2.451   5.783 -31.033  1.00  0.00     0.019 A 
HETATM   18  C   UNL     1      -3.687   6.242 -30.559  1.00  0.00     0.019 A 
HETATM   19  C   UNL     1      -4.619   5.269 -30.844  1.00  0.00     0.097 A 
ENDBRANCH  12  15
ENDBRANCH   1   3
BRANCH   1  20
HETATM   20  N   UNL     1      -7.263   4.478 -33.447  1.00  0.00    -0.334 N 
HETATM   21  C   UNL     1      -8.554   4.043 -33.349  1.00  0.00     0.321 C 
HETATM   22  N   UNL     1      -9.038   3.369 -34.436  1.00  0.00    -0.306 N 
HETATM   23  O   UNL     1      -9.211   4.430 -32.388  1.00  0.00    -0.247 OA
HETATM   24  H   UNL     1      -8.632   3.681 -35.297  1.00  0.00     0.171 HD
HETATM   25  H   UNL     1      -7.054   5.004 -32.606  1.00  0.00     0.165 HD
BRANCH  22  26
HETATM   26  C   UNL     1     -10.373   2.911 -34.533  1.00  0.00     0.071 A 
HETATM   27  C   UNL     1     -11.405   3.654 -35.132  1.00  0.00     0.097 A 
HETATM   28  C   UNL     1     -12.692   3.095 -35.219  1.00  0.00     0.077 A 
HETATM   29  C   UNL     1     -12.965   1.829 -34.680  1.00  0.00     0.092 A 
HETATM   30  C   UNL     1     -11.933   1.127 -34.044  1.00  0.00     0.069 A 
HETATM   31 CL   UNL     1     -12.187  -0.439 -33.353  1.00  0.00    -0.081 Cl
HETATM   32  C   UNL     1     -10.653   1.671 -33.952  1.00  0.00     0.059 A 
BRANCH  27  33
HETATM   33  O   UNL     1     -11.089   4.925 -35.538  1.00  0.00    -0.354 OA
HETATM   34  C   UNL     1     -11.609   6.008 -34.781  1.00  0.00     0.210 C 
ENDBRANCH  27  33
BRANCH  29  35
HETATM   35  O   UNL     1     -14.185   1.207 -34.730  1.00  0.00    -0.354 OA
HETATM   36  C   UNL     1     -15.059   1.370 -33.622  1.00  0.00     0.210 C 
ENDBRANCH  29  35
ENDBRANCH  22  26
ENDBRANCH   1  20
TORSDOF 7
ENDMDL
MODEL 2
REMARK VINA RESULT:      -7.9      3.467      6.502
REMARK  7 active torsions:
REMARK  status: ('A' for Active; 'I' for Inactive)
REMARK    1  A    between atoms: C_2  and  N_3 
REMARK    2  A    between atoms: C_8  and  C_9 
REMARK    3  A    between atoms: C_9  and  N_10 
REMARK       I    between atoms: N_10  and  C_11 
REMARK       I    between atoms: C_11  and  N_12 
REMARK    4  A    between atoms: N_12  and  C_13 
REMARK    5  A    between atoms: C_14  and  O_15 
REMARK    6  A    between atoms: C_18  and  O_19 
REMARK    7  A    between atoms: C_26  and  N_27 
ROOT
HETATM    1  C   UNL     1      -5.810   3.540 -30.175  1.00  0.00     0.118 C 
HETATM    2  C   UNL     1      -5.826   4.711 -29.194  1.00  0.00     0.037 C 
ENDROOT
BRANCH   1   3
HETATM    3  C   UNL     1      -6.463   3.921 -31.507  1.00  0.00     0.006 A 
HETATM    4  C   UNL     1      -7.685   3.288 -32.021  1.00  0.00    -0.031 A 
HETATM    5  C   UNL     1      -8.105   3.843 -33.212  1.00  0.00     0.017 A 
HETATM    6  C   UNL     1      -8.500   2.192 -31.381  1.00  0.00     0.068 C 
HETATM    7  C   UNL     1      -9.307   3.433 -33.994  1.00  0.00     0.281 C 
HETATM    8  S   UNL     1      -7.092   5.077 -33.742  1.00  0.00    -0.074 SA
HETATM    9  N   UNL     1     -10.286   2.640 -33.136  1.00  0.00    -0.067 N 
HETATM   10  H   UNL     1     -10.897   2.133 -33.788  1.00  0.00     0.280 HD
HETATM   11  C   UNL     1      -9.536   1.579 -32.342  1.00  0.00     0.240 C 
HETATM   12  C   UNL     1      -6.031   4.899 -32.410  1.00  0.00     0.089 A 
BRANCH   9  13
HETATM   13  C   UNL     1     -11.181   3.503 -32.272  1.00  0.00     0.231 C 
HETATM   14  C   UNL     1     -12.640   3.274 -32.631  1.00  0.00     0.034 C 
ENDBRANCH   9  13
BRANCH  12  15
HETATM   15  N   UNL     1      -4.882   5.735 -32.413  1.00  0.00    -0.327 N 
HETATM   16  C   UNL     1      -3.715   5.547 -33.152  1.00  0.00     0.097 A 
HETATM   17  C   UNL     1      -2.826   6.571 -32.911  1.00  0.00     0.019 A 
HETATM   18  C   UNL     1      -3.431   7.422 -31.975  1.00  0.00     0.019 A 
HETATM   19  C   UNL     1      -4.664   6.886 -31.675  1.00  0.00     0.097 A 
ENDBRANCH  12  15
ENDBRANCH   1   3
BRANCH   1  20
HETATM   20  N   UNL     1      -4.524   2.907 -30.471  1.00  0.00    -0.334 N 
HETATM   21  C   UNL     1      -4.187   1.909 -31.339  1.00  0.00     0.321 C 
HETATM   22  N   UNL     1      -5.090   0.888 -31.449  1.00  0.00    -0.306 N 
HETATM   23  O   UNL     1      -3.054   1.924 -31.810  1.00  0.00    -0.247 OA
HETATM   24  H   UNL     1      -5.594   0.724 -30.599  1.00  0.00     0.171 HD
HETATM   25  H   UNL     1      -3.750   3.562 -30.445  1.00  0.00     0.165 HD
BRANCH  22  26
HETATM   26  C   UNL     1      -4.871  -0.259 -32.248  1.00  0.00     0.071 A 
HETATM   27  C   UNL     1      -5.422  -0.424 -33.532  1.00  0.00     0.097 A 
HETATM   28  C   UNL     1      -5.111  -1.581 -34.267  1.00  0.00     0.077 A 
HETATM   29  C   UNL     1      -4.298  -2.585 -33.721  1.00  0.00     0.092 A 
HETATM   30  C   UNL     1      -3.801  -2.422 -32.422  1.00  0.00     0.069 A 
HETATM   31 CL   UNL     1      -2.790  -3.612 -31.676  1.00  0.00    -0.081 Cl
HETATM   32  C   UNL     1      -4.100  -1.278 -31.683  1.00  0.00     0.059 A 
BRANCH  27  33
HETATM   33  O   UNL     1      -6.293   0.546 -33.954  1.00  0.00    -0.354 OA
HETATM   34  C   UNL     1      -7.070   0.277 -35.113  1.00  0.00     0.210 C 
ENDBRANCH  27  33
BRANCH  29  35
HETATM   35  O   UNL     1      -3.937  -3.736 -34.371  1.00  0.00    -0.354 OA
HETATM   36  C   UNL     1      -4.872  -4.807 -34.393  1.00  0.00     0.210 C 
ENDBRANCH  29  35
ENDBRANCH  22  26
ENDBRANCH   1  20
TORSDOF 7
ENDMDL
MODEL 3
REMARK VINA RESULT:      -7.7      3.406      7.024
REMARK  7 active torsions:
REMARK  status: ('A' for Active; 'I' for Inactive)
REMARK    1  A    between atoms: C_2  and  N_3 
REMARK    2  A    between atoms: C_8  and  C_9 
REMARK    3  A    between atoms: C_9  and  N_10 
REMARK       I    between atoms: N_10  and  C_11 
REMARK       I    between atoms: C_11  and  N_12 
REMARK    4  A    between atoms: N_12  and  C_13 
REMARK    5  A    between atoms: C_14  and  O_15 
REMARK    6  A    between atoms: C_18  and  O_19 
REMARK    7  A    between atoms: C_26  and  N_27 
ROOT
HETATM    1  C   UNL     1      -7.619   3.464 -33.477  1.00  0.00     0.118 C 
HETATM    2  C   UNL     1      -8.737   4.219 -34.193  1.00  0.00     0.037 C 
ENDROOT
BRANCH   1   3
HETATM    3  C   UNL     1      -6.909   4.358 -32.456  1.00  0.00     0.006 A 
HETATM    4  C   UNL     1      -5.448   4.472 -32.357  1.00  0.00    -0.031 A 
HETATM    5  C   UNL     1      -5.055   5.382 -31.398  1.00  0.00     0.017 A 
HETATM    6  C   UNL     1      -4.405   3.770 -33.191  1.00  0.00     0.068 C 
HETATM    7  C   UNL     1      -3.647   5.734 -31.049  1.00  0.00     0.281 C 
HETATM    8  S   UNL     1      -6.359   6.091 -30.607  1.00  0.00    -0.074 SA
HETATM    9  N   UNL     1      -2.681   5.327 -32.155  1.00  0.00    -0.067 N 
HETATM   10  H   UNL     1      -1.748   5.298 -31.726  1.00  0.00     0.280 HD
HETATM   11  C   UNL     1      -2.985   3.906 -32.610  1.00  0.00     0.240 C 
HETATM   12  C   UNL     1      -7.506   5.185 -31.498  1.00  0.00     0.089 A 
BRANCH   9  13
HETATM   13  C   UNL     1      -2.610   6.314 -33.301  1.00  0.00     0.231 C 
HETATM   14  C   UNL     1      -1.651   5.816 -34.368  1.00  0.00     0.034 C 
ENDBRANCH   9  13
BRANCH  12  15
HETATM   15  N   UNL     1      -8.867   5.381 -31.142  1.00  0.00    -0.327 N 
HETATM   16  C   UNL     1      -9.595   6.565 -31.246  1.00  0.00     0.097 A 
HETATM   17  C   UNL     1     -10.891   6.369 -30.823  1.00  0.00     0.019 A 
HETATM   18  C   UNL     1     -10.986   5.032 -30.414  1.00  0.00     0.019 A 
HETATM   19  C   UNL     1      -9.747   4.461 -30.598  1.00  0.00     0.097 A 
ENDBRANCH  12  15
ENDBRANCH   1   3
BRANCH   1  20
HETATM   20  N   UNL     1      -7.956   2.203 -32.812  1.00  0.00    -0.334 N 
HETATM   21  C   UNL     1      -7.276   1.023 -32.715  1.00  0.00     0.321 C 
HETATM   22  N   UNL     1      -6.602   0.633 -33.839  1.00  0.00    -0.306 N 
HETATM   23  O   UNL     1      -7.460   0.343 -31.712  1.00  0.00    -0.247 OA
HETATM   24  H   UNL     1      -7.046   0.939 -34.683  1.00  0.00     0.171 HD
HETATM   25  H   UNL     1      -8.451   2.342 -31.938  1.00  0.00     0.165 HD
BRANCH  22  26
HETATM   26  C   UNL     1      -5.904  -0.593 -33.938  1.00  0.00     0.071 A 
HETATM   27  C   UNL     1      -4.589  -0.775 -33.473  1.00  0.00     0.097 A 
HETATM   28  C   UNL     1      -3.994  -2.044 -33.577  1.00  0.00     0.077 A 
HETATM   29  C   UNL     1      -4.677  -3.114 -34.175  1.00  0.00     0.092 A 
HETATM   30  C   UNL     1      -5.967  -2.897 -34.676  1.00  0.00     0.069 A 
HETATM   31 CL   UNL     1      -6.878  -4.163 -35.427  1.00  0.00    -0.081 Cl
HETATM   32  C   UNL     1      -6.569  -1.643 -34.578  1.00  0.00     0.059 A 
BRANCH  27  33
HETATM   33  O   UNL     1      -3.947   0.340 -33.001  1.00  0.00    -0.354 OA
HETATM   34  C   UNL     1      -3.332   0.256 -31.723  1.00  0.00     0.210 C 
ENDBRANCH  27  33
BRANCH  29  35
HETATM   35  O   UNL     1      -4.178  -4.382 -34.307  1.00  0.00    -0.354 OA
HETATM   36  C   UNL     1      -3.351  -4.882 -33.264  1.00  0.00     0.210 C 
ENDBRANCH  29  35
ENDBRANCH  22  26
ENDBRANCH   1  20
TORSDOF 7
ENDMDL
MODEL 4
REMARK VINA RESULT:      -7.6      3.584      7.554
REMARK  7 active torsions:
REMARK  status: ('A' for Active; 'I' for Inactive)
REMARK    1  A    between atoms: C_2  and  N_3 
REMARK    2  A    between atoms: C_8  and  C_9 
REMARK    3  A    between atoms: C_9  and  N_10 
REMARK       I    between atoms: N_10  and  C_11 
REMARK       I    between atoms: C_11  and  N_12 
REMARK    4  A    between atoms: N_12  and  C_13 
REMARK    5  A    between atoms: C_14  and  O_15 
REMARK    6  A    between atoms: C_18  and  O_19 
REMARK    7  A    between atoms: C_26  and  N_27 
ROOT
HETATM    1  C   UNL     1      -9.074   2.307 -32.340  1.00  0.00     0.118 C 
HETATM    2  C   UNL     1      -8.691   2.266 -30.862  1.00  0.00     0.037 C 
ENDROOT
BRANCH   1   3
HETATM    3  C   UNL     1     -10.006   3.484 -32.642  1.00  0.00     0.006 A 
HETATM    4  C   UNL     1     -11.394   3.324 -33.093  1.00  0.00    -0.031 A 
HETATM    5  C   UNL     1     -12.042   4.532 -33.243  1.00  0.00     0.017 A 
HETATM    6  C   UNL     1     -12.144   2.039 -33.343  1.00  0.00     0.068 C 
HETATM    7  C   UNL     1     -13.456   4.720 -33.684  1.00  0.00     0.281 C 
HETATM    8  S   UNL     1     -11.055   5.844 -32.877  1.00  0.00    -0.074 SA
HETATM    9  N   UNL     1     -14.262   3.436 -33.529  1.00  0.00    -0.067 N 
HETATM   10  H   UNL     1     -15.089   3.540 -34.130  1.00  0.00     0.280 HD
HETATM   11  C   UNL     1     -13.474   2.259 -34.089  1.00  0.00     0.240 C 
HETATM   12  C   UNL     1      -9.707   4.848 -32.531  1.00  0.00     0.089 A 
BRANCH   9  13
HETATM   13  C   UNL     1     -14.767   3.195 -32.122  1.00  0.00     0.231 C 
HETATM   14  C   UNL     1     -16.032   2.356 -32.152  1.00  0.00     0.034 C 
ENDBRANCH   9  13
BRANCH  12  15
HETATM   15  N   UNL     1      -8.501   5.523 -32.204  1.00  0.00    -0.327 N 
HETATM   16  C   UNL     1      -8.117   5.985 -30.947  1.00  0.00     0.097 A 
HETATM   17  C   UNL     1      -6.875   6.573 -31.011  1.00  0.00     0.019 A 
HETATM   18  C   UNL     1      -6.463   6.507 -32.350  1.00  0.00     0.019 A 
HETATM   19  C   UNL     1      -7.470   5.886 -33.054  1.00  0.00     0.097 A 
ENDBRANCH  12  15
ENDBRANCH   1   3
BRANCH   1  20
HETATM   20  N   UNL     1      -7.995   2.324 -33.331  1.00  0.00    -0.334 N 
HETATM   21  C   UNL     1      -7.245   1.317 -33.867  1.00  0.00     0.321 C 
HETATM   22  N   UNL     1      -6.883   0.321 -33.002  1.00  0.00    -0.306 N 
HETATM   23  O   UNL     1      -6.824   1.469 -35.009  1.00  0.00    -0.247 OA
HETATM   24  H   UNL     1      -6.765   0.648 -32.063  1.00  0.00     0.171 HD
HETATM   25  H   UNL     1      -8.143   3.015 -34.058  1.00  0.00     0.165 HD
BRANCH  22  26
HETATM   26  C   UNL     1      -6.050  -0.761 -33.371  1.00  0.00     0.071 A 
HETATM   27  C   UNL     1      -4.671  -0.805 -33.097  1.00  0.00     0.097 A 
HETATM   28  C   UNL     1      -3.935  -1.944 -33.465  1.00  0.00     0.077 A 
HETATM   29  C   UNL     1      -4.547  -3.012 -34.137  1.00  0.00     0.092 A 
HETATM   30  C   UNL     1      -5.911  -2.926 -34.444  1.00  0.00     0.069 A 
HETATM   31 CL   UNL     1      -6.742  -4.199 -35.270  1.00  0.00    -0.081 Cl
HETATM   32  C   UNL     1      -6.653  -1.802 -34.083  1.00  0.00     0.059 A 
BRANCH  27  33
HETATM   33  O   UNL     1      -4.123   0.319 -32.536  1.00  0.00    -0.354 OA
HETATM   34  C   UNL     1      -3.348   0.157 -31.356  1.00  0.00     0.210 C 
ENDBRANCH  27  33
BRANCH  29  35
HETATM   35  O   UNL     1      -3.908  -4.161 -34.521  1.00  0.00    -0.354 OA
HETATM   36  C   UNL     1      -3.386  -5.003 -33.502  1.00  0.00     0.210 C 
ENDBRANCH  29  35
ENDBRANCH  22  26
ENDBRANCH   1  20
TORSDOF 7
ENDMDL
MODEL 5
REMARK VINA RESULT:      -7.5      3.506      7.552
REMARK  7 active torsions:
REMARK  status: ('A' for Active; 'I' for Inactive)
REMARK    1  A    between atoms: C_2  and  N_3 
REMARK    2  A    between atoms: C_8  and  C_9 
REMARK    3  A    between atoms: C_9  and  N_10 
REMARK       I    between atoms: N_10  and  C_11 
REMARK       I    between atoms: C_11  and  N_12 
REMARK    4  A    between atoms: N_12  and  C_13 
REMARK    5  A    between atoms: C_14  and  O_15 
REMARK    6  A    between atoms: C_18  and  O_19 
REMARK    7  A    between atoms: C_26  and  N_27 
ROOT
HETATM    1  C   UNL     1      -9.730   1.683 -33.382  1.00  0.00     0.118 C 
HETATM    2  C   UNL     1     -10.104   0.326 -32.790  1.00  0.00     0.037 C 
ENDROOT
BRANCH   1   3
HETATM    3  C   UNL     1      -9.542   2.736 -32.285  1.00  0.00     0.006 A 
HETATM    4  C   UNL     1      -8.422   2.724 -31.335  1.00  0.00    -0.031 A 
HETATM    5  C   UNL     1      -8.444   3.808 -30.482  1.00  0.00     0.017 A 
HETATM    6  C   UNL     1      -7.292   1.728 -31.246  1.00  0.00     0.068 C 
HETATM    7  C   UNL     1      -7.453   4.095 -29.403  1.00  0.00     0.281 C 
HETATM    8  S   UNL     1      -9.753   4.826 -30.764  1.00  0.00    -0.074 SA
HETATM    9  N   UNL     1      -6.159   3.319 -29.616  1.00  0.00    -0.067 N 
HETATM   10  H   UNL     1      -5.676   3.309 -28.710  1.00  0.00     0.280 HD
HETATM   11  C   UNL     1      -6.474   1.867 -29.948  1.00  0.00     0.240 C 
HETATM   12  C   UNL     1     -10.362   3.840 -32.024  1.00  0.00     0.089 A 
BRANCH   9  13
HETATM   13  C   UNL     1      -5.215   3.962 -30.611  1.00  0.00     0.231 C 
HETATM   14  C   UNL     1      -5.103   5.453 -30.344  1.00  0.00     0.034 C 
ENDBRANCH   9  13
BRANCH  12  15
HETATM   15  N   UNL     1     -11.589   4.258 -32.605  1.00  0.00    -0.327 N 
HETATM   16  C   UNL     1     -11.772   4.783 -33.883  1.00  0.00     0.097 A 
HETATM   17  C   UNL     1     -13.103   5.057 -34.102  1.00  0.00     0.019 A 
HETATM   18  C   UNL     1     -13.786   4.722 -32.925  1.00  0.00     0.019 A 
HETATM   19  C   UNL     1     -12.847   4.260 -32.028  1.00  0.00     0.097 A 
ENDBRANCH  12  15
ENDBRANCH   1   3
BRANCH   1  20
HETATM   20  N   UNL     1      -8.569   1.750 -34.272  1.00  0.00    -0.334 N 
HETATM   21  C   UNL     1      -7.662   0.801 -34.647  1.00  0.00     0.321 C 
HETATM   22  N   UNL     1      -7.277  -0.072 -33.666  1.00  0.00    -0.306 N 
HETATM   23  O   UNL     1      -7.151   0.910 -35.756  1.00  0.00    -0.247 OA
HETATM   24  H   UNL     1      -7.288   0.341 -32.754  1.00  0.00     0.171 HD
HETATM   25  H   UNL     1      -8.721   2.358 -35.069  1.00  0.00     0.165 HD
BRANCH  22  26
HETATM   26  C   UNL     1      -6.296  -1.072 -33.861  1.00  0.00     0.071 A 
HETATM   27  C   UNL     1      -4.952  -0.924 -33.475  1.00  0.00     0.097 A 
HETATM   28  C   UNL     1      -4.060  -1.992 -33.671  1.00  0.00     0.077 A 
HETATM   29  C   UNL     1      -4.483  -3.181 -34.282  1.00  0.00     0.092 A 
HETATM   30  C   UNL     1      -5.815  -3.289 -34.704  1.00  0.00     0.069 A 
HETATM   31 CL   UNL     1      -6.416  -4.721 -35.467  1.00  0.00    -0.081 Cl
HETATM   32  C   UNL     1      -6.710  -2.237 -34.514  1.00  0.00     0.059 A 
BRANCH  27  33
HETATM   33  O   UNL     1      -4.588   0.303 -32.984  1.00  0.00    -0.354 OA
HETATM   34  C   UNL     1      -3.548   0.345 -32.015  1.00  0.00     0.210 C 
ENDBRANCH  27  33
BRANCH  29  35
HETATM   35  O   UNL     1      -3.685  -4.273 -34.502  1.00  0.00    -0.354 OA
HETATM   36  C   UNL     1      -3.470  -5.167 -33.417  1.00  0.00     0.210 C 
ENDBRANCH  29  35
ENDBRANCH  22  26
ENDBRANCH   1  20
TORSDOF 7
ENDMDL
MODEL 6
REMARK VINA RESULT:      -7.5      1.979      2.429
REMARK  7 active torsions:
REMARK  status: ('A' for Active; 'I' for Inactive)
REMARK    1  A    between atoms: C_2  and  N_3 
REMARK    2  A    between atoms: C_8  and  C_9 
REMARK    3  A    between atoms: C_9  and  N_10 
REMARK       I    between atoms: N_10  and  C_11 
REMARK       I    between atoms: C_11  and  N_12 
REMARK    4  A    between atoms: N_12  and  C_13 
REMARK    5  A    between atoms: C_14  and  O_15 
REMARK    6  A    between atoms: C_18  and  O_19 
REMARK    7  A    between atoms: C_26  and  N_27 
ROOT
HETATM    1  C   UNL     1      -5.348   4.465 -34.277  1.00  0.00     0.118 C 
HETATM    2  C   UNL     1      -4.140   5.014 -35.033  1.00  0.00     0.037 C 
ENDROOT
BRANCH   1   3
HETATM    3  C   UNL     1      -4.922   3.451 -33.210  1.00  0.00     0.006 A 
HETATM    4  C   UNL     1      -5.522   2.117 -33.076  1.00  0.00    -0.031 A 
HETATM    5  C   UNL     1      -4.930   1.372 -32.077  1.00  0.00     0.017 A 
HETATM    6  C   UNL     1      -6.620   1.506 -33.911  1.00  0.00     0.068 C 
HETATM    7  C   UNL     1      -5.300  -0.020 -31.685  1.00  0.00     0.281 C 
HETATM    8  S   UNL     1      -3.700   2.208 -31.290  1.00  0.00    -0.074 SA
HETATM    9  N   UNL     1      -6.097  -0.714 -32.783  1.00  0.00    -0.067 N 
HETATM   10  H   UNL     1      -6.577  -1.504 -32.336  1.00  0.00     0.280 HD
HETATM   11  C   UNL     1      -7.191   0.215 -33.295  1.00  0.00     0.240 C 
HETATM   12  C   UNL     1      -3.929   3.615 -32.237  1.00  0.00     0.089 A 
BRANCH   9  13
HETATM   13  C   UNL     1      -5.241  -1.288 -33.893  1.00  0.00     0.231 C 
HETATM   14  C   UNL     1      -6.069  -2.201 -34.780  1.00  0.00     0.034 C 
ENDBRANCH   9  13
BRANCH  12  15
HETATM   15  N   UNL     1      -3.114   4.729 -31.904  1.00  0.00    -0.327 N 
HETATM   16  C   UNL     1      -1.748   4.866 -32.143  1.00  0.00     0.097 A 
HETATM   17  C   UNL     1      -1.304   6.090 -31.698  1.00  0.00     0.019 A 
HETATM   18  C   UNL     1      -2.410   6.744 -31.138  1.00  0.00     0.019 A 
HETATM   19  C   UNL     1      -3.487   5.895 -31.256  1.00  0.00     0.097 A 
ENDBRANCH  12  15
ENDBRANCH   1   3
BRANCH   1  20
HETATM   20  N   UNL     1      -6.260   5.422 -33.647  1.00  0.00    -0.334 N 
HETATM   21  C   UNL     1      -7.543   5.287 -33.199  1.00  0.00     0.321 C 
HETATM   22  N   UNL     1      -8.362   4.509 -33.970  1.00  0.00    -0.306 N 
HETATM   23  O   UNL     1      -7.893   5.993 -32.260  1.00  0.00    -0.247 OA
HETATM   24  H   UNL     1      -8.124   4.543 -34.943  1.00  0.00     0.171 HD
HETATM   25  H   UNL     1      -5.784   6.062 -33.020  1.00  0.00     0.165 HD
BRANCH  22  26
HETATM   26  C   UNL     1      -9.736   4.319 -33.694  1.00  0.00     0.071 A 
HETATM   27  C   UNL     1     -10.210   3.483 -32.666  1.00  0.00     0.097 A 
HETATM   28  C   UNL     1     -11.594   3.392 -32.441  1.00  0.00     0.077 A 
HETATM   29  C   UNL     1     -12.504   4.086 -33.251  1.00  0.00     0.092 A 
HETATM   30  C   UNL     1     -12.012   4.873 -34.300  1.00  0.00     0.069 A 
HETATM   31 CL   UNL     1     -13.067   5.762 -35.345  1.00  0.00    -0.081 Cl
HETATM   32  C   UNL     1     -10.641   4.974 -34.533  1.00  0.00     0.059 A 
BRANCH  27  33
HETATM   33  O   UNL     1      -9.268   2.753 -31.988  1.00  0.00    -0.354 OA
HETATM   34  C   UNL     1      -9.107   3.013 -30.600  1.00  0.00     0.210 C 
ENDBRANCH  27  33
BRANCH  29  35
HETATM   35  O   UNL     1     -13.864   4.061 -33.094  1.00  0.00    -0.354 OA
HETATM   36  C   UNL     1     -14.409   3.133 -32.166  1.00  0.00     0.210 C 
ENDBRANCH  29  35
ENDBRANCH  22  26
ENDBRANCH   1  20
TORSDOF 7
ENDMDL
MODEL 7
REMARK VINA RESULT:      -7.2      3.898      7.358
REMARK  7 active torsions:
REMARK  status: ('A' for Active; 'I' for Inactive)
REMARK    1  A    between atoms: C_2  and  N_3 
REMARK    2  A    between atoms: C_8  and  C_9 
REMARK    3  A    between atoms: C_9  and  N_10 
REMARK       I    between atoms: N_10  and  C_11 
REMARK       I    between atoms: C_11  and  N_12 
REMARK    4  A    between atoms: N_12  and  C_13 
REMARK    5  A    between atoms: C_14  and  O_15 
REMARK    6  A    between atoms: C_18  and  O_19 
REMARK    7  A    between atoms: C_26  and  N_27 
ROOT
HETATM    1  C   UNL     1      -8.511   5.760 -32.924  1.00  0.00     0.118 C 
HETATM    2  C   UNL     1      -9.895   6.097 -33.473  1.00  0.00     0.037 C 
ENDROOT
BRANCH   1   3
HETATM    3  C   UNL     1      -8.547   4.495 -32.061  1.00  0.00     0.006 A 
HETATM    4  C   UNL     1      -8.876   3.164 -32.587  1.00  0.00    -0.031 A 
HETATM    5  C   UNL     1      -8.787   2.180 -31.625  1.00  0.00     0.017 A 
HETATM    6  C   UNL     1      -9.228   2.790 -34.006  1.00  0.00     0.068 C 
HETATM    7  C   UNL     1      -9.053   0.726 -31.830  1.00  0.00     0.281 C 
HETATM    8  S   UNL     1      -8.340   2.787 -30.121  1.00  0.00    -0.074 SA
HETATM    9  N   UNL     1      -9.001   0.355 -33.307  1.00  0.00    -0.067 N 
HETATM   10  H   UNL     1      -9.495  -0.542 -33.397  1.00  0.00     0.280 HD
HETATM   11  C   UNL     1      -9.798   1.364 -34.124  1.00  0.00     0.240 C 
HETATM   12  C   UNL     1      -8.276   4.399 -30.691  1.00  0.00     0.089 A 
BRANCH   9  13
HETATM   13  C   UNL     1      -7.599   0.140 -33.836  1.00  0.00     0.231 C 
HETATM   14  C   UNL     1      -7.628  -0.068 -35.341  1.00  0.00     0.034 C 
ENDBRANCH   9  13
BRANCH  12  15
HETATM   15  N   UNL     1      -7.979   5.392 -29.719  1.00  0.00    -0.327 N 
HETATM   16  C   UNL     1      -8.878   6.281 -29.132  1.00  0.00     0.097 A 
HETATM   17  C   UNL     1      -8.230   7.085 -28.221  1.00  0.00     0.019 A 
HETATM   18  C   UNL     1      -6.878   6.717 -28.244  1.00  0.00     0.019 A 
HETATM   19  C   UNL     1      -6.747   5.706 -29.171  1.00  0.00     0.097 A 
ENDBRANCH  12  15
ENDBRANCH   1   3
BRANCH   1  20
HETATM   20  N   UNL     1      -7.407   5.621 -33.876  1.00  0.00    -0.334 N 
HETATM   21  C   UNL     1      -6.113   5.220 -33.706  1.00  0.00     0.321 C 
HETATM   22  N   UNL     1      -5.505   5.644 -32.557  1.00  0.00    -0.306 N 
HETATM   23  O   UNL     1      -5.561   4.669 -34.653  1.00  0.00    -0.247 OA
HETATM   24  H   UNL     1      -5.846   6.533 -32.245  1.00  0.00     0.171 HD
HETATM   25  H   UNL     1      -7.713   5.288 -34.784  1.00  0.00     0.165 HD
BRANCH  22  26
HETATM   26  C   UNL     1      -4.149   5.380 -32.253  1.00  0.00     0.071 A 
HETATM   27  C   UNL     1      -3.717   4.221 -31.584  1.00  0.00     0.097 A 
HETATM   28  C   UNL     1      -2.343   4.027 -31.366  1.00  0.00     0.077 A 
HETATM   29  C   UNL     1      -1.406   4.991 -31.767  1.00  0.00     0.092 A 
HETATM   30  C   UNL     1      -1.863   6.161 -32.388  1.00  0.00     0.069 A 
HETATM   31 CL   UNL     1      -0.774   7.399 -32.913  1.00  0.00    -0.081 Cl
HETATM   32  C   UNL     1      -3.224   6.365 -32.611  1.00  0.00     0.059 A 
BRANCH  27  33
HETATM   33  O   UNL     1      -4.697   3.377 -31.127  1.00  0.00    -0.354 OA
HETATM   34  C   UNL     1      -4.912   2.167 -31.841  1.00  0.00     0.210 C 
ENDBRANCH  27  33
BRANCH  29  35
HETATM   35  O   UNL     1      -0.051   4.877 -31.603  1.00  0.00    -0.354 OA
HETATM   36  C   UNL     1       0.489   5.166 -30.321  1.00  0.00     0.210 C 
ENDBRANCH  29  35
ENDBRANCH  22  26
ENDBRANCH   1  20
TORSDOF 7
ENDMDL
MODEL 8
REMARK VINA RESULT:      -7.0      3.581      7.998
REMARK  7 active torsions:
REMARK  status: ('A' for Active; 'I' for Inactive)
REMARK    1  A    between atoms: C_2  and  N_3 
REMARK    2  A    between atoms: C_8  and  C_9 
REMARK    3  A    between atoms: C_9  and  N_10 
REMARK       I    between atoms: N_10  and  C_11 
REMARK       I    between atoms: C_11  and  N_12 
REMARK    4  A    between atoms: N_12  and  C_13 
REMARK    5  A    between atoms: C_14  and  O_15 
REMARK    6  A    between atoms: C_18  and  O_19 
REMARK    7  A    between atoms: C_26  and  N_27 
ROOT
HETATM    1  C   UNL     1      -7.587   2.600 -31.367  1.00  0.00     0.118 C 
HETATM    2  C   UNL     1      -8.974   2.386 -30.765  1.00  0.00     0.037 C 
ENDROOT
BRANCH   1   3
HETATM    3  C   UNL     1      -7.250   1.510 -32.390  1.00  0.00     0.006 A 
HETATM    4  C   UNL     1      -5.908   0.933 -32.547  1.00  0.00    -0.031 A 
HETATM    5  C   UNL     1      -5.873  -0.069 -33.494  1.00  0.00     0.017 A 
HETATM    6  C   UNL     1      -4.656   1.278 -31.779  1.00  0.00     0.068 C 
HETATM    7  C   UNL     1      -4.671  -0.858 -33.892  1.00  0.00     0.281 C 
HETATM    8  S   UNL     1      -7.373  -0.336 -34.207  1.00  0.00    -0.074 SA
HETATM    9  N   UNL     1      -3.571  -0.764 -32.840  1.00  0.00    -0.067 N 
HETATM   10  H   UNL     1      -2.700  -1.041 -33.308  1.00  0.00     0.280 HD
HETATM   11  C   UNL     1      -3.384   0.687 -32.415  1.00  0.00     0.240 C 
HETATM   12  C   UNL     1      -8.127   0.902 -33.296  1.00  0.00     0.089 A 
BRANCH   9  13
HETATM   13  C   UNL     1      -3.761  -1.704 -31.669  1.00  0.00     0.231 C 
HETATM   14  C   UNL     1      -3.089  -3.037 -31.948  1.00  0.00     0.034 C 
ENDBRANCH   9  13
BRANCH  12  15
HETATM   15  N   UNL     1      -9.495   1.146 -33.588  1.00  0.00    -0.327 N 
HETATM   16  C   UNL     1     -10.019   2.227 -34.295  1.00  0.00     0.097 A 
HETATM   17  C   UNL     1     -11.387   2.116 -34.395  1.00  0.00     0.019 A 
HETATM   18  C   UNL     1     -11.751   0.946 -33.714  1.00  0.00     0.019 A 
HETATM   19  C   UNL     1     -10.593   0.388 -33.219  1.00  0.00     0.097 A 
ENDBRANCH  12  15
ENDBRANCH   1   3
BRANCH   1  20
HETATM   20  N   UNL     1      -7.295   3.897 -31.981  1.00  0.00    -0.334 N 
HETATM   21  C   UNL     1      -6.159   4.653 -31.997  1.00  0.00     0.321 C 
HETATM   22  N   UNL     1      -5.441   4.671 -30.833  1.00  0.00    -0.306 N 
HETATM   23  O   UNL     1      -5.970   5.373 -32.972  1.00  0.00    -0.247 OA
HETATM   24  H   UNL     1      -6.018   4.571 -30.021  1.00  0.00     0.171 HD
HETATM   25  H   UNL     1      -7.755   4.017 -32.877  1.00  0.00     0.165 HD
BRANCH  22  26
HETATM   26  C   UNL     1      -4.278   5.455 -30.651  1.00  0.00     0.071 A 
HETATM   27  C   UNL     1      -4.236   6.599 -29.834  1.00  0.00     0.097 A 
HETATM   28  C   UNL     1      -3.021   7.289 -29.682  1.00  0.00     0.077 A 
HETATM   29  C   UNL     1      -1.868   6.877 -30.365  1.00  0.00     0.092 A 
HETATM   30  C   UNL     1      -1.945   5.764 -31.213  1.00  0.00     0.069 A 
HETATM   31 CL   UNL     1      -0.569   5.192 -32.092  1.00  0.00    -0.081 Cl
HETATM   32  C   UNL     1      -3.144   5.070 -31.371  1.00  0.00     0.059 A 
BRANCH  27  33
HETATM   33  O   UNL     1      -5.426   7.003 -29.285  1.00  0.00    -0.354 OA
HETATM   34  C   UNL     1      -5.506   7.082 -27.868  1.00  0.00     0.210 C 
ENDBRANCH  27  33
BRANCH  29  35
HETATM   35  O   UNL     1      -0.644   7.484 -30.266  1.00  0.00    -0.354 OA
HETATM   36  C   UNL     1       0.139   7.214 -29.111  1.00  0.00     0.210 C 
ENDBRANCH  29  35
ENDBRANCH  22  26
ENDBRANCH   1  20
TORSDOF 7
ENDMDL
MODEL 9
REMARK VINA RESULT:      -7.0      3.804      8.070
REMARK  7 active torsions:
REMARK  status: ('A' for Active; 'I' for Inactive)
REMARK    1  A    between atoms: C_2  and  N_3 
REMARK    2  A    between atoms: C_8  and  C_9 
REMARK    3  A    between atoms: C_9  and  N_10 
REMARK       I    between atoms: N_10  and  C_11 
REMARK       I    between atoms: C_11  and  N_12 
REMARK    4  A    between atoms: N_12  and  C_13 
REMARK    5  A    between atoms: C_14  and  O_15 
REMARK    6  A    between atoms: C_18  and  O_19 
REMARK    7  A    between atoms: C_26  and  N_27 
ROOT
HETATM    1  C   UNL     1      -7.679   3.332 -32.373  1.00  0.00     0.118 C 
HETATM    2  C   UNL     1      -7.835   3.675 -33.853  1.00  0.00     0.037 C 
ENDROOT
BRANCH   1   3
HETATM    3  C   UNL     1      -8.492   4.286 -31.492  1.00  0.00     0.006 A 
HETATM    4  C   UNL     1      -7.945   4.957 -30.306  1.00  0.00    -0.031 A 
HETATM    5  C   UNL     1      -8.855   5.808 -29.715  1.00  0.00     0.017 A 
HETATM    6  C   UNL     1      -6.550   4.848 -29.740  1.00  0.00     0.068 C 
HETATM    7  C   UNL     1      -8.617   6.639 -28.498  1.00  0.00     0.281 C 
HETATM    8  S   UNL     1     -10.336   5.825 -30.514  1.00  0.00    -0.074 SA
HETATM    9  N   UNL     1      -7.128   6.804 -28.220  1.00  0.00    -0.067 N 
HETATM   10  H   UNL     1      -7.048   7.090 -27.236  1.00  0.00     0.280 HD
HETATM   11  C   UNL     1      -6.428   5.456 -28.330  1.00  0.00     0.240 C 
HETATM   12  C   UNL     1      -9.827   4.669 -31.669  1.00  0.00     0.089 A 
BRANCH   9  13
HETATM   13  C   UNL     1      -6.466   7.884 -29.048  1.00  0.00     0.231 C 
HETATM   14  C   UNL     1      -7.314   9.143 -29.050  1.00  0.00     0.034 C 
ENDBRANCH   9  13
BRANCH  12  15
HETATM   15  N   UNL     1     -10.806   4.258 -32.612  1.00  0.00    -0.327 N 
HETATM   16  C   UNL     1     -11.377   5.038 -33.616  1.00  0.00     0.097 A 
HETATM   17  C   UNL     1     -12.276   4.294 -34.347  1.00  0.00     0.019 A 
HETATM   18  C   UNL     1     -12.297   3.011 -33.781  1.00  0.00     0.019 A 
HETATM   19  C   UNL     1     -11.416   3.020 -32.722  1.00  0.00     0.097 A 
ENDBRANCH  12  15
ENDBRANCH   1   3
BRANCH   1  20
HETATM   20  N   UNL     1      -7.981   1.963 -31.948  1.00  0.00    -0.334 N 
HETATM   21  C   UNL     1      -7.261   0.807 -32.047  1.00  0.00     0.321 C 
HETATM   22  N   UNL     1      -6.556   0.645 -33.207  1.00  0.00    -0.306 N 
HETATM   23  O   UNL     1      -7.437  -0.046 -31.183  1.00  0.00    -0.247 OA
HETATM   24  H   UNL     1      -6.998   1.080 -33.993  1.00  0.00     0.171 HD
HETATM   25  H   UNL     1      -8.495   1.929 -31.074  1.00  0.00     0.165 HD
BRANCH  22  26
HETATM   26  C   UNL     1      -5.813  -0.521 -33.506  1.00  0.00     0.071 A 
HETATM   27  C   UNL     1      -4.459  -0.685 -33.163  1.00  0.00     0.097 A 
HETATM   28  C   UNL     1      -3.817  -1.899 -33.465  1.00  0.00     0.077 A 
HETATM   29  C   UNL     1      -4.496  -2.925 -34.137  1.00  0.00     0.092 A 
HETATM   30  C   UNL     1      -5.830  -2.722 -34.513  1.00  0.00     0.069 A 
HETATM   31 CL   UNL     1      -6.738  -3.937 -35.344  1.00  0.00    -0.081 Cl
HETATM   32  C   UNL     1      -6.478  -1.523 -34.219  1.00  0.00     0.059 A 
BRANCH  27  33
HETATM   33  O   UNL     1      -3.832   0.400 -32.607  1.00  0.00    -0.354 OA
HETATM   34  C   UNL     1      -3.392   0.288 -31.260  1.00  0.00     0.210 C 
ENDBRANCH  27  33
BRANCH  29  35
HETATM   35  O   UNL     1      -3.951  -4.140 -34.459  1.00  0.00    -0.354 OA
HETATM   36  C   UNL     1      -3.398  -4.920 -33.407  1.00  0.00     0.210 C 
ENDBRANCH  29  35
ENDBRANCH  22  26
ENDBRANCH   1  20
TORSDOF 7
ENDMDL
MODEL 10
REMARK VINA RESULT:      -6.9      1.847      2.578
REMARK  7 active torsions:
REMARK  status: ('A' for Active; 'I' for Inactive)
REMARK    1  A    between atoms: C_2  and  N_3 
REMARK    2  A    between atoms: C_8  and  C_9 
REMARK    3  A    between atoms: C_9  and  N_10 
REMARK       I    between atoms: N_10  and  C_11 
REMARK       I    between atoms: C_11  and  N_12 
REMARK    4  A    between atoms: N_12  and  C_13 
REMARK    5  A    between atoms: C_14  and  O_15 
REMARK    6  A    between atoms: C_18  and  O_19 
REMARK    7  A    between atoms: C_26  and  N_27 
ROOT
HETATM    1  C   UNL     1      -5.510   4.233 -33.756  1.00  0.00     0.118 C 
HETATM    2  C   UNL     1      -4.169   4.929 -33.980  1.00  0.00     0.037 C 
ENDROOT
BRANCH   1   3
HETATM    3  C   UNL     1      -5.524   3.468 -32.429  1.00  0.00     0.006 A 
HETATM    4  C   UNL     1      -5.569   2.003 -32.338  1.00  0.00    -0.031 A 
HETATM    5  C   UNL     1      -5.517   1.554 -31.035  1.00  0.00     0.017 A 
HETATM    6  C   UNL     1      -5.610   1.006 -33.470  1.00  0.00     0.068 C 
HETATM    7  C   UNL     1      -5.540   0.127 -30.598  1.00  0.00     0.281 C 
HETATM    8  S   UNL     1      -5.431   2.812 -29.922  1.00  0.00    -0.074 SA
HETATM    9  N   UNL     1      -5.178  -0.812 -31.743  1.00  0.00    -0.067 N 
HETATM   10  H   UNL     1      -5.520  -1.742 -31.473  1.00  0.00     0.280 HD
HETATM   11  C   UNL     1      -5.949  -0.421 -32.997  1.00  0.00     0.240 C 
HETATM   12  C   UNL     1      -5.489   4.013 -31.140  1.00  0.00     0.089 A 
BRANCH   9  13
HETATM   13  C   UNL     1      -3.688  -0.942 -31.980  1.00  0.00     0.231 C 
HETATM   14  C   UNL     1      -3.296  -2.406 -32.083  1.00  0.00     0.034 C 
ENDBRANCH   9  13
BRANCH  12  15
HETATM   15  N   UNL     1      -5.507   5.359 -30.687  1.00  0.00    -0.327 N 
HETATM   16  C   UNL     1      -6.632   6.116 -30.363  1.00  0.00     0.097 A 
HETATM   17  C   UNL     1      -6.259   7.373 -29.944  1.00  0.00     0.019 A 
HETATM   18  C   UNL     1      -4.861   7.430 -30.026  1.00  0.00     0.019 A 
HETATM   19  C   UNL     1      -4.431   6.209 -30.496  1.00  0.00     0.097 A 
ENDBRANCH  12  15
ENDBRANCH   1   3
BRANCH   1  20
HETATM   20  N   UNL     1      -6.726   5.045 -33.819  1.00  0.00    -0.334 N 
HETATM   21  C   UNL     1      -8.046   4.703 -33.736  1.00  0.00     0.321 C 
HETATM   22  N   UNL     1      -8.396   3.535 -34.356  1.00  0.00    -0.306 N 
HETATM   23  O   UNL     1      -8.820   5.534 -33.273  1.00  0.00    -0.247 OA
HETATM   24  H   UNL     1      -7.831   3.338 -35.159  1.00  0.00     0.171 HD
HETATM   25  H   UNL     1      -6.617   5.949 -33.372  1.00  0.00     0.165 HD
BRANCH  22  26
HETATM   26  C   UNL     1      -9.728   3.066 -34.429  1.00  0.00     0.071 A 
HETATM   27  C   UNL     1     -10.151   1.847 -33.869  1.00  0.00     0.097 A 
HETATM   28  C   UNL     1     -11.507   1.486 -33.956  1.00  0.00     0.077 A 
HETATM   29  C   UNL     1     -12.428   2.302 -34.628  1.00  0.00     0.092 A 
HETATM   30  C   UNL     1     -11.976   3.488 -35.220  1.00  0.00     0.069 A 
HETATM   31 CL   UNL     1     -13.047   4.551 -36.067  1.00  0.00    -0.081 Cl
HETATM   32  C   UNL     1     -10.634   3.858 -35.140  1.00  0.00     0.059 A 
BRANCH  27  33
HETATM   33  O   UNL     1      -9.176   1.052 -33.325  1.00  0.00    -0.354 OA
HETATM   34  C   UNL     1      -9.151   0.913 -31.910  1.00  0.00     0.210 C 
ENDBRANCH  27  33
BRANCH  29  35
HETATM   35  O   UNL     1     -13.766   2.032 -34.750  1.00  0.00    -0.354 OA
HETATM   36  C   UNL     1     -14.227   0.757 -34.323  1.00  0.00     0.210 C 
ENDBRANCH  29  35
ENDBRANCH  22  26
ENDBRANCH   1  20
TORSDOF 7
ENDMDL
