MODEL 1
REMARK VINA RESULT:      -9.2      0.000      0.000
REMARK  4 active torsions:
REMARK  status: ('A' for Active; 'I' for Inactive)
REMARK    1  A    between atoms: C_6  and  C_7 
REMARK    2  A    between atoms: C_7  and  C_8 
REMARK       I    between atoms: C_8  and  N_9 
REMARK    3  A    between atoms: N_9  and  C_10 
REMARK    4  A    between atoms: C_12  and  C_13 
ROOT
HETATM    1  C   UNL     1      -9.829   0.746 -33.888  1.00  0.00     0.226 C 
HETATM    2  N   UNL     1      -8.643   0.749 -34.608  1.00  0.00    -0.327 N 
HETATM    3  O   UNL     1     -10.012   0.219 -32.794  1.00  0.00    -0.273 OA
HETATM    4  H   UNL     1      -8.685   1.153 -35.533  1.00  0.00     0.169 HD
ENDROOT
BRANCH   1   5
HETATM    5  C   UNL     1     -10.940   1.522 -34.585  1.00  0.00     0.144 C 
BRANCH   5   6
HETATM    6  C   UNL     1     -11.765   2.316 -33.627  1.00  0.00    -0.021 A 
HETATM    7  C   UNL     1     -13.169   2.187 -33.365  1.00  0.00    -0.001 A 
HETATM    8  C   UNL     1     -13.504   3.140 -32.403  1.00  0.00     0.043 A 
HETATM    9  C   UNL     1     -14.192   1.348 -33.851  1.00  0.00     0.015 A 
HETATM   10  C   UNL     1     -14.802   3.292 -31.900  1.00  0.00     0.037 A 
HETATM   11  N   UNL     1     -12.355   3.829 -32.097  1.00  0.00    -0.365 N 
HETATM   12  C   UNL     1     -15.808   2.449 -32.396  1.00  0.00    -0.060 A 
HETATM   13  C   UNL     1     -17.205   2.551 -31.854  1.00  0.00     0.048 C 
HETATM   14  C   UNL     1     -15.495   1.481 -33.354  1.00  0.00     0.007 A 
HETATM   15  C   UNL     1     -11.306   3.347 -32.829  1.00  0.00     0.097 A 
HETATM   16  H   UNL     1     -12.301   4.585 -31.427  1.00  0.00     0.165 HD
ENDBRANCH   5   6
ENDBRANCH   1   5
BRANCH   2  17
HETATM   17  C   UNL     1      -7.389   0.234 -34.221  1.00  0.00     0.035 A 
HETATM   18  C   UNL     1      -7.140  -1.119 -34.508  1.00  0.00     0.042 A 
HETATM   19  C   UNL     1      -5.911  -1.718 -34.192  1.00  0.00    -0.021 A 
HETATM   20  C   UNL     1      -4.929  -0.943 -33.567  1.00  0.00     0.012 A 
HETATM   21  C   UNL     1      -5.170   0.400 -33.272  1.00  0.00     0.003 A 
HETATM   22  C   UNL     1      -6.394   0.987 -33.601  1.00  0.00     0.029 A 
BRANCH  19  23
HETATM   23  C   UNL     1      -5.651  -3.116 -34.502  1.00  0.00     0.010 A 
HETATM   24  C   UNL     1      -6.457  -4.087 -35.146  1.00  0.00     0.152 A 
HETATM   25  N   UNL     1      -5.865  -5.282 -35.228  1.00  0.00    -0.187 NA
HETATM   26  N   UNL     1      -4.680  -5.086 -34.632  1.00  0.00    -0.289 N 
HETATM   27  H   UNL     1      -4.040  -5.871 -34.566  1.00  0.00     0.188 HD
HETATM   28  C   UNL     1      -4.502  -3.810 -34.180  1.00  0.00     0.123 A 
ENDBRANCH  19  23
ENDBRANCH   2  17
TORSDOF 4
ENDMDL
MODEL 2
REMARK VINA RESULT:      -9.0      6.841     10.516
REMARK  4 active torsions:
REMARK  status: ('A' for Active; 'I' for Inactive)
REMARK    1  A    between atoms: C_6  and  C_7 
REMARK    2  A    between atoms: C_7  and  C_8 
REMARK       I    between atoms: C_8  and  N_9 
REMARK    3  A    between atoms: N_9  and  C_10 
REMARK    4  A    between atoms: C_12  and  C_13 
ROOT
HETATM    1  C   UNL     1      -4.211   3.127 -32.246  1.00  0.00     0.226 C 
HETATM    2  N   UNL     1      -3.038   3.402 -32.932  1.00  0.00    -0.327 N 
HETATM    3  O   UNL     1      -4.727   3.829 -31.380  1.00  0.00    -0.273 OA
HETATM    4  H   UNL     1      -2.705   2.678 -33.553  1.00  0.00     0.169 HD
ENDROOT
BRANCH   1   5
HETATM    5  C   UNL     1      -4.868   1.829 -32.703  1.00  0.00     0.144 C 
BRANCH   5   6
HETATM    6  C   UNL     1      -4.133   0.622 -32.222  1.00  0.00    -0.021 A 
HETATM    7  C   UNL     1      -4.191  -0.708 -32.757  1.00  0.00    -0.001 A 
HETATM    8  C   UNL     1      -3.346  -1.505 -31.985  1.00  0.00     0.043 A 
HETATM    9  C   UNL     1      -4.880  -1.314 -33.827  1.00  0.00     0.015 A 
HETATM   10  C   UNL     1      -3.149  -2.870 -32.232  1.00  0.00     0.037 A 
HETATM   11  N   UNL     1      -2.801  -0.699 -31.014  1.00  0.00    -0.365 N 
HETATM   12  C   UNL     1      -3.845  -3.457 -33.299  1.00  0.00    -0.060 A 
HETATM   13  C   UNL     1      -3.632  -4.907 -33.624  1.00  0.00     0.048 C 
HETATM   14  C   UNL     1      -4.690  -2.677 -34.092  1.00  0.00     0.007 A 
HETATM   15  C   UNL     1      -3.270   0.578 -31.143  1.00  0.00     0.097 A 
HETATM   16  H   UNL     1      -2.149  -1.012 -30.308  1.00  0.00     0.165 HD
ENDBRANCH   5   6
ENDBRANCH   1   5
BRANCH   2  17
HETATM   17  C   UNL     1      -2.234   4.558 -32.854  1.00  0.00     0.035 A 
HETATM   18  C   UNL     1      -1.678   4.863 -31.601  1.00  0.00     0.042 A 
HETATM   19  C   UNL     1      -0.838   5.974 -31.425  1.00  0.00    -0.021 A 
HETATM   20  C   UNL     1      -0.570   6.792 -32.527  1.00  0.00     0.012 A 
HETATM   21  C   UNL     1      -1.125   6.501 -33.774  1.00  0.00     0.003 A 
HETATM   22  C   UNL     1      -1.951   5.386 -33.938  1.00  0.00     0.029 A 
BRANCH  19  23
HETATM   23  C   UNL     1      -0.252   6.279 -30.128  1.00  0.00     0.010 A 
HETATM   24  C   UNL     1       0.515   5.478 -29.246  1.00  0.00     0.152 A 
HETATM   25  N   UNL     1       0.859   6.122 -28.127  1.00  0.00    -0.187 NA
HETATM   26  N   UNL     1       0.310   7.335 -28.281  1.00  0.00    -0.289 N 
HETATM   27  H   UNL     1       0.433   8.016 -27.539  1.00  0.00     0.188 HD
HETATM   28  C   UNL     1      -0.366   7.481 -29.459  1.00  0.00     0.123 A 
ENDBRANCH  19  23
ENDBRANCH   2  17
TORSDOF 4
ENDMDL
MODEL 3
REMARK VINA RESULT:      -9.0      2.556      8.369
REMARK  4 active torsions:
REMARK  status: ('A' for Active; 'I' for Inactive)
REMARK    1  A    between atoms: C_6  and  C_7 
REMARK    2  A    between atoms: C_7  and  C_8 
REMARK       I    between atoms: C_8  and  N_9 
REMARK    3  A    between atoms: N_9  and  C_10 
REMARK    4  A    between atoms: C_12  and  C_13 
ROOT
HETATM    1  C   UNL     1      -6.667   2.110 -33.229  1.00  0.00     0.226 C 
HETATM    2  N   UNL     1      -7.986   2.028 -32.810  1.00  0.00    -0.327 N 
HETATM    3  O   UNL     1      -6.268   2.617 -34.274  1.00  0.00    -0.273 OA
HETATM    4  H   UNL     1      -8.152   1.501 -31.964  1.00  0.00     0.169 HD
ENDROOT
BRANCH   1   5
HETATM    5  C   UNL     1      -5.691   1.521 -32.216  1.00  0.00     0.144 C 
BRANCH   5   6
HETATM    6  C   UNL     1      -4.969   0.329 -32.751  1.00  0.00    -0.021 A 
HETATM    7  C   UNL     1      -5.534  -0.820 -33.397  1.00  0.00    -0.001 A 
HETATM    8  C   UNL     1      -4.482  -1.677 -33.719  1.00  0.00     0.043 A 
HETATM    9  C   UNL     1      -6.842  -1.215 -33.744  1.00  0.00     0.015 A 
HETATM   10  C   UNL     1      -4.670  -2.902 -34.373  1.00  0.00     0.037 A 
HETATM   11  N   UNL     1      -3.324  -1.083 -33.279  1.00  0.00    -0.365 N 
HETATM   12  C   UNL     1      -5.978  -3.280 -34.709  1.00  0.00    -0.060 A 
HETATM   13  C   UNL     1      -6.220  -4.565 -35.447  1.00  0.00     0.048 C 
HETATM   14  C   UNL     1      -7.047  -2.434 -34.405  1.00  0.00     0.007 A 
HETATM   15  C   UNL     1      -3.604   0.119 -32.692  1.00  0.00     0.097 A 
HETATM   16  H   UNL     1      -2.400  -1.483 -33.378  1.00  0.00     0.165 HD
ENDBRANCH   5   6
ENDBRANCH   1   5
BRANCH   2  17
HETATM   17  C   UNL     1      -9.132   2.565 -33.431  1.00  0.00     0.035 A 
HETATM   18  C   UNL     1     -10.267   1.740 -33.497  1.00  0.00     0.042 A 
HETATM   19  C   UNL     1     -11.467   2.192 -34.067  1.00  0.00    -0.021 A 
HETATM   20  C   UNL     1     -11.513   3.489 -34.589  1.00  0.00     0.012 A 
HETATM   21  C   UNL     1     -10.388   4.313 -34.534  1.00  0.00     0.003 A 
HETATM   22  C   UNL     1      -9.203   3.854 -33.955  1.00  0.00     0.029 A 
BRANCH  19  23
HETATM   23  C   UNL     1     -12.645   1.339 -34.122  1.00  0.00     0.010 A 
HETATM   24  C   UNL     1     -13.949   1.592 -34.614  1.00  0.00     0.152 A 
HETATM   25  N   UNL     1     -14.771   0.548 -34.468  1.00  0.00    -0.187 NA
HETATM   26  N   UNL     1     -14.000  -0.376 -33.876  1.00  0.00    -0.289 N 
HETATM   27  H   UNL     1     -14.415  -1.275 -33.654  1.00  0.00     0.188 HD
HETATM   28  C   UNL     1     -12.723   0.046 -33.646  1.00  0.00     0.123 A 
ENDBRANCH  19  23
ENDBRANCH   2  17
TORSDOF 4
ENDMDL
MODEL 4
REMARK VINA RESULT:      -8.9      5.927     10.130
REMARK  4 active torsions:
REMARK  status: ('A' for Active; 'I' for Inactive)
REMARK    1  A    between atoms: C_6  and  C_7 
REMARK    2  A    between atoms: C_7  and  C_8 
REMARK       I    between atoms: C_8  and  N_9 
REMARK    3  A    between atoms: N_9  and  C_10 
REMARK    4  A    between atoms: C_12  and  C_13 
ROOT
HETATM    1  C   UNL     1      -3.844   2.095 -31.781  1.00  0.00     0.226 C 
HETATM    2  N   UNL     1      -3.865   3.262 -32.529  1.00  0.00    -0.327 N 
HETATM    3  O   UNL     1      -2.871   1.625 -31.197  1.00  0.00    -0.273 OA
HETATM    4  H   UNL     1      -4.727   3.462 -33.017  1.00  0.00     0.169 HD
ENDROOT
BRANCH   1   5
HETATM    5  C   UNL     1      -5.210   1.422 -31.705  1.00  0.00     0.144 C 
BRANCH   5   6
HETATM    6  C   UNL     1      -5.376   0.357 -32.739  1.00  0.00    -0.021 A 
HETATM    7  C   UNL     1      -4.729  -0.922 -32.790  1.00  0.00    -0.001 A 
HETATM    8  C   UNL     1      -5.185  -1.574 -33.936  1.00  0.00     0.043 A 
HETATM    9  C   UNL     1      -3.799  -1.592 -31.971  1.00  0.00     0.015 A 
HETATM   10  C   UNL     1      -4.765  -2.861 -34.299  1.00  0.00     0.037 A 
HETATM   11  N   UNL     1      -6.066  -0.727 -34.564  1.00  0.00    -0.365 N 
HETATM   12  C   UNL     1      -3.837  -3.512 -33.472  1.00  0.00    -0.060 A 
HETATM   13  C   UNL     1      -3.392  -4.908 -33.802  1.00  0.00     0.048 C 
HETATM   14  C   UNL     1      -3.373  -2.882 -32.315  1.00  0.00     0.007 A 
HETATM   15  C   UNL     1      -6.185   0.438 -33.857  1.00  0.00     0.097 A 
HETATM   16  H   UNL     1      -6.552  -0.939 -35.425  1.00  0.00     0.165 HD
ENDBRANCH   5   6
ENDBRANCH   1   5
BRANCH   2  17
HETATM   17  C   UNL     1      -2.824   4.193 -32.718  1.00  0.00     0.035 A 
HETATM   18  C   UNL     1      -2.156   4.645 -31.568  1.00  0.00     0.042 A 
HETATM   19  C   UNL     1      -1.085   5.548 -31.652  1.00  0.00    -0.021 A 
HETATM   20  C   UNL     1      -0.696   6.010 -32.913  1.00  0.00     0.012 A 
HETATM   21  C   UNL     1      -1.358   5.573 -34.061  1.00  0.00     0.003 A 
HETATM   22  C   UNL     1      -2.416   4.666 -33.964  1.00  0.00     0.029 A 
BRANCH  19  23
HETATM   23  C   UNL     1      -0.386   6.003 -30.459  1.00  0.00     0.010 A 
HETATM   24  C   UNL     1       0.340   5.283 -29.479  1.00  0.00     0.152 A 
HETATM   25  N   UNL     1       0.826   6.066 -28.512  1.00  0.00    -0.187 NA
HETATM   26  N   UNL     1       0.408   7.291 -28.861  1.00  0.00    -0.289 N 
HETATM   27  H   UNL     1       0.654   8.072 -28.262  1.00  0.00     0.188 HD
HETATM   28  C   UNL     1      -0.321   7.309 -30.016  1.00  0.00     0.123 A 
ENDBRANCH  19  23
ENDBRANCH   2  17
TORSDOF 4
ENDMDL
MODEL 5
REMARK VINA RESULT:      -8.8      4.997      7.605
REMARK  4 active torsions:
REMARK  status: ('A' for Active; 'I' for Inactive)
REMARK    1  A    between atoms: C_6  and  C_7 
REMARK    2  A    between atoms: C_7  and  C_8 
REMARK       I    between atoms: C_8  and  N_9 
REMARK    3  A    between atoms: N_9  and  C_10 
REMARK    4  A    between atoms: C_12  and  C_13 
ROOT
HETATM    1  C   UNL     1      -6.169   1.790 -31.138  1.00  0.00     0.226 C 
HETATM    2  N   UNL     1      -5.554   1.400 -32.318  1.00  0.00    -0.327 N 
HETATM    3  O   UNL     1      -7.334   1.571 -30.820  1.00  0.00    -0.273 OA
HETATM    4  H   UNL     1      -4.612   1.737 -32.462  1.00  0.00     0.169 HD
ENDROOT
BRANCH   1   5
HETATM    5  C   UNL     1      -5.219   2.523 -30.197  1.00  0.00     0.144 C 
BRANCH   5   6
HETATM    6  C   UNL     1      -4.980   3.935 -30.618  1.00  0.00    -0.021 A 
HETATM    7  C   UNL     1      -3.873   4.447 -31.374  1.00  0.00    -0.001 A 
HETATM    8  C   UNL     1      -4.068   5.820 -31.522  1.00  0.00     0.043 A 
HETATM    9  C   UNL     1      -2.721   3.874 -31.951  1.00  0.00     0.015 A 
HETATM   10  C   UNL     1      -3.178   6.646 -32.221  1.00  0.00     0.037 A 
HETATM   11  N   UNL     1      -5.240   6.136 -30.876  1.00  0.00    -0.365 N 
HETATM   12  C   UNL     1      -2.037   6.059 -32.787  1.00  0.00    -0.060 A 
HETATM   13  C   UNL     1      -1.078   6.901 -33.579  1.00  0.00     0.048 C 
HETATM   14  C   UNL     1      -1.824   4.685 -32.660  1.00  0.00     0.007 A 
HETATM   15  C   UNL     1      -5.793   5.014 -30.325  1.00  0.00     0.097 A 
HETATM   16  H   UNL     1      -5.630   7.067 -30.819  1.00  0.00     0.165 HD
ENDBRANCH   5   6
ENDBRANCH   1   5
BRANCH   2  17
HETATM   17  C   UNL     1      -6.088   0.613 -33.359  1.00  0.00     0.035 A 
HETATM   18  C   UNL     1      -5.638  -0.714 -33.449  1.00  0.00     0.042 A 
HETATM   19  C   UNL     1      -6.132  -1.589 -34.430  1.00  0.00    -0.021 A 
HETATM   20  C   UNL     1      -7.081  -1.108 -35.339  1.00  0.00     0.012 A 
HETATM   21  C   UNL     1      -7.528   0.212 -35.261  1.00  0.00     0.003 A 
HETATM   22  C   UNL     1      -7.036   1.068 -34.273  1.00  0.00     0.029 A 
BRANCH  19  23
HETATM   23  C   UNL     1      -5.673  -2.968 -34.512  1.00  0.00     0.010 A 
HETATM   24  C   UNL     1      -6.337  -4.140 -34.950  1.00  0.00     0.152 A 
HETATM   25  N   UNL     1      -5.577  -5.234 -34.855  1.00  0.00    -0.187 NA
HETATM   26  N   UNL     1      -4.423  -4.771 -34.351  1.00  0.00    -0.289 N 
HETATM   27  H   UNL     1      -3.674  -5.433 -34.181  1.00  0.00     0.188 HD
HETATM   28  C   UNL     1      -4.429  -3.424 -34.127  1.00  0.00     0.123 A 
ENDBRANCH  19  23
ENDBRANCH   2  17
TORSDOF 4
ENDMDL
MODEL 6
REMARK VINA RESULT:      -8.6      2.107      9.406
REMARK  4 active torsions:
REMARK  status: ('A' for Active; 'I' for Inactive)
REMARK    1  A    between atoms: C_6  and  C_7 
REMARK    2  A    between atoms: C_7  and  C_8 
REMARK       I    between atoms: C_8  and  N_9 
REMARK    3  A    between atoms: N_9  and  C_10 
REMARK    4  A    between atoms: C_12  and  C_13 
ROOT
HETATM    1  C   UNL     1      -9.101   0.674 -34.214  1.00  0.00     0.226 C 
HETATM    2  N   UNL     1     -10.043   1.581 -34.673  1.00  0.00    -0.327 N 
HETATM    3  O   UNL     1      -9.227  -0.079 -33.252  1.00  0.00    -0.273 OA
HETATM    4  H   UNL     1      -9.748   2.188 -35.425  1.00  0.00     0.169 HD
ENDROOT
BRANCH   1   5
HETATM    5  C   UNL     1      -7.837   0.659 -35.067  1.00  0.00     0.144 C 
BRANCH   5   6
HETATM    6  C   UNL     1      -6.640   0.200 -34.301  1.00  0.00    -0.021 A 
HETATM    7  C   UNL     1      -6.043  -1.104 -34.309  1.00  0.00    -0.001 A 
HETATM    8  C   UNL     1      -4.954  -1.069 -33.438  1.00  0.00     0.043 A 
HETATM    9  C   UNL     1      -6.321  -2.315 -34.975  1.00  0.00     0.015 A 
HETATM   10  C   UNL     1      -4.128  -2.176 -33.205  1.00  0.00     0.037 A 
HETATM   11  N   UNL     1      -4.893   0.200 -32.913  1.00  0.00    -0.365 N 
HETATM   12  C   UNL     1      -4.421  -3.373 -33.876  1.00  0.00    -0.060 A 
HETATM   13  C   UNL     1      -3.536  -4.572 -33.687  1.00  0.00     0.048 C 
HETATM   14  C   UNL     1      -5.501  -3.430 -34.759  1.00  0.00     0.007 A 
HETATM   15  C   UNL     1      -5.904   0.969 -33.420  1.00  0.00     0.097 A 
HETATM   16  H   UNL     1      -4.200   0.513 -32.247  1.00  0.00     0.165 HD
ENDBRANCH   5   6
ENDBRANCH   1   5
BRANCH   2  17
HETATM   17  C   UNL     1     -11.358   1.783 -34.205  1.00  0.00     0.035 A 
HETATM   18  C   UNL     1     -11.545   2.796 -33.250  1.00  0.00     0.042 A 
HETATM   19  C   UNL     1     -12.820   3.096 -32.744  1.00  0.00    -0.021 A 
HETATM   20  C   UNL     1     -13.914   2.353 -33.200  1.00  0.00     0.012 A 
HETATM   21  C   UNL     1     -13.736   1.340 -34.143  1.00  0.00     0.003 A 
HETATM   22  C   UNL     1     -12.463   1.058 -34.646  1.00  0.00     0.029 A 
BRANCH  19  23
HETATM   23  C   UNL     1     -13.013   4.156 -31.765  1.00  0.00     0.010 A 
HETATM   24  C   UNL     1     -13.307   5.531 -31.935  1.00  0.00     0.152 A 
HETATM   25  N   UNL     1     -13.391   6.191 -30.776  1.00  0.00    -0.187 NA
HETATM   26  N   UNL     1     -13.144   5.245 -29.858  1.00  0.00    -0.289 N 
HETATM   27  H   UNL     1     -13.146   5.514 -28.880  1.00  0.00     0.188 HD
HETATM   28  C   UNL     1     -12.910   4.013 -30.396  1.00  0.00     0.123 A 
ENDBRANCH  19  23
ENDBRANCH   2  17
TORSDOF 4
ENDMDL
MODEL 7
REMARK VINA RESULT:      -8.6      2.935      8.565
REMARK  4 active torsions:
REMARK  status: ('A' for Active; 'I' for Inactive)
REMARK    1  A    between atoms: C_6  and  C_7 
REMARK    2  A    between atoms: C_7  and  C_8 
REMARK       I    between atoms: C_8  and  N_9 
REMARK    3  A    between atoms: N_9  and  C_10 
REMARK    4  A    between atoms: C_12  and  C_13 
ROOT
HETATM    1  C   UNL     1      -5.920   1.474 -31.524  1.00  0.00     0.226 C 
HETATM    2  N   UNL     1      -6.641   2.446 -32.199  1.00  0.00    -0.327 N 
HETATM    3  O   UNL     1      -6.332   0.775 -30.601  1.00  0.00    -0.273 OA
HETATM    4  H   UNL     1      -6.127   2.992 -32.876  1.00  0.00     0.169 HD
ENDROOT
BRANCH   1   5
HETATM    5  C   UNL     1      -4.507   1.305 -32.071  1.00  0.00     0.144 C 
BRANCH   5   6
HETATM    6  C   UNL     1      -4.174  -0.124 -32.351  1.00  0.00    -0.021 A 
HETATM    7  C   UNL     1      -4.874  -1.033 -33.211  1.00  0.00    -0.001 A 
HETATM    8  C   UNL     1      -4.206  -2.257 -33.155  1.00  0.00     0.043 A 
HETATM    9  C   UNL     1      -6.012  -0.935 -34.037  1.00  0.00     0.015 A 
HETATM   10  C   UNL     1      -4.613  -3.381 -33.886  1.00  0.00     0.037 A 
HETATM   11  N   UNL     1      -3.149  -2.105 -32.291  1.00  0.00    -0.365 N 
HETATM   12  C   UNL     1      -5.749  -3.265 -34.701  1.00  0.00    -0.060 A 
HETATM   13  C   UNL     1      -6.195  -4.434 -35.533  1.00  0.00     0.048 C 
HETATM   14  C   UNL     1      -6.429  -2.048 -34.780  1.00  0.00     0.007 A 
HETATM   15  C   UNL     1      -3.123  -0.830 -31.797  1.00  0.00     0.097 A 
HETATM   16  H   UNL     1      -2.491  -2.835 -32.056  1.00  0.00     0.165 HD
ENDBRANCH   5   6
ENDBRANCH   1   5
BRANCH   2  17
HETATM   17  C   UNL     1      -7.999   2.790 -32.041  1.00  0.00     0.035 A 
HETATM   18  C   UNL     1      -8.840   2.591 -33.149  1.00  0.00     0.042 A 
HETATM   19  C   UNL     1     -10.214   2.873 -33.084  1.00  0.00    -0.021 A 
HETATM   20  C   UNL     1     -10.739   3.373 -31.889  1.00  0.00     0.012 A 
HETATM   21  C   UNL     1      -9.910   3.580 -30.785  1.00  0.00     0.003 A 
HETATM   22  C   UNL     1      -8.546   3.287 -30.860  1.00  0.00     0.029 A 
BRANCH  19  23
HETATM   23  C   UNL     1     -11.084   2.653 -34.230  1.00  0.00     0.010 A 
HETATM   24  C   UNL     1     -11.950   1.577 -34.543  1.00  0.00     0.152 A 
HETATM   25  N   UNL     1     -12.575   1.737 -35.713  1.00  0.00    -0.187 NA
HETATM   26  N   UNL     1     -12.109   2.912 -36.159  1.00  0.00    -0.289 N 
HETATM   27  H   UNL     1     -12.443   3.251 -37.056  1.00  0.00     0.188 HD
HETATM   28  C   UNL     1     -11.215   3.500 -35.312  1.00  0.00     0.123 A 
ENDBRANCH  19  23
ENDBRANCH   2  17
TORSDOF 4
ENDMDL
MODEL 8
REMARK VINA RESULT:      -8.5      2.906      7.881
REMARK  4 active torsions:
REMARK  status: ('A' for Active; 'I' for Inactive)
REMARK    1  A    between atoms: C_6  and  C_7 
REMARK    2  A    between atoms: C_7  and  C_8 
REMARK       I    between atoms: C_8  and  N_9 
REMARK    3  A    between atoms: N_9  and  C_10 
REMARK    4  A    between atoms: C_12  and  C_13 
ROOT
HETATM    1  C   UNL     1      -7.863   4.164 -33.454  1.00  0.00     0.226 C 
HETATM    2  N   UNL     1      -8.720   3.843 -34.496  1.00  0.00    -0.327 N 
HETATM    3  O   UNL     1      -8.191   4.602 -32.354  1.00  0.00    -0.273 OA
HETATM    4  H   UNL     1      -8.281   3.576 -35.366  1.00  0.00     0.169 HD
ENDROOT
BRANCH   1   5
HETATM    5  C   UNL     1      -6.402   3.882 -33.787  1.00  0.00     0.144 C 
BRANCH   5   6
HETATM    6  C   UNL     1      -5.958   2.541 -33.301  1.00  0.00    -0.021 A 
HETATM    7  C   UNL     1      -6.326   1.257 -33.822  1.00  0.00    -0.001 A 
HETATM    8  C   UNL     1      -5.677   0.293 -33.050  1.00  0.00     0.043 A 
HETATM    9  C   UNL     1      -7.148   0.817 -34.879  1.00  0.00     0.015 A 
HETATM   10  C   UNL     1      -5.801  -1.083 -33.285  1.00  0.00     0.037 A 
HETATM   11  N   UNL     1      -4.951   0.960 -32.093  1.00  0.00    -0.365 N 
HETATM   12  C   UNL     1      -6.625  -1.502 -34.340  1.00  0.00    -0.060 A 
HETATM   13  C   UNL     1      -6.754  -2.966 -34.653  1.00  0.00     0.048 C 
HETATM   14  C   UNL     1      -7.278  -0.556 -35.133  1.00  0.00     0.007 A 
HETATM   15  C   UNL     1      -5.116   2.310 -32.230  1.00  0.00     0.097 A 
HETATM   16  H   UNL     1      -4.380   0.511 -31.389  1.00  0.00     0.165 HD
ENDBRANCH   5   6
ENDBRANCH   1   5
BRANCH   2  17
HETATM   17  C   UNL     1     -10.129   3.866 -34.502  1.00  0.00     0.035 A 
HETATM   18  C   UNL     1     -10.788   2.642 -34.296  1.00  0.00     0.042 A 
HETATM   19  C   UNL     1     -12.189   2.564 -34.254  1.00  0.00    -0.021 A 
HETATM   20  C   UNL     1     -12.930   3.736 -34.436  1.00  0.00     0.012 A 
HETATM   21  C   UNL     1     -12.285   4.955 -34.649  1.00  0.00     0.003 A 
HETATM   22  C   UNL     1     -10.889   5.020 -34.679  1.00  0.00     0.029 A 
BRANCH  19  23
HETATM   23  C   UNL     1     -12.868   1.297 -34.027  1.00  0.00     0.010 A 
HETATM   24  C   UNL     1     -12.392   0.074 -33.493  1.00  0.00     0.152 A 
HETATM   25  N   UNL     1     -13.329  -0.878 -33.462  1.00  0.00    -0.187 NA
HETATM   26  N   UNL     1     -14.407  -0.274 -33.982  1.00  0.00    -0.289 N 
HETATM   27  H   UNL     1     -15.263  -0.812 -34.069  1.00  0.00     0.188 HD
HETATM   28  C   UNL     1     -14.185   1.025 -34.337  1.00  0.00     0.123 A 
ENDBRANCH  19  23
ENDBRANCH   2  17
TORSDOF 4
ENDMDL
MODEL 9
REMARK VINA RESULT:      -8.5      5.810      9.465
REMARK  4 active torsions:
REMARK  status: ('A' for Active; 'I' for Inactive)
REMARK    1  A    between atoms: C_6  and  C_7 
REMARK    2  A    between atoms: C_7  and  C_8 
REMARK       I    between atoms: C_8  and  N_9 
REMARK    3  A    between atoms: N_9  and  C_10 
REMARK    4  A    between atoms: C_12  and  C_13 
ROOT
HETATM    1  C   UNL     1      -3.409   2.861 -32.038  1.00  0.00     0.226 C 
HETATM    2  N   UNL     1      -4.628   2.816 -32.695  1.00  0.00    -0.327 N 
HETATM    3  O   UNL     1      -2.977   2.024 -31.250  1.00  0.00    -0.273 OA
HETATM    4  H   UNL     1      -4.869   3.630 -33.244  1.00  0.00     0.169 HD
ENDROOT
BRANCH   1   5
HETATM    5  C   UNL     1      -2.582   4.084 -32.419  1.00  0.00     0.144 C 
BRANCH   5   6
HETATM    6  C   UNL     1      -2.596   5.133 -31.356  1.00  0.00    -0.021 A 
HETATM    7  C   UNL     1      -1.467   5.762 -30.733  1.00  0.00    -0.001 A 
HETATM    8  C   UNL     1      -1.961   6.669 -29.796  1.00  0.00     0.043 A 
HETATM    9  C   UNL     1      -0.069   5.649 -30.876  1.00  0.00     0.015 A 
HETATM   10  C   UNL     1      -1.131   7.472 -29.002  1.00  0.00     0.037 A 
HETATM   11  N   UNL     1      -3.332   6.592 -29.837  1.00  0.00    -0.365 N 
HETATM   12  C   UNL     1       0.257   7.346 -29.156  1.00  0.00    -0.060 A 
HETATM   13  C   UNL     1       1.182   8.218 -28.355  1.00  0.00     0.048 C 
HETATM   14  C   UNL     1       0.775   6.450 -30.095  1.00  0.00     0.007 A 
HETATM   15  C   UNL     1      -3.725   5.669 -30.767  1.00  0.00     0.097 A 
HETATM   16  H   UNL     1      -3.956   7.140 -29.260  1.00  0.00     0.165 HD
ENDBRANCH   5   6
ENDBRANCH   1   5
BRANCH   2  17
HETATM   17  C   UNL     1      -5.591   1.786 -32.674  1.00  0.00     0.035 A 
HETATM   18  C   UNL     1      -5.246   0.578 -33.303  1.00  0.00     0.042 A 
HETATM   19  C   UNL     1      -6.122  -0.519 -33.310  1.00  0.00    -0.021 A 
HETATM   20  C   UNL     1      -7.366  -0.386 -32.685  1.00  0.00     0.012 A 
HETATM   21  C   UNL     1      -7.720   0.813 -32.063  1.00  0.00     0.003 A 
HETATM   22  C   UNL     1      -6.835   1.893 -32.055  1.00  0.00     0.029 A 
BRANCH  19  23
HETATM   23  C   UNL     1      -5.756  -1.773 -33.951  1.00  0.00     0.010 A 
HETATM   24  C   UNL     1      -6.548  -2.733 -34.627  1.00  0.00     0.152 A 
HETATM   25  N   UNL     1      -5.838  -3.776 -35.067  1.00  0.00    -0.187 NA
HETATM   26  N   UNL     1      -4.588  -3.493 -34.670  1.00  0.00    -0.289 N 
HETATM   27  H   UNL     1      -3.853  -4.158 -34.889  1.00  0.00     0.188 HD
HETATM   28  C   UNL     1      -4.485  -2.309 -33.999  1.00  0.00     0.123 A 
ENDBRANCH  19  23
ENDBRANCH   2  17
TORSDOF 4
ENDMDL
MODEL 10
REMARK VINA RESULT:      -8.5      4.787      7.456
REMARK  4 active torsions:
REMARK  status: ('A' for Active; 'I' for Inactive)
REMARK    1  A    between atoms: C_6  and  C_7 
REMARK    2  A    between atoms: C_7  and  C_8 
REMARK       I    between atoms: C_8  and  N_9 
REMARK    3  A    between atoms: N_9  and  C_10 
REMARK    4  A    between atoms: C_12  and  C_13 
ROOT
HETATM    1  C   UNL     1      -7.352   2.421 -32.619  1.00  0.00     0.226 C 
HETATM    2  N   UNL     1      -6.563   1.906 -33.636  1.00  0.00    -0.327 N 
HETATM    3  O   UNL     1      -8.118   1.784 -31.901  1.00  0.00    -0.273 OA
HETATM    4  H   UNL     1      -6.054   2.580 -34.190  1.00  0.00     0.169 HD
ENDROOT
BRANCH   1   5
HETATM    5  C   UNL     1      -7.157   3.921 -32.428  1.00  0.00     0.144 C 
BRANCH   5   6
HETATM    6  C   UNL     1      -5.755   4.267 -32.044  1.00  0.00    -0.021 A 
HETATM    7  C   UNL     1      -4.684   4.664 -32.911  1.00  0.00    -0.001 A 
HETATM    8  C   UNL     1      -3.560   4.877 -32.113  1.00  0.00     0.043 A 
HETATM    9  C   UNL     1      -4.559   4.867 -34.300  1.00  0.00     0.015 A 
HETATM   10  C   UNL     1      -2.324   5.288 -32.630  1.00  0.00     0.037 A 
HETATM   11  N   UNL     1      -3.926   4.612 -30.815  1.00  0.00    -0.365 N 
HETATM   12  C   UNL     1      -2.218   5.483 -34.015  1.00  0.00    -0.060 A 
HETATM   13  C   UNL     1      -0.923   5.963 -34.606  1.00  0.00     0.048 C 
HETATM   14  C   UNL     1      -3.332   5.284 -34.834  1.00  0.00     0.007 A 
HETATM   15  C   UNL     1      -5.240   4.240 -30.762  1.00  0.00     0.097 A 
HETATM   16  H   UNL     1      -3.307   4.683 -30.018  1.00  0.00     0.165 HD
ENDBRANCH   5   6
ENDBRANCH   1   5
BRANCH   2  17
HETATM   17  C   UNL     1      -6.402   0.557 -34.013  1.00  0.00     0.035 A 
HETATM   18  C   UNL     1      -5.404  -0.176 -33.349  1.00  0.00     0.042 A 
HETATM   19  C   UNL     1      -5.185  -1.533 -33.630  1.00  0.00    -0.021 A 
HETATM   20  C   UNL     1      -5.976  -2.152 -34.604  1.00  0.00     0.012 A 
HETATM   21  C   UNL     1      -6.965  -1.430 -35.274  1.00  0.00     0.003 A 
HETATM   22  C   UNL     1      -7.179  -0.082 -34.977  1.00  0.00     0.029 A 
BRANCH  19  23
HETATM   23  C   UNL     1      -4.159  -2.293 -32.931  1.00  0.00     0.010 A 
HETATM   24  C   UNL     1      -3.755  -3.644 -33.062  1.00  0.00     0.152 A 
HETATM   25  N   UNL     1      -2.777  -3.979 -32.216  1.00  0.00    -0.187 NA
HETATM   26  N   UNL     1      -2.552  -2.847 -31.534  1.00  0.00    -0.289 N 
HETATM   27  H   UNL     1      -1.838  -2.855 -30.813  1.00  0.00     0.188 HD
HETATM   28  C   UNL     1      -3.351  -1.810 -31.921  1.00  0.00     0.123 A 
ENDBRANCH  19  23
ENDBRANCH   2  17
TORSDOF 4
ENDMDL
