MODEL 1
REMARK VINA RESULT:      -9.1      0.000      0.000
REMARK  8 active torsions:
REMARK  status: ('A' for Active; 'I' for Inactive)
REMARK    1  A    between atoms: C_2  and  N_3 
REMARK    2  A    between atoms: N_3  and  C_4 
REMARK    3  A    between atoms: C_4  and  N_5 
REMARK    4  A    between atoms: N_5  and  C_6 
REMARK    5  A    between atoms: N_5  and  C_21 
REMARK    6  A    between atoms: C_6  and  C_7 
REMARK    7  A    between atoms: C_21  and  C_22 
REMARK    8  A    between atoms: C_22  and  N_23 
ROOT
HETATM    1  N   UNL     1      -4.952   3.169 -31.749  1.00  0.00    -0.352 N 
ENDROOT
BRANCH   1   2
HETATM    2  C   UNL     1      -6.113   3.920 -31.721  1.00  0.00     0.174 C 
HETATM    3  S   UNL     1      -6.209   5.411 -30.953  1.00  0.00    -0.041 SA
BRANCH   2   4
HETATM    4  N   UNL     1      -7.156   3.598 -32.533  1.00  0.00    -0.333 N 
HETATM    5  H   UNL     1      -7.579   4.413 -32.975  1.00  0.00     0.168 HD
BRANCH   4   6
HETATM    6  C   UNL     1      -7.994   2.463 -32.558  1.00  0.00     0.034 A 
HETATM    7  C   UNL     1      -8.485   1.833 -31.413  1.00  0.00     0.032 A 
HETATM    8  C   UNL     1      -9.337   0.730 -31.527  1.00  0.00     0.044 A 
HETATM    9  C   UNL     1      -9.710   0.274 -32.785  1.00  0.00     0.116 A 
HETATM   10  C   UNL     1      -9.255   0.905 -33.933  1.00  0.00     0.044 A 
HETATM   11  F   UNL     1     -10.527  -0.782 -32.891  1.00  0.00    -0.206 F 
HETATM   12  C   UNL     1      -8.405   2.007 -33.819  1.00  0.00     0.032 A 
ENDBRANCH   4   6
ENDBRANCH   2   4
ENDBRANCH   1   2
BRANCH   1  13
HETATM   13  C   UNL     1      -4.784   1.970 -30.887  1.00  0.00     0.169 C 
BRANCH  13  14
HETATM   14  C   UNL     1      -4.585   0.720 -31.697  1.00  0.00     0.029 A 
HETATM   15  C   UNL     1      -3.296  -0.014 -31.513  1.00  0.00     0.253 A 
HETATM   16  O   UNL     1      -2.410   0.430 -30.786  1.00  0.00    -0.268 OA
HETATM   17  N   UNL     1      -3.138  -1.194 -32.185  1.00  0.00    -0.322 N 
HETATM   18  C   UNL     1      -4.137  -1.782 -32.972  1.00  0.00     0.048 A 
HETATM   19  H   UNL     1      -2.261  -1.680 -32.044  1.00  0.00     0.169 HD
HETATM   20  C   UNL     1      -5.370  -1.111 -33.124  1.00  0.00    -0.006 A 
HETATM   21  C   UNL     1      -3.908  -3.026 -33.562  1.00  0.00     0.070 A 
HETATM   22  C   UNL     1      -6.396  -1.697 -33.871  1.00  0.00     0.053 A 
HETATM   23  C   UNL     1      -5.557   0.179 -32.455  1.00  0.00     0.028 A 
HETATM   24  C   UNL     1      -6.153  -2.937 -34.431  1.00  0.00     0.106 A 
HETATM   25  C   UNL     1      -4.946  -3.579 -34.282  1.00  0.00     0.107 A 
HETATM   26  O   UNL     1      -7.039  -3.664 -35.161  1.00  0.00    -0.323 OA
HETATM   27  O   UNL     1      -4.923  -4.788 -34.902  1.00  0.00    -0.323 OA
HETATM   28  C   UNL     1      -6.267  -4.855 -35.426  1.00  0.00     0.352 A 
ENDBRANCH  13  14
ENDBRANCH   1  13
BRANCH   1  29
HETATM   29  C   UNL     1      -3.759   3.607 -32.514  1.00  0.00     0.153 C 
BRANCH  29  30
HETATM   30  C   UNL     1      -2.578   4.107 -31.655  1.00  0.00     0.254 C 
BRANCH  30  31
HETATM   31  N   UNL     1      -1.847   5.269 -32.309  1.00  0.00    -0.066 N 
HETATM   32  H   UNL     1      -0.872   5.232 -31.973  1.00  0.00     0.280 HD
HETATM   33  C   UNL     1      -1.795   5.197 -33.831  1.00  0.00     0.261 C 
HETATM   34  C   UNL     1      -1.011   6.401 -34.366  1.00  0.00     0.195 C 
HETATM   35  O   UNL     1      -1.616   7.630 -33.945  1.00  0.00    -0.388 OA
HETATM   36  C   UNL     1      -1.629   7.751 -32.518  1.00  0.00     0.195 C 
HETATM   37  C   UNL     1      -2.426   6.611 -31.876  1.00  0.00     0.261 C 
ENDBRANCH  30  31
ENDBRANCH  29  30
ENDBRANCH   1  29
TORSDOF 8
ENDMDL
MODEL 2
REMARK VINA RESULT:      -8.9      3.372      8.362
REMARK  8 active torsions:
REMARK  status: ('A' for Active; 'I' for Inactive)
REMARK    1  A    between atoms: C_2  and  N_3 
REMARK    2  A    between atoms: N_3  and  C_4 
REMARK    3  A    between atoms: C_4  and  N_5 
REMARK    4  A    between atoms: N_5  and  C_6 
REMARK    5  A    between atoms: N_5  and  C_21 
REMARK    6  A    between atoms: C_6  and  C_7 
REMARK    7  A    between atoms: C_21  and  C_22 
REMARK    8  A    between atoms: C_22  and  N_23 
ROOT
HETATM    1  N   UNL     1      -7.890   1.359 -33.181  1.00  0.00    -0.352 N 
ENDROOT
BRANCH   1   2
HETATM    2  C   UNL     1      -6.886   0.428 -32.988  1.00  0.00     0.174 C 
HETATM    3  S   UNL     1      -6.550  -0.246 -31.487  1.00  0.00    -0.041 SA
BRANCH   2   4
HETATM    4  N   UNL     1      -6.293  -0.171 -34.056  1.00  0.00    -0.333 N 
HETATM    5  H   UNL     1      -6.428   0.345 -34.924  1.00  0.00     0.168 HD
BRANCH   4   6
HETATM    6  C   UNL     1      -5.906  -1.511 -34.269  1.00  0.00     0.034 A 
HETATM    7  C   UNL     1      -4.609  -1.988 -34.069  1.00  0.00     0.032 A 
HETATM    8  C   UNL     1      -4.316  -3.340 -34.273  1.00  0.00     0.044 A 
HETATM    9  C   UNL     1      -5.325  -4.213 -34.658  1.00  0.00     0.116 A 
HETATM   10  C   UNL     1      -6.626  -3.764 -34.833  1.00  0.00     0.044 A 
HETATM   11  F   UNL     1      -5.042  -5.508 -34.851  1.00  0.00    -0.206 F 
HETATM   12  C   UNL     1      -6.918  -2.414 -34.628  1.00  0.00     0.032 A 
ENDBRANCH   4   6
ENDBRANCH   2   4
ENDBRANCH   1   2
BRANCH   1  13
HETATM   13  C   UNL     1      -7.858   2.682 -32.508  1.00  0.00     0.169 C 
BRANCH  13  14
HETATM   14  C   UNL     1      -6.574   3.416 -32.774  1.00  0.00     0.029 A 
HETATM   15  C   UNL     1      -6.632   4.573 -33.720  1.00  0.00     0.253 A 
HETATM   16  O   UNL     1      -7.671   4.859 -34.309  1.00  0.00    -0.268 OA
HETATM   17  N   UNL     1      -5.487   5.296 -33.906  1.00  0.00    -0.322 N 
HETATM   18  C   UNL     1      -4.294   5.057 -33.212  1.00  0.00     0.048 A 
HETATM   19  H   UNL     1      -5.546   6.078 -34.546  1.00  0.00     0.169 HD
HETATM   20  C   UNL     1      -4.241   3.988 -32.292  1.00  0.00    -0.006 A 
HETATM   21  C   UNL     1      -3.196   5.895 -33.418  1.00  0.00     0.070 A 
HETATM   22  C   UNL     1      -3.073   3.756 -31.557  1.00  0.00     0.053 A 
HETATM   23  C   UNL     1      -5.436   3.164 -32.100  1.00  0.00     0.028 A 
HETATM   24  C   UNL     1      -2.006   4.608 -31.765  1.00  0.00     0.106 A 
HETATM   25  C   UNL     1      -2.066   5.644 -32.669  1.00  0.00     0.107 A 
HETATM   26  O   UNL     1      -0.810   4.551 -31.123  1.00  0.00    -0.323 OA
HETATM   27  O   UNL     1      -0.914   6.364 -32.708  1.00  0.00    -0.323 OA
HETATM   28  C   UNL     1      -0.133   5.690 -31.697  1.00  0.00     0.352 A 
ENDBRANCH  13  14
ENDBRANCH   1  13
BRANCH   1  29
HETATM   29  C   UNL     1      -9.124   1.028 -33.934  1.00  0.00     0.153 C 
BRANCH  29  30
HETATM   30  C   UNL     1     -10.252   0.388 -33.096  1.00  0.00     0.254 C 
BRANCH  30  31
HETATM   31  N   UNL     1     -11.613   0.982 -33.420  1.00  0.00    -0.066 N 
HETATM   32  H   UNL     1     -11.888   1.554 -32.607  1.00  0.00     0.280 HD
HETATM   33  C   UNL     1     -11.619   1.906 -34.634  1.00  0.00     0.261 C 
HETATM   34  C   UNL     1     -13.033   2.461 -34.838  1.00  0.00     0.195 C 
HETATM   35  O   UNL     1     -13.976   1.398 -35.017  1.00  0.00    -0.388 OA
HETATM   36  C   UNL     1     -14.034   0.545 -33.869  1.00  0.00     0.195 C 
HETATM   37  C   UNL     1     -12.672  -0.100 -33.594  1.00  0.00     0.261 C 
ENDBRANCH  30  31
ENDBRANCH  29  30
ENDBRANCH   1  29
TORSDOF 8
ENDMDL
MODEL 3
REMARK VINA RESULT:      -8.9      3.321      5.971
REMARK  8 active torsions:
REMARK  status: ('A' for Active; 'I' for Inactive)
REMARK    1  A    between atoms: C_2  and  N_3 
REMARK    2  A    between atoms: N_3  and  C_4 
REMARK    3  A    between atoms: C_4  and  N_5 
REMARK    4  A    between atoms: N_5  and  C_6 
REMARK    5  A    between atoms: N_5  and  C_21 
REMARK    6  A    between atoms: C_6  and  C_7 
REMARK    7  A    between atoms: C_21  and  C_22 
REMARK    8  A    between atoms: C_22  and  N_23 
ROOT
HETATM    1  N   UNL     1      -5.801   1.988 -32.554  1.00  0.00    -0.352 N 
ENDROOT
BRANCH   1   2
HETATM    2  C   UNL     1      -5.539   0.723 -32.058  1.00  0.00     0.174 C 
HETATM    3  S   UNL     1      -6.268   0.125 -30.668  1.00  0.00    -0.041 SA
BRANCH   2   4
HETATM    4  N   UNL     1      -4.869  -0.184 -32.818  1.00  0.00    -0.333 N 
HETATM    5  H   UNL     1      -3.994   0.180 -33.190  1.00  0.00     0.168 HD
BRANCH   4   6
HETATM    6  C   UNL     1      -5.322  -1.331 -33.505  1.00  0.00     0.034 A 
HETATM    7  C   UNL     1      -6.656  -1.553 -33.854  1.00  0.00     0.032 A 
HETATM    8  C   UNL     1      -7.017  -2.702 -34.563  1.00  0.00     0.044 A 
HETATM    9  C   UNL     1      -6.040  -3.616 -34.937  1.00  0.00     0.116 A 
HETATM   10  C   UNL     1      -4.706  -3.398 -34.626  1.00  0.00     0.044 A 
HETATM   11  F   UNL     1      -6.388  -4.715 -35.618  1.00  0.00    -0.206 F 
HETATM   12  C   UNL     1      -4.346  -2.249 -33.918  1.00  0.00     0.032 A 
ENDBRANCH   4   6
ENDBRANCH   2   4
ENDBRANCH   1   2
BRANCH   1  13
HETATM   13  C   UNL     1      -6.440   2.182 -33.881  1.00  0.00     0.169 C 
BRANCH  13  14
HETATM   14  C   UNL     1      -7.925   2.375 -33.766  1.00  0.00     0.029 A 
HETATM   15  C   UNL     1      -8.453   3.757 -33.986  1.00  0.00     0.253 A 
HETATM   16  O   UNL     1      -7.694   4.703 -34.178  1.00  0.00    -0.268 OA
HETATM   17  N   UNL     1      -9.810   3.927 -33.963  1.00  0.00    -0.322 N 
HETATM   18  C   UNL     1     -10.724   2.876 -33.816  1.00  0.00     0.048 A 
HETATM   19  H   UNL     1     -10.149   4.868 -34.119  1.00  0.00     0.169 HD
HETATM   20  C   UNL     1     -10.234   1.563 -33.641  1.00  0.00    -0.006 A 
HETATM   21  C   UNL     1     -12.094   3.140 -33.877  1.00  0.00     0.070 A 
HETATM   22  C   UNL     1     -11.128   0.493 -33.534  1.00  0.00     0.053 A 
HETATM   23  C   UNL     1      -8.785   1.350 -33.615  1.00  0.00     0.028 A 
HETATM   24  C   UNL     1     -12.478   0.776 -33.614  1.00  0.00     0.106 A 
HETATM   25  C   UNL     1     -12.945   2.059 -33.778  1.00  0.00     0.107 A 
HETATM   26  O   UNL     1     -13.483  -0.137 -33.558  1.00  0.00    -0.323 OA
HETATM   27  O   UNL     1     -14.302   2.112 -33.844  1.00  0.00    -0.323 OA
HETATM   28  C   UNL     1     -14.637   0.711 -33.742  1.00  0.00     0.352 A 
ENDBRANCH  13  14
ENDBRANCH   1  13
BRANCH   1  29
HETATM   29  C   UNL     1      -5.318   3.209 -31.866  1.00  0.00     0.153 C 
BRANCH  29  30
HETATM   30  C   UNL     1      -3.783   3.329 -31.744  1.00  0.00     0.254 C 
BRANCH  30  31
HETATM   31  N   UNL     1      -3.162   3.990 -32.964  1.00  0.00    -0.066 N 
HETATM   32  H   UNL     1      -2.861   3.228 -33.591  1.00  0.00     0.280 HD
HETATM   33  C   UNL     1      -4.126   4.864 -33.759  1.00  0.00     0.261 C 
HETATM   34  C   UNL     1      -3.393   5.446 -34.974  1.00  0.00     0.195 C 
HETATM   35  O   UNL     1      -2.252   6.208 -34.562  1.00  0.00    -0.388 OA
HETATM   36  C   UNL     1      -1.301   5.399 -33.860  1.00  0.00     0.195 C 
HETATM   37  C   UNL     1      -1.922   4.794 -32.596  1.00  0.00     0.261 C 
ENDBRANCH  30  31
ENDBRANCH  29  30
ENDBRANCH   1  29
TORSDOF 8
ENDMDL
MODEL 4
REMARK VINA RESULT:      -8.8      1.243      1.517
REMARK  8 active torsions:
REMARK  status: ('A' for Active; 'I' for Inactive)
REMARK    1  A    between atoms: C_2  and  N_3 
REMARK    2  A    between atoms: N_3  and  C_4 
REMARK    3  A    between atoms: C_4  and  N_5 
REMARK    4  A    between atoms: N_5  and  C_6 
REMARK    5  A    between atoms: N_5  and  C_21 
REMARK    6  A    between atoms: C_6  and  C_7 
REMARK    7  A    between atoms: C_21  and  C_22 
REMARK    8  A    between atoms: C_22  and  N_23 
ROOT
HETATM    1  N   UNL     1      -5.809   2.761 -31.329  1.00  0.00    -0.352 N 
ENDROOT
BRANCH   1   2
HETATM    2  C   UNL     1      -6.883   2.862 -30.464  1.00  0.00     0.174 C 
HETATM    3  S   UNL     1      -7.172   4.231 -29.534  1.00  0.00    -0.041 SA
BRANCH   2   4
HETATM    4  N   UNL     1      -7.895   1.954 -30.520  1.00  0.00    -0.333 N 
HETATM    5  H   UNL     1      -7.718   1.129 -29.950  1.00  0.00     0.168 HD
BRANCH   4   6
HETATM    6  C   UNL     1      -8.900   1.748 -31.489  1.00  0.00     0.034 A 
HETATM    7  C   UNL     1      -9.673   2.772 -32.040  1.00  0.00     0.032 A 
HETATM    8  C   UNL     1     -10.629   2.485 -33.020  1.00  0.00     0.044 A 
HETATM    9  C   UNL     1     -10.794   1.177 -33.458  1.00  0.00     0.116 A 
HETATM   10  C   UNL     1     -10.014   0.151 -32.944  1.00  0.00     0.044 A 
HETATM   11  F   UNL     1     -11.708   0.905 -34.398  1.00  0.00    -0.206 F 
HETATM   12  C   UNL     1      -9.060   0.438 -31.966  1.00  0.00     0.032 A 
ENDBRANCH   4   6
ENDBRANCH   2   4
ENDBRANCH   1   2
BRANCH   1  13
HETATM   13  C   UNL     1      -4.581   2.014 -30.955  1.00  0.00     0.169 C 
BRANCH  13  14
HETATM   14  C   UNL     1      -4.434   0.743 -31.743  1.00  0.00     0.029 A 
HETATM   15  C   UNL     1      -3.192  -0.059 -31.520  1.00  0.00     0.253 A 
HETATM   16  O   UNL     1      -2.300   0.346 -30.779  1.00  0.00    -0.268 OA
HETATM   17  N   UNL     1      -3.087  -1.256 -32.172  1.00  0.00    -0.322 N 
HETATM   18  C   UNL     1      -4.099  -1.798 -32.974  1.00  0.00     0.048 A 
HETATM   19  H   UNL     1      -2.242  -1.788 -32.005  1.00  0.00     0.169 HD
HETATM   20  C   UNL     1      -5.289  -1.062 -33.163  1.00  0.00    -0.006 A 
HETATM   21  C   UNL     1      -3.928  -3.062 -33.542  1.00  0.00     0.070 A 
HETATM   22  C   UNL     1      -6.330  -1.601 -33.925  1.00  0.00     0.053 A 
HETATM   23  C   UNL     1      -5.418   0.246 -32.515  1.00  0.00     0.028 A 
HETATM   24  C   UNL     1      -6.144  -2.860 -34.463  1.00  0.00     0.106 A 
HETATM   25  C   UNL     1      -4.979  -3.566 -34.278  1.00  0.00     0.107 A 
HETATM   26  O   UNL     1      -7.054  -3.547 -35.203  1.00  0.00    -0.323 OA
HETATM   27  O   UNL     1      -5.011  -4.784 -34.881  1.00  0.00    -0.323 OA
HETATM   28  C   UNL     1      -6.344  -4.783 -35.435  1.00  0.00     0.352 A 
ENDBRANCH  13  14
ENDBRANCH   1  13
BRANCH   1  29
HETATM   29  C   UNL     1      -5.760   3.522 -32.602  1.00  0.00     0.153 C 
BRANCH  29  30
HETATM   30  C   UNL     1      -5.017   4.873 -32.529  1.00  0.00     0.254 C 
BRANCH  30  31
HETATM   31  N   UNL     1      -3.601   4.777 -33.075  1.00  0.00    -0.066 N 
HETATM   32  H   UNL     1      -3.355   3.776 -33.085  1.00  0.00     0.280 HD
HETATM   33  C   UNL     1      -3.446   5.287 -34.504  1.00  0.00     0.261 C 
HETATM   34  C   UNL     1      -1.989   5.110 -34.947  1.00  0.00     0.195 C 
HETATM   35  O   UNL     1      -1.102   5.812 -34.068  1.00  0.00    -0.388 OA
HETATM   36  C   UNL     1      -1.184   5.317 -32.727  1.00  0.00     0.195 C 
HETATM   37  C   UNL     1      -2.601   5.482 -32.166  1.00  0.00     0.261 C 
ENDBRANCH  30  31
ENDBRANCH  29  30
ENDBRANCH   1  29
TORSDOF 8
ENDMDL
MODEL 5
REMARK VINA RESULT:      -8.8      2.056      2.545
REMARK  8 active torsions:
REMARK  status: ('A' for Active; 'I' for Inactive)
REMARK    1  A    between atoms: C_2  and  N_3 
REMARK    2  A    between atoms: N_3  and  C_4 
REMARK    3  A    between atoms: C_4  and  N_5 
REMARK    4  A    between atoms: N_5  and  C_6 
REMARK    5  A    between atoms: N_5  and  C_21 
REMARK    6  A    between atoms: C_6  and  C_7 
REMARK    7  A    between atoms: C_21  and  C_22 
REMARK    8  A    between atoms: C_22  and  N_23 
ROOT
HETATM    1  N   UNL     1      -7.323   3.965 -33.100  1.00  0.00    -0.352 N 
ENDROOT
BRANCH   1   2
HETATM    2  C   UNL     1      -8.680   4.198 -33.229  1.00  0.00     0.174 C 
HETATM    3  S   UNL     1      -9.500   5.322 -32.287  1.00  0.00    -0.041 SA
BRANCH   2   4
HETATM    4  N   UNL     1      -9.360   3.708 -34.300  1.00  0.00    -0.333 N 
HETATM    5  H   UNL     1      -9.210   4.253 -35.147  1.00  0.00     0.168 HD
BRANCH   4   6
HETATM    6  C   UNL     1     -10.504   2.885 -34.373  1.00  0.00     0.034 A 
HETATM    7  C   UNL     1     -11.611   3.159 -35.178  1.00  0.00     0.032 A 
HETATM    8  C   UNL     1     -12.693   2.274 -35.216  1.00  0.00     0.044 A 
HETATM    9  C   UNL     1     -12.654   1.108 -34.462  1.00  0.00     0.116 A 
HETATM   10  C   UNL     1     -11.550   0.803 -33.679  1.00  0.00     0.044 A 
HETATM   11  F   UNL     1     -13.690   0.261 -34.501  1.00  0.00    -0.206 F 
HETATM   12  C   UNL     1     -10.470   1.688 -33.643  1.00  0.00     0.032 A 
ENDBRANCH   4   6
ENDBRANCH   2   4
ENDBRANCH   1   2
BRANCH   1  13
HETATM   13  C   UNL     1      -6.787   3.079 -32.035  1.00  0.00     0.169 C 
BRANCH  13  14
HETATM   14  C   UNL     1      -6.178   1.827 -32.601  1.00  0.00     0.029 A 
HETATM   15  C   UNL     1      -4.716   1.615 -32.369  1.00  0.00     0.253 A 
HETATM   16  O   UNL     1      -4.033   2.465 -31.804  1.00  0.00    -0.268 OA
HETATM   17  N   UNL     1      -4.169   0.441 -32.810  1.00  0.00    -0.322 N 
HETATM   18  C   UNL     1      -4.911  -0.591 -33.398  1.00  0.00     0.048 A 
HETATM   19  H   UNL     1      -3.180   0.312 -32.639  1.00  0.00     0.169 HD
HETATM   20  C   UNL     1      -6.299  -0.411 -33.591  1.00  0.00    -0.006 A 
HETATM   21  C   UNL     1      -4.276  -1.782 -33.752  1.00  0.00     0.070 A 
HETATM   22  C   UNL     1      -7.067  -1.444 -34.138  1.00  0.00     0.053 A 
HETATM   23  C   UNL     1      -6.910   0.852 -33.171  1.00  0.00     0.028 A 
HETATM   24  C   UNL     1      -6.419  -2.619 -34.464  1.00  0.00     0.106 A 
HETATM   25  C   UNL     1      -5.066  -2.782 -34.278  1.00  0.00     0.107 A 
HETATM   26  O   UNL     1      -7.009  -3.732 -34.977  1.00  0.00    -0.323 OA
HETATM   27  O   UNL     1      -4.637  -4.016 -34.654  1.00  0.00    -0.323 OA
HETATM   28  C   UNL     1      -5.879  -4.629 -35.061  1.00  0.00     0.352 A 
ENDBRANCH  13  14
ENDBRANCH   1  13
BRANCH   1  29
HETATM   29  C   UNL     1      -6.325   4.708 -33.908  1.00  0.00     0.153 C 
BRANCH  29  30
HETATM   30  C   UNL     1      -5.325   5.558 -33.095  1.00  0.00     0.254 C 
BRANCH  30  31
HETATM   31  N   UNL     1      -3.884   5.156 -33.362  1.00  0.00    -0.066 N 
HETATM   32  H   UNL     1      -3.837   4.131 -33.248  1.00  0.00     0.280 HD
HETATM   33  C   UNL     1      -3.398   5.469 -34.773  1.00  0.00     0.261 C 
HETATM   34  C   UNL     1      -1.950   4.991 -34.925  1.00  0.00     0.195 C 
HETATM   35  O   UNL     1      -1.103   5.619 -33.956  1.00  0.00    -0.388 OA
HETATM   36  C   UNL     1      -1.500   5.298 -32.618  1.00  0.00     0.195 C 
HETATM   37  C   UNL     1      -2.932   5.770 -32.342  1.00  0.00     0.261 C 
ENDBRANCH  30  31
ENDBRANCH  29  30
ENDBRANCH   1  29
TORSDOF 8
ENDMDL
MODEL 6
REMARK VINA RESULT:      -8.8      2.831      5.035
REMARK  8 active torsions:
REMARK  status: ('A' for Active; 'I' for Inactive)
REMARK    1  A    between atoms: C_2  and  N_3 
REMARK    2  A    between atoms: N_3  and  C_4 
REMARK    3  A    between atoms: C_4  and  N_5 
REMARK    4  A    between atoms: N_5  and  C_6 
REMARK    5  A    between atoms: N_5  and  C_21 
REMARK    6  A    between atoms: C_6  and  C_7 
REMARK    7  A    between atoms: C_21  and  C_22 
REMARK    8  A    between atoms: C_22  and  N_23 
ROOT
HETATM    1  N   UNL     1      -4.195   1.960 -31.928  1.00  0.00    -0.352 N 
ENDROOT
BRANCH   1   2
HETATM    2  C   UNL     1      -3.748   0.692 -32.251  1.00  0.00     0.174 C 
HETATM    3  S   UNL     1      -3.160  -0.382 -31.101  1.00  0.00    -0.041 SA
BRANCH   2   4
HETATM    4  N   UNL     1      -4.003   0.169 -33.481  1.00  0.00    -0.333 N 
HETATM    5  H   UNL     1      -3.786   0.815 -34.238  1.00  0.00     0.168 HD
BRANCH   4   6
HETATM    6  C   UNL     1      -4.858  -0.880 -33.881  1.00  0.00     0.034 A 
HETATM    7  C   UNL     1      -6.177  -0.693 -34.298  1.00  0.00     0.032 A 
HETATM    8  C   UNL     1      -6.948  -1.785 -34.710  1.00  0.00     0.044 A 
HETATM    9  C   UNL     1      -6.389  -3.057 -34.721  1.00  0.00     0.116 A 
HETATM   10  C   UNL     1      -5.071  -3.258 -34.339  1.00  0.00     0.044 A 
HETATM   11  F   UNL     1      -7.129  -4.100 -35.117  1.00  0.00    -0.206 F 
HETATM   12  C   UNL     1      -4.302  -2.167 -33.929  1.00  0.00     0.032 A 
ENDBRANCH   4   6
ENDBRANCH   2   4
ENDBRANCH   1   2
BRANCH   1  13
HETATM   13  C   UNL     1      -5.377   2.164 -31.051  1.00  0.00     0.169 C 
BRANCH  13  14
HETATM   14  C   UNL     1      -6.656   1.767 -31.731  1.00  0.00     0.029 A 
HETATM   15  C   UNL     1      -7.314   0.508 -31.264  1.00  0.00     0.253 A 
HETATM   16  O   UNL     1      -6.789  -0.206 -30.414  1.00  0.00    -0.268 OA
HETATM   17  N   UNL     1      -8.519   0.180 -31.821  1.00  0.00    -0.322 N 
HETATM   18  C   UNL     1      -9.197   0.988 -32.743  1.00  0.00     0.048 A 
HETATM   19  H   UNL     1      -8.953  -0.673 -31.489  1.00  0.00     0.169 HD
HETATM   20  C   UNL     1      -8.597   2.195 -33.164  1.00  0.00    -0.006 A 
HETATM   21  C   UNL     1     -10.457   0.603 -33.203  1.00  0.00     0.070 A 
HETATM   22  C   UNL     1      -9.273   3.038 -34.052  1.00  0.00     0.053 A 
HETATM   23  C   UNL     1      -7.285   2.556 -32.622  1.00  0.00     0.028 A 
HETATM   24  C   UNL     1     -10.526   2.644 -34.479  1.00  0.00     0.106 A 
HETATM   25  C   UNL     1     -11.099   1.463 -34.069  1.00  0.00     0.107 A 
HETATM   26  O   UNL     1     -11.335   3.348 -35.316  1.00  0.00    -0.323 OA
HETATM   27  O   UNL     1     -12.337   1.276 -34.598  1.00  0.00    -0.323 OA
HETATM   28  C   UNL     1     -12.498   2.493 -35.359  1.00  0.00     0.352 A 
ENDBRANCH  13  14
ENDBRANCH   1  13
BRANCH   1  29
HETATM   29  C   UNL     1      -3.625   3.172 -32.564  1.00  0.00     0.153 C 
BRANCH  29  30
HETATM   30  C   UNL     1      -2.695   4.010 -31.660  1.00  0.00     0.254 C 
BRANCH  30  31
HETATM   31  N   UNL     1      -1.913   5.048 -32.450  1.00  0.00    -0.066 N 
HETATM   32  H   UNL     1      -0.924   4.949 -32.171  1.00  0.00     0.280 HD
HETATM   33  C   UNL     1      -1.969   4.855 -33.962  1.00  0.00     0.261 C 
HETATM   34  C   UNL     1      -1.122   5.939 -34.639  1.00  0.00     0.195 C 
HETATM   35  O   UNL     1      -1.591   7.245 -34.286  1.00  0.00    -0.388 OA
HETATM   36  C   UNL     1      -1.498   7.477 -32.876  1.00  0.00     0.195 C 
HETATM   37  C   UNL     1      -2.345   6.465 -32.096  1.00  0.00     0.261 C 
ENDBRANCH  30  31
ENDBRANCH  29  30
ENDBRANCH   1  29
TORSDOF 8
ENDMDL
MODEL 7
REMARK VINA RESULT:      -8.7      1.906      2.583
REMARK  8 active torsions:
REMARK  status: ('A' for Active; 'I' for Inactive)
REMARK    1  A    between atoms: C_2  and  N_3 
REMARK    2  A    between atoms: N_3  and  C_4 
REMARK    3  A    between atoms: C_4  and  N_5 
REMARK    4  A    between atoms: N_5  and  C_6 
REMARK    5  A    between atoms: N_5  and  C_21 
REMARK    6  A    between atoms: C_6  and  C_7 
REMARK    7  A    between atoms: C_21  and  C_22 
REMARK    8  A    between atoms: C_22  and  N_23 
ROOT
HETATM    1  N   UNL     1      -5.796   2.911 -32.105  1.00  0.00    -0.352 N 
ENDROOT
BRANCH   1   2
HETATM    2  C   UNL     1      -6.535   2.209 -31.170  1.00  0.00     0.174 C 
HETATM    3  S   UNL     1      -5.823   1.305 -29.946  1.00  0.00    -0.041 SA
BRANCH   2   4
HETATM    4  N   UNL     1      -7.872   2.428 -31.049  1.00  0.00    -0.333 N 
HETATM    5  H   UNL     1      -8.140   2.741 -30.118  1.00  0.00     0.168 HD
BRANCH   4   6
HETATM    6  C   UNL     1      -8.962   1.932 -31.796  1.00  0.00     0.034 A 
HETATM    7  C   UNL     1      -9.837   2.738 -32.527  1.00  0.00     0.032 A 
HETATM    8  C   UNL     1     -10.875   2.163 -33.266  1.00  0.00     0.044 A 
HETATM    9  C   UNL     1     -11.022   0.782 -33.287  1.00  0.00     0.116 A 
HETATM   10  C   UNL     1     -10.145  -0.037 -32.590  1.00  0.00     0.044 A 
HETATM   11  F   UNL     1     -12.016   0.233 -33.997  1.00  0.00    -0.206 F 
HETATM   12  C   UNL     1      -9.108   0.538 -31.853  1.00  0.00     0.032 A 
ENDBRANCH   4   6
ENDBRANCH   2   4
ENDBRANCH   1   2
BRANCH   1  13
HETATM   13  C   UNL     1      -5.835   2.558 -33.547  1.00  0.00     0.169 C 
BRANCH  13  14
HETATM   14  C   UNL     1      -5.939   1.073 -33.758  1.00  0.00     0.029 A 
HETATM   15  C   UNL     1      -7.059   0.584 -34.621  1.00  0.00     0.253 A 
HETATM   16  O   UNL     1      -7.897   1.359 -35.073  1.00  0.00    -0.268 OA
HETATM   17  N   UNL     1      -7.114  -0.757 -34.884  1.00  0.00    -0.322 N 
HETATM   18  C   UNL     1      -6.150  -1.676 -34.452  1.00  0.00     0.048 A 
HETATM   19  H   UNL     1      -7.875  -1.070 -35.474  1.00  0.00     0.169 HD
HETATM   20  C   UNL     1      -5.072  -1.216 -33.665  1.00  0.00    -0.006 A 
HETATM   21  C   UNL     1      -6.255  -3.016 -34.831  1.00  0.00     0.070 A 
HETATM   22  C   UNL     1      -4.075  -2.108 -33.257  1.00  0.00     0.053 A 
HETATM   23  C   UNL     1      -5.005   0.207 -33.325  1.00  0.00     0.028 A 
HETATM   24  C   UNL     1      -4.190  -3.425 -33.659  1.00  0.00     0.106 A 
HETATM   25  C   UNL     1      -5.248  -3.864 -34.420  1.00  0.00     0.107 A 
HETATM   26  O   UNL     1      -3.306  -4.419 -33.380  1.00  0.00    -0.323 OA
HETATM   27  O   UNL     1      -5.160  -5.188 -34.713  1.00  0.00    -0.323 OA
HETATM   28  C   UNL     1      -3.906  -5.528 -34.083  1.00  0.00     0.352 A 
ENDBRANCH  13  14
ENDBRANCH   1  13
BRANCH   1  29
HETATM   29  C   UNL     1      -4.809   3.942 -31.702  1.00  0.00     0.153 C 
BRANCH  29  30
HETATM   30  C   UNL     1      -3.331   3.561 -31.934  1.00  0.00     0.254 C 
BRANCH  30  31
HETATM   31  N   UNL     1      -2.530   4.709 -32.524  1.00  0.00    -0.066 N 
HETATM   32  H   UNL     1      -1.633   4.738 -32.014  1.00  0.00     0.280 HD
HETATM   33  C   UNL     1      -2.193   4.543 -34.002  1.00  0.00     0.261 C 
HETATM   34  C   UNL     1      -1.363   5.744 -34.469  1.00  0.00     0.195 C 
HETATM   35  O   UNL     1      -2.075   6.968 -34.254  1.00  0.00    -0.388 OA
HETATM   36  C   UNL     1      -2.355   7.181 -32.866  1.00  0.00     0.195 C 
HETATM   37  C   UNL     1      -3.221   6.049 -32.302  1.00  0.00     0.261 C 
ENDBRANCH  30  31
ENDBRANCH  29  30
ENDBRANCH   1  29
TORSDOF 8
ENDMDL
MODEL 8
REMARK VINA RESULT:      -8.4      3.728      7.710
REMARK  8 active torsions:
REMARK  status: ('A' for Active; 'I' for Inactive)
REMARK    1  A    between atoms: C_2  and  N_3 
REMARK    2  A    between atoms: N_3  and  C_4 
REMARK    3  A    between atoms: C_4  and  N_5 
REMARK    4  A    between atoms: N_5  and  C_6 
REMARK    5  A    between atoms: N_5  and  C_21 
REMARK    6  A    between atoms: C_6  and  C_7 
REMARK    7  A    between atoms: C_21  and  C_22 
REMARK    8  A    between atoms: C_22  and  N_23 
ROOT
HETATM    1  N   UNL     1      -5.881   2.208 -32.854  1.00  0.00    -0.352 N 
ENDROOT
BRANCH   1   2
HETATM    2  C   UNL     1      -5.979   3.258 -31.960  1.00  0.00     0.174 C 
HETATM    3  S   UNL     1      -6.671   3.091 -30.438  1.00  0.00    -0.041 SA
BRANCH   2   4
HETATM    4  N   UNL     1      -5.290   4.411 -32.178  1.00  0.00    -0.333 N 
HETATM    5  H   UNL     1      -5.859   5.244 -32.042  1.00  0.00     0.168 HD
BRANCH   4   6
HETATM    6  C   UNL     1      -4.119   4.661 -32.925  1.00  0.00     0.034 A 
HETATM    7  C   UNL     1      -2.828   4.402 -32.459  1.00  0.00     0.032 A 
HETATM    8  C   UNL     1      -1.721   4.650 -33.276  1.00  0.00     0.044 A 
HETATM    9  C   UNL     1      -1.910   5.138 -34.563  1.00  0.00     0.116 A 
HETATM   10  C   UNL     1      -3.187   5.374 -35.053  1.00  0.00     0.044 A 
HETATM   11  F   UNL     1      -0.849   5.374 -35.344  1.00  0.00    -0.206 F 
HETATM   12  C   UNL     1      -4.292   5.125 -34.237  1.00  0.00     0.032 A 
ENDBRANCH   4   6
ENDBRANCH   2   4
ENDBRANCH   1   2
BRANCH   1  13
HETATM   13  C   UNL     1      -6.634   2.207 -34.134  1.00  0.00     0.169 C 
BRANCH  13  14
HETATM   14  C   UNL     1      -8.107   2.412 -33.919  1.00  0.00     0.029 A 
HETATM   15  C   UNL     1      -8.624   3.811 -34.022  1.00  0.00     0.253 A 
HETATM   16  O   UNL     1      -7.862   4.758 -34.201  1.00  0.00    -0.268 OA
HETATM   17  N   UNL     1      -9.974   3.997 -33.907  1.00  0.00    -0.322 N 
HETATM   18  C   UNL     1     -10.895   2.951 -33.770  1.00  0.00     0.048 A 
HETATM   19  H   UNL     1     -10.307   4.950 -33.985  1.00  0.00     0.169 HD
HETATM   20  C   UNL     1     -10.417   1.623 -33.706  1.00  0.00    -0.006 A 
HETATM   21  C   UNL     1     -12.261   3.235 -33.732  1.00  0.00     0.070 A 
HETATM   22  C   UNL     1     -11.321   0.560 -33.610  1.00  0.00     0.053 A 
HETATM   23  C   UNL     1      -8.973   1.391 -33.780  1.00  0.00     0.028 A 
HETATM   24  C   UNL     1     -12.668   0.865 -33.592  1.00  0.00     0.106 A 
HETATM   25  C   UNL     1     -13.123   2.161 -33.649  1.00  0.00     0.107 A 
HETATM   26  O   UNL     1     -13.683  -0.038 -33.532  1.00  0.00    -0.323 OA
HETATM   27  O   UNL     1     -14.480   2.235 -33.630  1.00  0.00    -0.323 OA
HETATM   28  C   UNL     1     -14.832   0.835 -33.594  1.00  0.00     0.352 A 
ENDBRANCH  13  14
ENDBRANCH   1  13
BRANCH   1  29
HETATM   29  C   UNL     1      -5.151   0.962 -32.514  1.00  0.00     0.153 C 
BRANCH  29  30
HETATM   30  C   UNL     1      -6.037  -0.203 -32.023  1.00  0.00     0.254 C 
BRANCH  30  31
HETATM   31  N   UNL     1      -5.866  -1.450 -32.876  1.00  0.00    -0.066 N 
HETATM   32  H   UNL     1      -5.902  -2.256 -32.233  1.00  0.00     0.280 HD
HETATM   33  C   UNL     1      -6.968  -1.657 -33.909  1.00  0.00     0.261 C 
HETATM   34  C   UNL     1      -6.700  -2.954 -34.680  1.00  0.00     0.195 C 
HETATM   35  O   UNL     1      -5.419  -2.910 -35.320  1.00  0.00    -0.388 OA
HETATM   36  C   UNL     1      -4.357  -2.773 -34.369  1.00  0.00     0.195 C 
HETATM   37  C   UNL     1      -4.506  -1.478 -33.563  1.00  0.00     0.261 C 
ENDBRANCH  30  31
ENDBRANCH  29  30
ENDBRANCH   1  29
TORSDOF 8
ENDMDL
MODEL 9
REMARK VINA RESULT:      -8.3      3.089      7.241
REMARK  8 active torsions:
REMARK  status: ('A' for Active; 'I' for Inactive)
REMARK    1  A    between atoms: C_2  and  N_3 
REMARK    2  A    between atoms: N_3  and  C_4 
REMARK    3  A    between atoms: C_4  and  N_5 
REMARK    4  A    between atoms: N_5  and  C_6 
REMARK    5  A    between atoms: N_5  and  C_21 
REMARK    6  A    between atoms: C_6  and  C_7 
REMARK    7  A    between atoms: C_21  and  C_22 
REMARK    8  A    between atoms: C_22  and  N_23 
ROOT
HETATM    1  N   UNL     1      -8.091   1.792 -32.857  1.00  0.00    -0.352 N 
ENDROOT
BRANCH   1   2
HETATM    2  C   UNL     1      -8.995   2.577 -32.165  1.00  0.00     0.174 C 
HETATM    3  S   UNL     1     -10.589   2.771 -32.657  1.00  0.00    -0.041 SA
BRANCH   2   4
HETATM    4  N   UNL     1      -8.698   3.023 -30.914  1.00  0.00    -0.333 N 
HETATM    5  H   UNL     1      -9.461   2.885 -30.254  1.00  0.00     0.168 HD
BRANCH   4   6
HETATM    6  C   UNL     1      -7.750   3.969 -30.469  1.00  0.00     0.034 A 
HETATM    7  C   UNL     1      -7.952   5.350 -30.508  1.00  0.00     0.032 A 
HETATM    8  C   UNL     1      -6.973   6.220 -30.017  1.00  0.00     0.044 A 
HETATM    9  C   UNL     1      -5.805   5.704 -29.471  1.00  0.00     0.116 A 
HETATM   10  C   UNL     1      -5.599   4.333 -29.397  1.00  0.00     0.044 A 
HETATM   11  F   UNL     1      -4.870   6.538 -29.001  1.00  0.00    -0.206 F 
HETATM   12  C   UNL     1      -6.578   3.466 -29.887  1.00  0.00     0.032 A 
ENDBRANCH   4   6
ENDBRANCH   2   4
ENDBRANCH   1   2
BRANCH   1  13
HETATM   13  C   UNL     1      -7.386   2.301 -34.061  1.00  0.00     0.169 C 
BRANCH  13  14
HETATM   14  C   UNL     1      -6.311   3.290 -33.707  1.00  0.00     0.029 A 
HETATM   15  C   UNL     1      -6.648   4.740 -33.840  1.00  0.00     0.253 A 
HETATM   16  O   UNL     1      -7.732   5.102 -34.291  1.00  0.00    -0.268 OA
HETATM   17  N   UNL     1      -5.705   5.648 -33.445  1.00  0.00    -0.322 N 
HETATM   18  C   UNL     1      -4.481   5.295 -32.861  1.00  0.00     0.048 A 
HETATM   19  H   UNL     1      -5.952   6.625 -33.537  1.00  0.00     0.169 HD
HETATM   20  C   UNL     1      -4.170   3.927 -32.701  1.00  0.00    -0.006 A 
HETATM   21  C   UNL     1      -3.612   6.296 -32.424  1.00  0.00     0.070 A 
HETATM   22  C   UNL     1      -2.972   3.552 -32.084  1.00  0.00     0.053 A 
HETATM   23  C   UNL     1      -5.138   2.927 -33.156  1.00  0.00     0.028 A 
HETATM   24  C   UNL     1      -2.136   4.559 -31.643  1.00  0.00     0.106 A 
HETATM   25  C   UNL     1      -2.446   5.889 -31.810  1.00  0.00     0.107 A 
HETATM   26  O   UNL     1      -0.951   4.380 -31.001  1.00  0.00    -0.323 OA
HETATM   27  O   UNL     1      -1.494   6.711 -31.294  1.00  0.00    -0.323 OA
HETATM   28  C   UNL     1      -0.565   5.749 -30.748  1.00  0.00     0.352 A 
ENDBRANCH  13  14
ENDBRANCH   1  13
BRANCH   1  29
HETATM   29  C   UNL     1      -7.898   0.357 -32.533  1.00  0.00     0.153 C 
BRANCH  29  30
HETATM   30  C   UNL     1      -7.074   0.078 -31.258  1.00  0.00     0.254 C 
BRANCH  30  31
HETATM   31  N   UNL     1      -5.705  -0.501 -31.577  1.00  0.00    -0.066 N 
HETATM   32  H   UNL     1      -5.667  -1.432 -31.135  1.00  0.00     0.280 HD
HETATM   33  C   UNL     1      -5.445  -0.706 -33.066  1.00  0.00     0.261 C 
HETATM   34  C   UNL     1      -4.052  -1.319 -33.254  1.00  0.00     0.195 C 
HETATM   35  O   UNL     1      -3.044  -0.476 -32.683  1.00  0.00    -0.388 OA
HETATM   36  C   UNL     1      -3.230  -0.311 -31.273  1.00  0.00     0.195 C 
HETATM   37  C   UNL     1      -4.586   0.336 -30.970  1.00  0.00     0.261 C 
ENDBRANCH  30  31
ENDBRANCH  29  30
ENDBRANCH   1  29
TORSDOF 8
ENDMDL
MODEL 10
REMARK VINA RESULT:      -8.2      3.504      7.986
REMARK  8 active torsions:
REMARK  status: ('A' for Active; 'I' for Inactive)
REMARK    1  A    between atoms: C_2  and  N_3 
REMARK    2  A    between atoms: N_3  and  C_4 
REMARK    3  A    between atoms: C_4  and  N_5 
REMARK    4  A    between atoms: N_5  and  C_6 
REMARK    5  A    between atoms: N_5  and  C_21 
REMARK    6  A    between atoms: C_6  and  C_7 
REMARK    7  A    between atoms: C_21  and  C_22 
REMARK    8  A    between atoms: C_22  and  N_23 
ROOT
HETATM    1  N   UNL     1      -9.187   2.125 -32.543  1.00  0.00    -0.352 N 
ENDROOT
BRANCH   1   2
HETATM    2  C   UNL     1      -9.021   0.838 -33.021  1.00  0.00     0.174 C 
HETATM    3  S   UNL     1     -10.130  -0.389 -32.725  1.00  0.00    -0.041 SA
BRANCH   2   4
HETATM    4  N   UNL     1      -8.079   0.575 -33.967  1.00  0.00    -0.333 N 
HETATM    5  H   UNL     1      -8.355   0.886 -34.897  1.00  0.00     0.168 HD
BRANCH   4   6
HETATM    6  C   UNL     1      -7.030  -0.368 -33.991  1.00  0.00     0.034 A 
HETATM    7  C   UNL     1      -7.096  -1.589 -34.666  1.00  0.00     0.032 A 
HETATM    8  C   UNL     1      -5.999  -2.455 -34.667  1.00  0.00     0.044 A 
HETATM    9  C   UNL     1      -4.832  -2.088 -34.008  1.00  0.00     0.116 A 
HETATM   10  C   UNL     1      -4.737  -0.867 -33.356  1.00  0.00     0.044 A 
HETATM   11  F   UNL     1      -3.782  -2.919 -34.010  1.00  0.00    -0.206 F 
HETATM   12  C   UNL     1      -5.834  -0.002 -33.357  1.00  0.00     0.032 A 
ENDBRANCH   4   6
ENDBRANCH   2   4
ENDBRANCH   1   2
BRANCH   1  13
HETATM   13  C   UNL     1      -8.555   2.567 -31.274  1.00  0.00     0.169 C 
BRANCH  13  14
HETATM   14  C   UNL     1      -7.129   2.995 -31.476  1.00  0.00     0.029 A 
HETATM   15  C   UNL     1      -6.088   2.316 -30.645  1.00  0.00     0.253 A 
HETATM   16  O   UNL     1      -6.398   1.498 -29.783  1.00  0.00    -0.268 OA
HETATM   17  N   UNL     1      -4.781   2.641 -30.878  1.00  0.00    -0.322 N 
HETATM   18  C   UNL     1      -4.364   3.514 -31.891  1.00  0.00     0.048 A 
HETATM   19  H   UNL     1      -4.089   2.168 -30.311  1.00  0.00     0.169 HD
HETATM   20  C   UNL     1      -5.340   4.134 -32.703  1.00  0.00    -0.006 A 
HETATM   21  C   UNL     1      -3.001   3.730 -32.100  1.00  0.00     0.070 A 
HETATM   22  C   UNL     1      -4.946   4.978 -33.747  1.00  0.00     0.053 A 
HETATM   23  C   UNL     1      -6.753   3.844 -32.451  1.00  0.00     0.028 A 
HETATM   24  C   UNL     1      -3.591   5.162 -33.944  1.00  0.00     0.106 A 
HETATM   25  C   UNL     1      -2.649   4.558 -33.144  1.00  0.00     0.107 A 
HETATM   26  O   UNL     1      -3.030   5.921 -34.923  1.00  0.00    -0.323 OA
HETATM   27  O   UNL     1      -1.379   4.864 -33.519  1.00  0.00    -0.323 OA
HETATM   28  C   UNL     1      -1.625   5.699 -34.672  1.00  0.00     0.352 A 
ENDBRANCH  13  14
ENDBRANCH   1  13
BRANCH   1  29
HETATM   29  C   UNL     1     -10.129   3.077 -33.181  1.00  0.00     0.153 C 
BRANCH  29  30
HETATM   30  C   UNL     1     -11.256   3.599 -32.263  1.00  0.00     0.254 C 
BRANCH  30  31
HETATM   31  N   UNL     1     -12.490   2.714 -32.313  1.00  0.00    -0.066 N 
HETATM   32  H   UNL     1     -12.323   1.935 -31.657  1.00  0.00     0.280 HD
HETATM   33  C   UNL     1     -13.774   3.405 -31.864  1.00  0.00     0.261 C 
HETATM   34  C   UNL     1     -14.934   2.405 -31.931  1.00  0.00     0.195 C 
HETATM   35  O   UNL     1     -15.084   1.889 -33.259  1.00  0.00    -0.388 OA
HETATM   36  C   UNL     1     -13.914   1.184 -33.688  1.00  0.00     0.195 C 
HETATM   37  C   UNL     1     -12.690   2.107 -33.697  1.00  0.00     0.261 C 
ENDBRANCH  30  31
ENDBRANCH  29  30
ENDBRANCH   1  29
TORSDOF 8
ENDMDL
