MODEL 1
REMARK VINA RESULT:      -7.9      0.000      0.000
REMARK  3 active torsions:
REMARK  status: ('A' for Active; 'I' for Inactive)
REMARK    1  A    between atoms: C_2  and  N_3 
REMARK    2  A    between atoms: N_3  and  C_4 
REMARK    3  A    between atoms: C_12  and  C_13 
ROOT
HETATM    1  C   UNL     1      -6.669   1.956 -32.745  1.00  0.00     0.139 A 
HETATM    2  N   UNL     1      -7.476   3.005 -33.015  1.00  0.00    -0.224 NA
HETATM    3  C   UNL     1      -7.026   4.252 -32.838  1.00  0.00     0.236 A 
HETATM    4  N   UNL     1      -5.821   4.622 -32.416  1.00  0.00    -0.234 NA
HETATM    5  C   UNL     1      -5.019   3.571 -32.183  1.00  0.00     0.113 A 
HETATM    6  C   UNL     1      -5.339   2.225 -32.329  1.00  0.00     0.055 A 
HETATM    7  S   UNL     1      -3.426   3.831 -31.653  1.00  0.00    -0.081 SA
HETATM    8  C   UNL     1      -3.097   2.163 -31.641  1.00  0.00     0.062 A 
HETATM    9  C   UNL     1      -4.179   1.390 -32.035  1.00  0.00    -0.003 A 
ENDROOT
BRANCH   9  10
HETATM   10  C   UNL     1      -4.085  -0.115 -32.139  1.00  0.00     0.188 C 
HETATM   11  O   UNL     1      -4.359  -0.570 -33.477  1.00  0.00    -0.336 OA
HETATM   12  C   UNL     1      -4.210  -1.934 -33.553  1.00  0.00     0.103 A 
HETATM   13  C   UNL     1      -3.467  -2.673 -32.624  1.00  0.00     0.102 A 
HETATM   14  C   UNL     1      -4.848  -2.578 -34.611  1.00  0.00     0.040 A 
HETATM   15  O   UNL     1      -2.803  -2.109 -31.564  1.00  0.00    -0.345 OA
HETATM   16  C   UNL     1      -3.399  -4.060 -32.735  1.00  0.00     0.039 A 
HETATM   17  C   UNL     1      -2.742  -0.677 -31.666  1.00  0.00     0.213 C 
HETATM   18  C   UNL     1      -4.054  -4.708 -33.783  1.00  0.00     0.003 A 
HETATM   19  C   UNL     1      -4.775  -3.968 -34.722  1.00  0.00     0.003 A 
ENDBRANCH   9  10
BRANCH   1  20
HETATM   20  N   UNL     1      -7.142   0.659 -32.889  1.00  0.00    -0.366 N 
HETATM   21  H   UNL     1      -7.549   0.325 -32.015  1.00  0.00     0.162 HD
BRANCH  20  22
HETATM   22  C   UNL     1      -7.838   0.170 -34.088  1.00  0.00     0.021 C 
HETATM   23  C   UNL     1      -7.058   0.506 -35.367  1.00  0.00     0.037 C 
HETATM   24  C   UNL     1      -9.282   0.685 -34.157  1.00  0.00     0.037 C 
HETATM   25  C   UNL     1      -7.886  -1.369 -33.964  1.00  0.00     0.037 C 
ENDBRANCH  20  22
ENDBRANCH   1  20
TORSDOF 3
ENDMDL
MODEL 2
REMARK VINA RESULT:      -7.8      3.229      5.814
REMARK  3 active torsions:
REMARK  status: ('A' for Active; 'I' for Inactive)
REMARK    1  A    between atoms: C_2  and  N_3 
REMARK    2  A    between atoms: N_3  and  C_4 
REMARK    3  A    between atoms: C_12  and  C_13 
ROOT
HETATM    1  C   UNL     1      -8.942   1.162 -33.290  1.00  0.00     0.139 A 
HETATM    2  N   UNL     1     -10.028   0.362 -33.353  1.00  0.00    -0.224 NA
HETATM    3  C   UNL     1     -11.220   0.883 -33.665  1.00  0.00     0.236 A 
HETATM    4  N   UNL     1     -11.496   2.154 -33.944  1.00  0.00    -0.234 NA
HETATM    5  C   UNL     1     -10.403   2.930 -33.910  1.00  0.00     0.113 A 
HETATM    6  C   UNL     1      -9.103   2.534 -33.613  1.00  0.00     0.055 A 
HETATM    7  S   UNL     1     -10.539   4.589 -34.256  1.00  0.00    -0.081 SA
HETATM    8  C   UNL     1      -8.866   4.824 -34.064  1.00  0.00     0.062 A 
HETATM    9  C   UNL     1      -8.184   3.662 -33.738  1.00  0.00    -0.003 A 
ENDROOT
BRANCH   9  10
HETATM   10  C   UNL     1      -6.682   3.642 -33.568  1.00  0.00     0.188 C 
HETATM   11  O   UNL     1      -6.049   4.674 -34.348  1.00  0.00    -0.336 OA
HETATM   12  C   UNL     1      -4.692   4.668 -34.129  1.00  0.00     0.103 A 
HETATM   13  C   UNL     1      -4.106   4.086 -32.998  1.00  0.00     0.102 A 
HETATM   14  C   UNL     1      -3.896   5.270 -35.100  1.00  0.00     0.040 A 
HETATM   15  O   UNL     1      -4.824   3.484 -31.996  1.00  0.00    -0.345 OA
HETATM   16  C   UNL     1      -2.719   4.073 -32.864  1.00  0.00     0.039 A 
HETATM   17  C   UNL     1      -6.232   3.747 -32.108  1.00  0.00     0.213 C 
HETATM   18  C   UNL     1      -1.919   4.659 -33.846  1.00  0.00     0.003 A 
HETATM   19  C   UNL     1      -2.507   5.260 -34.961  1.00  0.00     0.003 A 
ENDBRANCH   9  10
BRANCH   1  20
HETATM   20  N   UNL     1      -7.710   0.635 -32.929  1.00  0.00    -0.366 N 
HETATM   21  H   UNL     1      -7.750   0.233 -31.992  1.00  0.00     0.162 HD
BRANCH  20  22
HETATM   22  C   UNL     1      -6.834  -0.105 -33.850  1.00  0.00     0.021 C 
HETATM   23  C   UNL     1      -6.979   0.403 -35.292  1.00  0.00     0.037 C 
HETATM   24  C   UNL     1      -7.064  -1.619 -33.761  1.00  0.00     0.037 C 
HETATM   25  C   UNL     1      -5.386   0.186 -33.399  1.00  0.00     0.037 C 
ENDBRANCH  20  22
ENDBRANCH   1  20
TORSDOF 3
ENDMDL
MODEL 3
REMARK VINA RESULT:      -7.5     14.413     16.196
REMARK  3 active torsions:
REMARK  status: ('A' for Active; 'I' for Inactive)
REMARK    1  A    between atoms: C_2  and  N_3 
REMARK    2  A    between atoms: N_3  and  C_4 
REMARK    3  A    between atoms: C_12  and  C_13 
ROOT
HETATM    1  C   UNL     1      -4.169 -12.963 -38.161  1.00  0.00     0.139 A 
HETATM    2  N   UNL     1      -3.112 -12.389 -37.548  1.00  0.00    -0.224 NA
HETATM    3  C   UNL     1      -1.889 -12.518 -38.074  1.00  0.00     0.236 A 
HETATM    4  N   UNL     1      -1.553 -13.167 -39.185  1.00  0.00    -0.234 NA
HETATM    5  C   UNL     1      -2.618 -13.705 -39.800  1.00  0.00     0.113 A 
HETATM    6  C   UNL     1      -3.944 -13.647 -39.384  1.00  0.00     0.055 A 
HETATM    7  S   UNL     1      -2.404 -14.563 -41.252  1.00  0.00    -0.081 SA
HETATM    8  C   UNL     1      -4.075 -14.849 -41.394  1.00  0.00     0.062 A 
HETATM    9  C   UNL     1      -4.813 -14.303 -40.355  1.00  0.00    -0.003 A 
ENDROOT
BRANCH   9  10
HETATM   10  C   UNL     1      -6.321 -14.403 -40.314  1.00  0.00     0.188 C 
HETATM   11  O   UNL     1      -6.939 -13.108 -40.438  1.00  0.00    -0.336 OA
HETATM   12  C   UNL     1      -8.307 -13.237 -40.454  1.00  0.00     0.103 A 
HETATM   13  C   UNL     1      -8.956 -14.435 -40.774  1.00  0.00     0.102 A 
HETATM   14  C   UNL     1      -9.048 -12.105 -40.125  1.00  0.00     0.040 A 
HETATM   15  O   UNL     1      -8.296 -15.587 -41.118  1.00  0.00    -0.345 OA
HETATM   16  C   UNL     1     -10.347 -14.507 -40.723  1.00  0.00     0.039 A 
HETATM   17  C   UNL     1      -6.899 -15.356 -41.364  1.00  0.00     0.213 C 
HETATM   18  C   UNL     1     -11.090 -13.379 -40.374  1.00  0.00     0.003 A 
HETATM   19  C   UNL     1     -10.442 -12.178 -40.079  1.00  0.00     0.003 A 
ENDBRANCH   9  10
BRANCH   1  20
HETATM   20  N   UNL     1      -5.435 -12.866 -37.601  1.00  0.00    -0.366 N 
HETATM   21  H   UNL     1      -6.121 -12.590 -38.304  1.00  0.00     0.162 HD
BRANCH  20  22
HETATM   22  C   UNL     1      -5.963 -13.808 -36.602  1.00  0.00     0.021 C 
HETATM   23  C   UNL     1      -5.687 -13.323 -35.171  1.00  0.00     0.037 C 
HETATM   24  C   UNL     1      -5.433 -15.231 -36.826  1.00  0.00     0.037 C 
HETATM   25  C   UNL     1      -7.495 -13.833 -36.796  1.00  0.00     0.037 C 
ENDBRANCH  20  22
ENDBRANCH   1  20
TORSDOF 3
ENDMDL
MODEL 4
REMARK VINA RESULT:      -7.5      2.512      5.560
REMARK  3 active torsions:
REMARK  status: ('A' for Active; 'I' for Inactive)
REMARK    1  A    between atoms: C_2  and  N_3 
REMARK    2  A    between atoms: N_3  and  C_4 
REMARK    3  A    between atoms: C_12  and  C_13 
ROOT
HETATM    1  C   UNL     1      -5.147  -0.384 -32.393  1.00  0.00     0.139 A 
HETATM    2  N   UNL     1      -4.234  -1.220 -31.853  1.00  0.00    -0.224 NA
HETATM    3  C   UNL     1      -3.117  -0.722 -31.309  1.00  0.00     0.236 A 
HETATM    4  N   UNL     1      -2.767   0.558 -31.217  1.00  0.00    -0.234 NA
HETATM    5  C   UNL     1      -3.698   1.377 -31.728  1.00  0.00     0.113 A 
HETATM    6  C   UNL     1      -4.906   1.012 -32.314  1.00  0.00     0.055 A 
HETATM    7  S   UNL     1      -3.449   3.059 -31.690  1.00  0.00    -0.081 SA
HETATM    8  C   UNL     1      -4.959   3.355 -32.415  1.00  0.00     0.062 A 
HETATM    9  C   UNL     1      -5.669   2.197 -32.693  1.00  0.00    -0.003 A 
ENDROOT
BRANCH   9  10
HETATM   10  C   UNL     1      -7.055   2.239 -33.295  1.00  0.00     0.188 C 
HETATM   11  O   UNL     1      -7.961   1.365 -32.597  1.00  0.00    -0.336 OA
HETATM   12  C   UNL     1      -9.223   1.467 -33.130  1.00  0.00     0.103 A 
HETATM   13  C   UNL     1      -9.643   2.567 -33.888  1.00  0.00     0.102 A 
HETATM   14  C   UNL     1     -10.094   0.407 -32.891  1.00  0.00     0.040 A 
HETATM   15  O   UNL     1      -8.847   3.651 -34.157  1.00  0.00    -0.345 OA
HETATM   16  C   UNL     1     -10.923   2.582 -34.440  1.00  0.00     0.039 A 
HETATM   17  C   UNL     1      -7.647   3.649 -33.366  1.00  0.00     0.213 C 
HETATM   18  C   UNL     1     -11.789   1.512 -34.218  1.00  0.00     0.003 A 
HETATM   19  C   UNL     1     -11.377   0.427 -33.441  1.00  0.00     0.003 A 
ENDBRANCH   9  10
BRANCH   1  20
HETATM   20  N   UNL     1      -6.289  -0.896 -32.993  1.00  0.00    -0.366 N 
HETATM   21  H   UNL     1      -7.077  -0.260 -32.872  1.00  0.00     0.162 HD
BRANCH  20  22
HETATM   22  C   UNL     1      -6.290  -1.594 -34.288  1.00  0.00     0.021 C 
HETATM   23  C   UNL     1      -7.138  -2.873 -34.236  1.00  0.00     0.037 C 
HETATM   24  C   UNL     1      -4.866  -1.883 -34.780  1.00  0.00     0.037 C 
HETATM   25  C   UNL     1      -6.958  -0.634 -35.296  1.00  0.00     0.037 C 
ENDBRANCH  20  22
ENDBRANCH   1  20
TORSDOF 3
ENDMDL
MODEL 5
REMARK VINA RESULT:      -7.3      2.003      2.837
REMARK  3 active torsions:
REMARK  status: ('A' for Active; 'I' for Inactive)
REMARK    1  A    between atoms: C_2  and  N_3 
REMARK    2  A    between atoms: N_3  and  C_4 
REMARK    3  A    between atoms: C_12  and  C_13 
ROOT
HETATM    1  C   UNL     1      -6.445   3.710 -30.544  1.00  0.00     0.139 A 
HETATM    2  N   UNL     1      -6.983   4.823 -30.002  1.00  0.00    -0.224 NA
HETATM    3  C   UNL     1      -6.238   5.927 -29.875  1.00  0.00     0.236 A 
HETATM    4  N   UNL     1      -4.968   6.089 -30.236  1.00  0.00    -0.234 NA
HETATM    5  C   UNL     1      -4.457   4.985 -30.803  1.00  0.00     0.113 A 
HETATM    6  C   UNL     1      -5.106   3.773 -31.011  1.00  0.00     0.055 A 
HETATM    7  S   UNL     1      -2.848   4.992 -31.352  1.00  0.00    -0.081 SA
HETATM    8  C   UNL     1      -2.978   3.395 -31.923  1.00  0.00     0.062 A 
HETATM    9  C   UNL     1      -4.229   2.838 -31.709  1.00  0.00    -0.003 A 
ENDROOT
BRANCH   9  10
HETATM   10  C   UNL     1      -4.570   1.443 -32.182  1.00  0.00     0.188 C 
HETATM   11  O   UNL     1      -5.469   1.471 -33.306  1.00  0.00    -0.336 OA
HETATM   12  C   UNL     1      -5.715   0.194 -33.748  1.00  0.00     0.103 A 
HETATM   13  C   UNL     1      -4.871  -0.887 -33.463  1.00  0.00     0.102 A 
HETATM   14  C   UNL     1      -6.867   0.002 -34.506  1.00  0.00     0.040 A 
HETATM   15  O   UNL     1      -3.715  -0.774 -32.733  1.00  0.00    -0.345 OA
HETATM   16  C   UNL     1      -5.208  -2.166 -33.902  1.00  0.00     0.039 A 
HETATM   17  C   UNL     1      -3.340   0.597 -32.524  1.00  0.00     0.213 C 
HETATM   18  C   UNL     1      -6.373  -2.362 -34.645  1.00  0.00     0.003 A 
HETATM   19  C   UNL     1      -7.200  -1.279 -34.950  1.00  0.00     0.003 A 
ENDBRANCH   9  10
BRANCH   1  20
HETATM   20  N   UNL     1      -7.199   2.549 -30.643  1.00  0.00    -0.366 N 
HETATM   21  H   UNL     1      -7.199   2.042 -29.759  1.00  0.00     0.162 HD
BRANCH  20  22
HETATM   22  C   UNL     1      -8.475   2.462 -31.371  1.00  0.00     0.021 C 
HETATM   23  C   UNL     1      -8.377   3.119 -32.756  1.00  0.00     0.037 C 
HETATM   24  C   UNL     1      -9.637   3.041 -30.554  1.00  0.00     0.037 C 
HETATM   25  C   UNL     1      -8.747   0.958 -31.589  1.00  0.00     0.037 C 
ENDBRANCH  20  22
ENDBRANCH   1  20
TORSDOF 3
ENDMDL
MODEL 6
REMARK VINA RESULT:      -7.3      3.405      6.631
REMARK  3 active torsions:
REMARK  status: ('A' for Active; 'I' for Inactive)
REMARK    1  A    between atoms: C_2  and  N_3 
REMARK    2  A    between atoms: N_3  and  C_4 
REMARK    3  A    between atoms: C_12  and  C_13 
ROOT
HETATM    1  C   UNL     1      -6.315   1.443 -33.321  1.00  0.00     0.139 A 
HETATM    2  N   UNL     1      -6.839   0.215 -33.521  1.00  0.00    -0.224 NA
HETATM    3  C   UNL     1      -8.125   0.090 -33.871  1.00  0.00     0.236 A 
HETATM    4  N   UNL     1      -9.006   1.067 -34.067  1.00  0.00    -0.234 NA
HETATM    5  C   UNL     1      -8.462   2.282 -33.897  1.00  0.00     0.113 A 
HETATM    6  C   UNL     1      -7.148   2.570 -33.544  1.00  0.00     0.055 A 
HETATM    7  S   UNL     1      -9.420   3.668 -34.120  1.00  0.00    -0.081 SA
HETATM    8  C   UNL     1      -8.105   4.697 -33.796  1.00  0.00     0.062 A 
HETATM    9  C   UNL     1      -6.932   4.013 -33.517  1.00  0.00    -0.003 A 
ENDROOT
BRANCH   9  10
HETATM   10  C   UNL     1      -5.633   4.739 -33.247  1.00  0.00     0.188 C 
HETATM   11  O   UNL     1      -4.735   4.649 -34.368  1.00  0.00    -0.336 OA
HETATM   12  C   UNL     1      -3.589   5.364 -34.116  1.00  0.00     0.103 A 
HETATM   13  C   UNL     1      -3.521   6.378 -33.152  1.00  0.00     0.102 A 
HETATM   14  C   UNL     1      -2.463   5.033 -34.866  1.00  0.00     0.040 A 
HETATM   15  O   UNL     1      -4.588   6.767 -32.383  1.00  0.00    -0.345 OA
HETATM   16  C   UNL     1      -2.312   7.030 -32.914  1.00  0.00     0.039 A 
HETATM   17  C   UNL     1      -5.825   6.207 -32.854  1.00  0.00     0.213 C 
HETATM   18  C   UNL     1      -1.179   6.686 -33.652  1.00  0.00     0.003 A 
HETATM   19  C   UNL     1      -1.255   5.691 -34.629  1.00  0.00     0.003 A 
ENDBRANCH   9  10
BRANCH   1  20
HETATM   20  N   UNL     1      -4.994   1.578 -32.920  1.00  0.00    -0.366 N 
HETATM   21  H   UNL     1      -4.534   2.328 -33.437  1.00  0.00     0.162 HD
BRANCH  20  22
HETATM   22  C   UNL     1      -4.547   1.468 -31.522  1.00  0.00     0.021 C 
HETATM   23  C   UNL     1      -3.975   0.075 -31.224  1.00  0.00     0.037 C 
HETATM   24  C   UNL     1      -5.663   1.841 -30.538  1.00  0.00     0.037 C 
HETATM   25  C   UNL     1      -3.400   2.488 -31.352  1.00  0.00     0.037 C 
ENDBRANCH  20  22
ENDBRANCH   1  20
TORSDOF 3
ENDMDL
MODEL 7
REMARK VINA RESULT:      -7.2      2.653      5.813
REMARK  3 active torsions:
REMARK  status: ('A' for Active; 'I' for Inactive)
REMARK    1  A    between atoms: C_2  and  N_3 
REMARK    2  A    between atoms: N_3  and  C_4 
REMARK    3  A    between atoms: C_12  and  C_13 
ROOT
HETATM    1  C   UNL     1      -5.882  -0.426 -34.070  1.00  0.00     0.139 A 
HETATM    2  N   UNL     1      -6.262  -1.480 -34.824  1.00  0.00    -0.224 NA
HETATM    3  C   UNL     1      -5.623  -2.649 -34.702  1.00  0.00     0.236 A 
HETATM    4  N   UNL     1      -4.610  -2.933 -33.888  1.00  0.00    -0.234 NA
HETATM    5  C   UNL     1      -4.265  -1.887 -33.123  1.00  0.00     0.113 A 
HETATM    6  C   UNL     1      -4.838  -0.619 -33.128  1.00  0.00     0.055 A 
HETATM    7  S   UNL     1      -3.000  -2.050 -31.998  1.00  0.00    -0.081 SA
HETATM    8  C   UNL     1      -3.203  -0.451 -31.454  1.00  0.00     0.062 A 
HETATM    9  C   UNL     1      -4.222   0.224 -32.108  1.00  0.00    -0.003 A 
ENDROOT
BRANCH   9  10
HETATM   10  C   UNL     1      -4.598   1.642 -31.743  1.00  0.00     0.188 C 
HETATM   11  O   UNL     1      -5.601   1.673 -30.710  1.00  0.00    -0.336 OA
HETATM   12  C   UNL     1      -5.880   2.972 -30.361  1.00  0.00     0.103 A 
HETATM   13  C   UNL     1      -5.007   4.036 -30.620  1.00  0.00     0.102 A 
HETATM   14  C   UNL     1      -7.099   3.205 -29.728  1.00  0.00     0.040 A 
HETATM   15  O   UNL     1      -3.788   3.884 -31.229  1.00  0.00    -0.345 OA
HETATM   16  C   UNL     1      -5.377   5.336 -30.282  1.00  0.00     0.039 A 
HETATM   17  C   UNL     1      -3.402   2.504 -31.330  1.00  0.00     0.213 C 
HETATM   18  C   UNL     1      -6.606   5.572 -29.665  1.00  0.00     0.003 A 
HETATM   19  C   UNL     1      -7.465   4.508 -29.385  1.00  0.00     0.003 A 
ENDBRANCH   9  10
BRANCH   1  20
HETATM   20  N   UNL     1      -6.514   0.801 -34.219  1.00  0.00    -0.366 N 
HETATM   21  H   UNL     1      -6.340   1.186 -35.148  1.00  0.00     0.162 HD
BRANCH  20  22
HETATM   22  C   UNL     1      -7.858   1.097 -33.701  1.00  0.00     0.021 C 
HETATM   23  C   UNL     1      -8.134   0.342 -32.392  1.00  0.00     0.037 C 
HETATM   24  C   UNL     1      -8.945   0.824 -34.749  1.00  0.00     0.037 C 
HETATM   25  C   UNL     1      -7.874   2.607 -33.378  1.00  0.00     0.037 C 
ENDBRANCH  20  22
ENDBRANCH   1  20
TORSDOF 3
ENDMDL
MODEL 8
REMARK VINA RESULT:      -7.0     14.823     16.488
REMARK  3 active torsions:
REMARK  status: ('A' for Active; 'I' for Inactive)
REMARK    1  A    between atoms: C_2  and  N_3 
REMARK    2  A    between atoms: N_3  and  C_4 
REMARK    3  A    between atoms: C_12  and  C_13 
ROOT
HETATM    1  C   UNL     1      -2.066 -14.185 -40.656  1.00  0.00     0.139 A 
HETATM    2  N   UNL     1      -0.826 -14.617 -40.971  1.00  0.00    -0.224 NA
HETATM    3  C   UNL     1       0.088 -14.774 -40.006  1.00  0.00     0.236 A 
HETATM    4  N   UNL     1      -0.070 -14.558 -38.704  1.00  0.00    -0.234 NA
HETATM    5  C   UNL     1      -1.316 -14.161 -38.402  1.00  0.00     0.113 A 
HETATM    6  C   UNL     1      -2.370 -13.963 -39.288  1.00  0.00     0.055 A 
HETATM    7  S   UNL     1      -1.728 -13.848 -36.783  1.00  0.00    -0.081 SA
HETATM    8  C   UNL     1      -3.334 -13.480 -37.205  1.00  0.00     0.062 A 
HETATM    9  C   UNL     1      -3.581 -13.588 -38.565  1.00  0.00    -0.003 A 
ENDROOT
BRANCH   9  10
HETATM   10  C   UNL     1      -4.956 -13.348 -39.145  1.00  0.00     0.188 C 
HETATM   11  O   UNL     1      -5.986 -13.534 -38.155  1.00  0.00    -0.336 OA
HETATM   12  C   UNL     1      -7.218 -13.255 -38.696  1.00  0.00     0.103 A 
HETATM   13  C   UNL     1      -7.386 -12.475 -39.847  1.00  0.00     0.102 A 
HETATM   14  C   UNL     1      -8.326 -13.794 -38.047  1.00  0.00     0.040 A 
HETATM   15  O   UNL     1      -6.345 -11.903 -40.534  1.00  0.00    -0.345 OA
HETATM   16  C   UNL     1      -8.662 -12.273 -40.369  1.00  0.00     0.039 A 
HETATM   17  C   UNL     1      -5.111 -11.974 -39.802  1.00  0.00     0.213 C 
HETATM   18  C   UNL     1      -9.771 -12.829 -39.730  1.00  0.00     0.003 A 
HETATM   19  C   UNL     1      -9.604 -13.586 -38.569  1.00  0.00     0.003 A 
ENDBRANCH   9  10
BRANCH   1  20
HETATM   20  N   UNL     1      -3.007 -13.982 -41.656  1.00  0.00    -0.366 N 
HETATM   21  H   UNL     1      -2.662 -13.316 -42.347  1.00  0.00     0.162 HD
BRANCH  20  22
HETATM   22  C   UNL     1      -3.832 -15.054 -42.234  1.00  0.00     0.021 C 
HETATM   23  C   UNL     1      -5.210 -14.532 -42.665  1.00  0.00     0.037 C 
HETATM   24  C   UNL     1      -3.957 -16.251 -41.283  1.00  0.00     0.037 C 
HETATM   25  C   UNL     1      -3.096 -15.529 -43.506  1.00  0.00     0.037 C 
ENDBRANCH  20  22
ENDBRANCH   1  20
TORSDOF 3
ENDMDL
MODEL 9
REMARK VINA RESULT:      -6.9      3.047      6.250
REMARK  3 active torsions:
REMARK  status: ('A' for Active; 'I' for Inactive)
REMARK    1  A    between atoms: C_2  and  N_3 
REMARK    2  A    between atoms: N_3  and  C_4 
REMARK    3  A    between atoms: C_12  and  C_13 
ROOT
HETATM    1  C   UNL     1      -5.594   2.423 -32.990  1.00  0.00     0.139 A 
HETATM    2  N   UNL     1      -4.434   2.035 -32.419  1.00  0.00    -0.224 NA
HETATM    3  C   UNL     1      -3.686   2.929 -31.761  1.00  0.00     0.236 A 
HETATM    4  N   UNL     1      -3.948   4.219 -31.577  1.00  0.00    -0.234 NA
HETATM    5  C   UNL     1      -5.119   4.582 -32.122  1.00  0.00     0.113 A 
HETATM    6  C   UNL     1      -6.005   3.771 -32.823  1.00  0.00     0.055 A 
HETATM    7  S   UNL     1      -5.648   6.192 -31.982  1.00  0.00    -0.081 SA
HETATM    8  C   UNL     1      -7.092   5.850 -32.812  1.00  0.00     0.062 A 
HETATM    9  C   UNL     1      -7.196   4.524 -33.205  1.00  0.00    -0.003 A 
ENDROOT
BRANCH   9  10
HETATM   10  C   UNL     1      -8.421   3.999 -33.917  1.00  0.00     0.188 C 
HETATM   11  O   UNL     1      -9.166   3.090 -33.085  1.00  0.00    -0.336 OA
HETATM   12  C   UNL     1     -10.303   2.675 -33.737  1.00  0.00     0.103 A 
HETATM   13  C   UNL     1     -10.866   3.379 -34.808  1.00  0.00     0.102 A 
HETATM   14  C   UNL     1     -10.888   1.494 -33.289  1.00  0.00     0.040 A 
HETATM   15  O   UNL     1     -10.354   4.553 -35.298  1.00  0.00    -0.345 OA
HETATM   16  C   UNL     1     -11.993   2.874 -35.455  1.00  0.00     0.039 A 
HETATM   17  C   UNL     1      -9.346   5.104 -34.435  1.00  0.00     0.213 C 
HETATM   18  C   UNL     1     -12.569   1.679 -35.019  1.00  0.00     0.003 A 
HETATM   19  C   UNL     1     -12.019   0.992 -33.935  1.00  0.00     0.003 A 
ENDBRANCH   9  10
BRANCH   1  20
HETATM   20  N   UNL     1      -6.355   1.510 -33.708  1.00  0.00    -0.366 N 
HETATM   21  H   UNL     1      -6.024   1.441 -34.670  1.00  0.00     0.162 HD
BRANCH  20  22
HETATM   22  C   UNL     1      -6.836   0.234 -33.158  1.00  0.00     0.021 C 
HETATM   23  C   UNL     1      -7.477   0.424 -31.775  1.00  0.00     0.037 C 
HETATM   24  C   UNL     1      -5.726  -0.825 -33.122  1.00  0.00     0.037 C 
HETATM   25  C   UNL     1      -7.940  -0.263 -34.117  1.00  0.00     0.037 C 
ENDBRANCH  20  22
ENDBRANCH   1  20
TORSDOF 3
ENDMDL
MODEL 10
REMARK VINA RESULT:      -6.8      2.800      5.877
REMARK  3 active torsions:
REMARK  status: ('A' for Active; 'I' for Inactive)
REMARK    1  A    between atoms: C_2  and  N_3 
REMARK    2  A    between atoms: N_3  and  C_4 
REMARK    3  A    between atoms: C_12  and  C_13 
ROOT
HETATM    1  C   UNL     1      -7.107   0.833 -33.242  1.00  0.00     0.139 A 
HETATM    2  N   UNL     1      -8.067  -0.034 -33.629  1.00  0.00    -0.224 NA
HETATM    3  C   UNL     1      -9.329   0.149 -33.224  1.00  0.00     0.236 A 
HETATM    4  N   UNL     1      -9.795   1.128 -32.454  1.00  0.00    -0.234 NA
HETATM    5  C   UNL     1      -8.837   2.000 -32.106  1.00  0.00     0.113 A 
HETATM    6  C   UNL     1      -7.491   1.949 -32.454  1.00  0.00     0.055 A 
HETATM    7  S   UNL     1      -9.231   3.338 -31.135  1.00  0.00    -0.081 SA
HETATM    8  C   UNL     1      -7.633   3.916 -31.183  1.00  0.00     0.062 A 
HETATM    9  C   UNL     1      -6.783   3.112 -31.928  1.00  0.00    -0.003 A 
ENDROOT
BRANCH   9  10
HETATM   10  C   UNL     1      -5.329   3.470 -32.137  1.00  0.00     0.188 C 
HETATM   11  O   UNL     1      -5.165   4.877 -32.398  1.00  0.00    -0.336 OA
HETATM   12  C   UNL     1      -3.831   5.181 -32.526  1.00  0.00     0.103 A 
HETATM   13  C   UNL     1      -2.811   4.366 -32.020  1.00  0.00     0.102 A 
HETATM   14  C   UNL     1      -3.517   6.358 -33.202  1.00  0.00     0.040 A 
HETATM   15  O   UNL     1      -3.042   3.200 -31.335  1.00  0.00    -0.345 OA
HETATM   16  C   UNL     1      -1.477   4.712 -32.229  1.00  0.00     0.039 A 
HETATM   17  C   UNL     1      -4.424   3.050 -30.975  1.00  0.00     0.213 C 
HETATM   18  C   UNL     1      -1.161   5.880 -32.924  1.00  0.00     0.003 A 
HETATM   19  C   UNL     1      -2.180   6.704 -33.407  1.00  0.00     0.003 A 
ENDBRANCH   9  10
BRANCH   1  20
HETATM   20  N   UNL     1      -5.789   0.628 -33.626  1.00  0.00    -0.366 N 
HETATM   21  H   UNL     1      -5.337   1.514 -33.853  1.00  0.00     0.162 HD
BRANCH  20  22
HETATM   22  C   UNL     1      -4.891  -0.343 -32.983  1.00  0.00     0.021 C 
HETATM   23  C   UNL     1      -5.327  -0.643 -31.541  1.00  0.00     0.037 C 
HETATM   24  C   UNL     1      -3.426   0.110 -33.044  1.00  0.00     0.037 C 
HETATM   25  C   UNL     1      -5.020  -1.653 -33.789  1.00  0.00     0.037 C 
ENDBRANCH  20  22
ENDBRANCH   1  20
TORSDOF 3
ENDMDL
