MODEL 1
REMARK VINA RESULT:      -8.3      0.000      0.000
REMARK  5 active torsions:
REMARK  status: ('A' for Active; 'I' for Inactive)
REMARK    1  A    between atoms: C_2  and  N_3 
REMARK       I    between atoms: N_3  and  C_4 
REMARK    2  A    between atoms: C_4  and  C_5 
REMARK    3  A    between atoms: C_13  and  C_14 
REMARK    4  A    between atoms: C_15  and  O_16 
REMARK    5  A    between atoms: C_19  and  O_20 
ROOT
HETATM    1  C   UNL     1      -3.478   3.345 -31.627  1.00  0.00     0.046 A 
HETATM    2  C   UNL     1      -4.652   3.704 -30.926  1.00  0.00     0.008 A 
HETATM    3  C   UNL     1      -5.598   2.679 -30.737  1.00  0.00     0.068 A 
HETATM    4  C   UNL     1      -6.771   2.966 -30.051  1.00  0.00     0.032 A 
HETATM    5  C   UNL     1      -7.039   4.238 -29.542  1.00  0.00     0.002 A 
HETATM    6  C   UNL     1      -6.113   5.255 -29.716  1.00  0.00     0.001 A 
HETATM    7  C   UNL     1      -4.927   4.992 -30.400  1.00  0.00     0.015 A 
HETATM    8  N   UNL     1      -5.420   1.424 -31.183  1.00  0.00    -0.247 NA
HETATM    9  C   UNL     1      -4.300   1.118 -31.880  1.00  0.00     0.071 A 
HETATM   10  C   UNL     1      -3.305   2.049 -32.117  1.00  0.00     0.050 A 
ENDROOT
BRANCH   9  11
HETATM   11  C   UNL     1      -4.179  -0.271 -32.337  1.00  0.00     0.026 A 
HETATM   12  C   UNL     1      -4.904  -0.769 -33.433  1.00  0.00     0.083 A 
HETATM   13  C   UNL     1      -4.743  -2.087 -33.885  1.00  0.00     0.074 A 
HETATM   14  C   UNL     1      -3.876  -2.950 -33.219  1.00  0.00     0.070 A 
HETATM   15  C   UNL     1      -3.165  -2.480 -32.114  1.00  0.00     0.038 A 
HETATM   16  C   UNL     1      -3.311  -1.158 -31.679  1.00  0.00     0.019 A 
BRANCH  12  17
HETATM   17  O   UNL     1      -5.722   0.070 -34.153  1.00  0.00    -0.355 OA
HETATM   18  C   UNL     1      -6.692  -0.688 -34.877  1.00  0.00     0.210 C 
ENDBRANCH  12  17
BRANCH  14  19
HETATM   19  O   UNL     1      -3.628  -4.254 -33.546  1.00  0.00    -0.356 OA
HETATM   20  C   UNL     1      -4.678  -4.967 -34.187  1.00  0.00     0.210 C 
ENDBRANCH  14  19
ENDBRANCH   9  11
BRANCH   1  21
HETATM   21  C   UNL     1      -2.389   4.322 -31.883  1.00  0.00     0.253 C 
HETATM   22  N   UNL     1      -1.829   4.866 -30.744  1.00  0.00    -0.349 N 
HETATM   23  H   UNL     1      -2.302   4.691 -29.867  1.00  0.00     0.163 HD
HETATM   24  O   UNL     1      -2.057   4.592 -33.029  1.00  0.00    -0.268 OA
BRANCH  22  25
HETATM   25  C   UNL     1      -0.775   5.893 -30.738  1.00  0.00     0.022 C 
HETATM   26  C   UNL     1      -1.131   7.042 -31.693  1.00  0.00     0.037 C 
HETATM   27  C   UNL     1       0.589   5.293 -31.116  1.00  0.00     0.037 C 
HETATM   28  C   UNL     1      -0.670   6.456 -29.309  1.00  0.00     0.037 C 
ENDBRANCH  22  25
ENDBRANCH   1  21
TORSDOF 5
ENDMDL
MODEL 2
REMARK VINA RESULT:      -8.2      3.638      6.850
REMARK  5 active torsions:
REMARK  status: ('A' for Active; 'I' for Inactive)
REMARK    1  A    between atoms: C_2  and  N_3 
REMARK       I    between atoms: N_3  and  C_4 
REMARK    2  A    between atoms: C_4  and  C_5 
REMARK    3  A    between atoms: C_13  and  C_14 
REMARK    4  A    between atoms: C_15  and  O_16 
REMARK    5  A    between atoms: C_19  and  O_20 
ROOT
HETATM    1  C   UNL     1      -9.179   1.778 -32.815  1.00  0.00     0.046 A 
HETATM    2  C   UNL     1      -8.719   2.529 -31.711  1.00  0.00     0.008 A 
HETATM    3  C   UNL     1      -7.465   2.158 -31.189  1.00  0.00     0.068 A 
HETATM    4  C   UNL     1      -6.953   2.861 -30.107  1.00  0.00     0.032 A 
HETATM    5  C   UNL     1      -7.641   3.926 -29.522  1.00  0.00     0.002 A 
HETATM    6  C   UNL     1      -8.874   4.306 -30.030  1.00  0.00     0.001 A 
HETATM    7  C   UNL     1      -9.409   3.617 -31.117  1.00  0.00     0.015 A 
HETATM    8  N   UNL     1      -6.728   1.154 -31.694  1.00  0.00    -0.247 NA
HETATM    9  C   UNL     1      -7.211   0.430 -32.731  1.00  0.00     0.071 A 
HETATM   10  C   UNL     1      -8.429   0.715 -33.321  1.00  0.00     0.050 A 
ENDROOT
BRANCH   9  11
HETATM   11  C   UNL     1      -6.350  -0.652 -33.223  1.00  0.00     0.026 A 
HETATM   12  C   UNL     1      -4.969  -0.689 -32.971  1.00  0.00     0.083 A 
HETATM   13  C   UNL     1      -4.168  -1.753 -33.410  1.00  0.00     0.074 A 
HETATM   14  C   UNL     1      -4.733  -2.790 -34.150  1.00  0.00     0.070 A 
HETATM   15  C   UNL     1      -6.100  -2.758 -34.430  1.00  0.00     0.038 A 
HETATM   16  C   UNL     1      -6.900  -1.707 -33.972  1.00  0.00     0.019 A 
BRANCH  12  17
HETATM   17  O   UNL     1      -4.387   0.284 -32.192  1.00  0.00    -0.355 OA
HETATM   18  C   UNL     1      -3.447  -0.302 -31.291  1.00  0.00     0.210 C 
ENDBRANCH  12  17
BRANCH  14  19
HETATM   19  O   UNL     1      -4.073  -3.881 -34.642  1.00  0.00    -0.356 OA
HETATM   20  C   UNL     1      -3.460  -4.745 -33.693  1.00  0.00     0.210 C 
ENDBRANCH  14  19
ENDBRANCH   9  11
BRANCH   1  21
HETATM   21  C   UNL     1     -10.477   2.071 -33.475  1.00  0.00     0.253 C 
HETATM   22  N   UNL     1     -11.474   1.153 -33.212  1.00  0.00    -0.349 N 
HETATM   23  H   UNL     1     -11.202   0.296 -32.748  1.00  0.00     0.163 HD
HETATM   24  O   UNL     1     -10.599   3.057 -34.189  1.00  0.00    -0.268 OA
BRANCH  22  25
HETATM   25  C   UNL     1     -12.826   1.196 -33.791  1.00  0.00     0.022 C 
HETATM   26  C   UNL     1     -12.765   1.537 -35.288  1.00  0.00     0.037 C 
HETATM   27  C   UNL     1     -13.715   2.209 -33.053  1.00  0.00     0.037 C 
HETATM   28  C   UNL     1     -13.455  -0.200 -33.630  1.00  0.00     0.037 C 
ENDBRANCH  22  25
ENDBRANCH   1  21
TORSDOF 5
ENDMDL
MODEL 3
REMARK VINA RESULT:      -8.2      1.809      2.496
REMARK  5 active torsions:
REMARK  status: ('A' for Active; 'I' for Inactive)
REMARK    1  A    between atoms: C_2  and  N_3 
REMARK       I    between atoms: N_3  and  C_4 
REMARK    2  A    between atoms: C_4  and  C_5 
REMARK    3  A    between atoms: C_13  and  C_14 
REMARK    4  A    between atoms: C_15  and  O_16 
REMARK    5  A    between atoms: C_19  and  O_20 
ROOT
HETATM    1  C   UNL     1      -5.104   3.627 -32.870  1.00  0.00     0.046 A 
HETATM    2  C   UNL     1      -6.074   3.855 -31.869  1.00  0.00     0.008 A 
HETATM    3  C   UNL     1      -6.826   2.733 -31.468  1.00  0.00     0.068 A 
HETATM    4  C   UNL     1      -7.792   2.889 -30.483  1.00  0.00     0.032 A 
HETATM    5  C   UNL     1      -8.040   4.122 -29.877  1.00  0.00     0.002 A 
HETATM    6  C   UNL     1      -7.303   5.234 -30.258  1.00  0.00     0.001 A 
HETATM    7  C   UNL     1      -6.326   5.103 -31.243  1.00  0.00     0.015 A 
HETATM    8  N   UNL     1      -6.648   1.507 -31.989  1.00  0.00    -0.247 NA
HETATM    9  C   UNL     1      -5.734   1.327 -32.971  1.00  0.00     0.071 A 
HETATM   10  C   UNL     1      -4.940   2.360 -33.433  1.00  0.00     0.050 A 
ENDROOT
BRANCH   9  11
HETATM   11  C   UNL     1      -5.602  -0.039 -33.491  1.00  0.00     0.026 A 
HETATM   12  C   UNL     1      -4.389  -0.747 -33.447  1.00  0.00     0.083 A 
HETATM   13  C   UNL     1      -4.291  -2.069 -33.907  1.00  0.00     0.074 A 
HETATM   14  C   UNL     1      -5.404  -2.698 -34.459  1.00  0.00     0.070 A 
HETATM   15  C   UNL     1      -6.612  -2.001 -34.532  1.00  0.00     0.038 A 
HETATM   16  C   UNL     1      -6.712  -0.691 -34.053  1.00  0.00     0.019 A 
BRANCH  12  17
HETATM   17  O   UNL     1      -3.285  -0.182 -32.853  1.00  0.00    -0.355 OA
HETATM   18  C   UNL     1      -2.983  -0.855 -31.630  1.00  0.00     0.210 C 
ENDBRANCH  12  17
BRANCH  14  19
HETATM   19  O   UNL     1      -5.449  -3.974 -34.948  1.00  0.00    -0.356 OA
HETATM   20  C   UNL     1      -6.732  -4.489 -35.282  1.00  0.00     0.210 C 
ENDBRANCH  14  19
ENDBRANCH   9  11
BRANCH   1  21
HETATM   21  C   UNL     1      -4.230   4.716 -33.375  1.00  0.00     0.253 C 
HETATM   22  N   UNL     1      -2.962   4.733 -32.829  1.00  0.00    -0.349 N 
HETATM   23  H   UNL     1      -2.794   4.130 -32.034  1.00  0.00     0.163 HD
HETATM   24  O   UNL     1      -4.649   5.512 -34.205  1.00  0.00    -0.268 OA
BRANCH  22  25
HETATM   25  C   UNL     1      -1.934   5.743 -33.128  1.00  0.00     0.022 C 
HETATM   26  C   UNL     1      -2.473   7.158 -32.868  1.00  0.00     0.037 C 
HETATM   27  C   UNL     1      -1.440   5.621 -34.578  1.00  0.00     0.037 C 
HETATM   28  C   UNL     1      -0.738   5.493 -32.191  1.00  0.00     0.037 C 
ENDBRANCH  22  25
ENDBRANCH   1  21
TORSDOF 5
ENDMDL
MODEL 4
REMARK VINA RESULT:      -7.9      4.181      6.804
REMARK  5 active torsions:
REMARK  status: ('A' for Active; 'I' for Inactive)
REMARK    1  A    between atoms: C_2  and  N_3 
REMARK       I    between atoms: N_3  and  C_4 
REMARK    2  A    between atoms: C_4  and  C_5 
REMARK    3  A    between atoms: C_13  and  C_14 
REMARK    4  A    between atoms: C_15  and  O_16 
REMARK    5  A    between atoms: C_19  and  O_20 
ROOT
HETATM    1  C   UNL     1      -6.447   1.316 -32.750  1.00  0.00     0.046 A 
HETATM    2  C   UNL     1      -5.992   0.083 -33.270  1.00  0.00     0.008 A 
HETATM    3  C   UNL     1      -6.960  -0.711 -33.916  1.00  0.00     0.068 A 
HETATM    4  C   UNL     1      -6.575  -1.931 -34.454  1.00  0.00     0.032 A 
HETATM    5  C   UNL     1      -5.261  -2.395 -34.377  1.00  0.00     0.002 A 
HETATM    6  C   UNL     1      -4.297  -1.621 -33.749  1.00  0.00     0.001 A 
HETATM    7  C   UNL     1      -4.657  -0.390 -33.202  1.00  0.00     0.015 A 
HETATM    8  N   UNL     1      -8.245  -0.341 -34.046  1.00  0.00    -0.247 NA
HETATM    9  C   UNL     1      -8.657   0.831 -33.508  1.00  0.00     0.071 A 
HETATM   10  C   UNL     1      -7.788   1.687 -32.858  1.00  0.00     0.050 A 
ENDROOT
BRANCH   9  11
HETATM   11  C   UNL     1     -10.075   1.163 -33.688  1.00  0.00     0.026 A 
HETATM   12  C   UNL     1     -10.500   2.401 -34.200  1.00  0.00     0.083 A 
HETATM   13  C   UNL     1     -11.857   2.686 -34.408  1.00  0.00     0.074 A 
HETATM   14  C   UNL     1     -12.826   1.744 -34.070  1.00  0.00     0.070 A 
HETATM   15  C   UNL     1     -12.424   0.517 -33.539  1.00  0.00     0.038 A 
HETATM   16  C   UNL     1     -11.069   0.228 -33.352  1.00  0.00     0.019 A 
BRANCH  12  17
HETATM   17  O   UNL     1      -9.571   3.332 -34.602  1.00  0.00    -0.355 OA
HETATM   18  C   UNL     1     -10.206   4.585 -34.858  1.00  0.00     0.210 C 
ENDBRANCH  12  17
BRANCH  14  19
HETATM   19  O   UNL     1     -14.177   1.889 -34.215  1.00  0.00    -0.356 OA
HETATM   20  C   UNL     1     -14.951   0.697 -34.261  1.00  0.00     0.210 C 
ENDBRANCH  14  19
ENDBRANCH   9  11
BRANCH   1  21
HETATM   21  C   UNL     1      -5.531   2.259 -32.060  1.00  0.00     0.253 C 
HETATM   22  N   UNL     1      -5.093   3.309 -32.843  1.00  0.00    -0.349 N 
HETATM   23  H   UNL     1      -5.287   3.258 -33.834  1.00  0.00     0.163 HD
HETATM   24  O   UNL     1      -5.217   2.074 -30.892  1.00  0.00    -0.268 OA
BRANCH  22  25
HETATM   25  C   UNL     1      -4.141   4.341 -32.404  1.00  0.00     0.022 C 
HETATM   26  C   UNL     1      -2.766   3.721 -32.109  1.00  0.00     0.037 C 
HETATM   27  C   UNL     1      -4.662   5.089 -31.166  1.00  0.00     0.037 C 
HETATM   28  C   UNL     1      -3.985   5.359 -33.548  1.00  0.00     0.037 C 
ENDBRANCH  22  25
ENDBRANCH   1  21
TORSDOF 5
ENDMDL
MODEL 5
REMARK VINA RESULT:      -7.7      3.824      6.667
REMARK  5 active torsions:
REMARK  status: ('A' for Active; 'I' for Inactive)
REMARK    1  A    between atoms: C_2  and  N_3 
REMARK       I    between atoms: N_3  and  C_4 
REMARK    2  A    between atoms: C_4  and  C_5 
REMARK    3  A    between atoms: C_13  and  C_14 
REMARK    4  A    between atoms: C_15  and  O_16 
REMARK    5  A    between atoms: C_19  and  O_20 
ROOT
HETATM    1  C   UNL     1      -8.568   2.144 -33.636  1.00  0.00     0.046 A 
HETATM    2  C   UNL     1      -7.727   3.278 -33.571  1.00  0.00     0.008 A 
HETATM    3  C   UNL     1      -6.343   3.027 -33.649  1.00  0.00     0.068 A 
HETATM    4  C   UNL     1      -5.463   4.099 -33.597  1.00  0.00     0.032 A 
HETATM    5  C   UNL     1      -5.906   5.417 -33.471  1.00  0.00     0.002 A 
HETATM    6  C   UNL     1      -7.266   5.678 -33.400  1.00  0.00     0.001 A 
HETATM    7  C   UNL     1      -8.171   4.619 -33.452  1.00  0.00     0.015 A 
HETATM    8  N   UNL     1      -5.827   1.793 -33.781  1.00  0.00    -0.247 NA
HETATM    9  C   UNL     1      -6.657   0.724 -33.807  1.00  0.00     0.071 A 
HETATM   10  C   UNL     1      -8.032   0.860 -33.743  1.00  0.00     0.050 A 
ENDROOT
BRANCH   9  11
HETATM   11  C   UNL     1      -6.018  -0.590 -33.949  1.00  0.00     0.026 A 
HETATM   12  C   UNL     1      -4.974  -1.014 -33.110  1.00  0.00     0.083 A 
HETATM   13  C   UNL     1      -4.405  -2.290 -33.230  1.00  0.00     0.074 A 
HETATM   14  C   UNL     1      -4.847  -3.159 -34.225  1.00  0.00     0.070 A 
HETATM   15  C   UNL     1      -5.868  -2.746 -35.083  1.00  0.00     0.038 A 
HETATM   16  C   UNL     1      -6.449  -1.481 -34.947  1.00  0.00     0.019 A 
BRANCH  12  17
HETATM   17  O   UNL     1      -4.553  -0.209 -32.078  1.00  0.00    -0.355 OA
HETATM   18  C   UNL     1      -3.144  -0.347 -31.887  1.00  0.00     0.210 C 
ENDBRANCH  12  17
BRANCH  14  19
HETATM   19  O   UNL     1      -4.381  -4.423 -34.458  1.00  0.00    -0.356 OA
HETATM   20  C   UNL     1      -3.319  -4.879 -33.630  1.00  0.00     0.210 C 
ENDBRANCH  14  19
ENDBRANCH   9  11
BRANCH   1  21
HETATM   21  C   UNL     1     -10.047   2.263 -33.583  1.00  0.00     0.253 C 
HETATM   22  N   UNL     1     -10.647   2.504 -34.803  1.00  0.00    -0.349 N 
HETATM   23  H   UNL     1     -10.040   2.741 -35.577  1.00  0.00     0.163 HD
HETATM   24  O   UNL     1     -10.639   2.154 -32.518  1.00  0.00    -0.268 OA
BRANCH  22  25
HETATM   25  C   UNL     1     -12.090   2.714 -35.000  1.00  0.00     0.022 C 
HETATM   26  C   UNL     1     -12.370   3.276 -36.403  1.00  0.00     0.037 C 
HETATM   27  C   UNL     1     -12.667   3.652 -33.929  1.00  0.00     0.037 C 
HETATM   28  C   UNL     1     -12.790   1.349 -34.869  1.00  0.00     0.037 C 
ENDBRANCH  22  25
ENDBRANCH   1  21
TORSDOF 5
ENDMDL
MODEL 6
REMARK VINA RESULT:      -7.7      3.106      4.571
REMARK  5 active torsions:
REMARK  status: ('A' for Active; 'I' for Inactive)
REMARK    1  A    between atoms: C_2  and  N_3 
REMARK       I    between atoms: N_3  and  C_4 
REMARK    2  A    between atoms: C_4  and  C_5 
REMARK    3  A    between atoms: C_13  and  C_14 
REMARK    4  A    between atoms: C_15  and  O_16 
REMARK    5  A    between atoms: C_19  and  O_20 
ROOT
HETATM    1  C   UNL     1      -7.610   2.812 -33.504  1.00  0.00     0.046 A 
HETATM    2  C   UNL     1      -8.996   2.546 -33.451  1.00  0.00     0.008 A 
HETATM    3  C   UNL     1      -9.371   1.192 -33.548  1.00  0.00     0.068 A 
HETATM    4  C   UNL     1     -10.719   0.864 -33.496  1.00  0.00     0.032 A 
HETATM    5  C   UNL     1     -11.713   1.833 -33.350  1.00  0.00     0.002 A 
HETATM    6  C   UNL     1     -11.358   3.169 -33.247  1.00  0.00     0.001 A 
HETATM    7  C   UNL     1     -10.011   3.525 -33.295  1.00  0.00     0.015 A 
HETATM    8  N   UNL     1      -8.483   0.193 -33.680  1.00  0.00    -0.247 NA
HETATM    9  C   UNL     1      -7.163   0.482 -33.761  1.00  0.00     0.071 A 
HETATM   10  C   UNL     1      -6.688   1.777 -33.672  1.00  0.00     0.050 A 
ENDROOT
BRANCH   9  11
HETATM   11  C   UNL     1      -6.256  -0.663 -33.909  1.00  0.00     0.026 A 
HETATM   12  C   UNL     1      -5.123  -0.836 -33.096  1.00  0.00     0.083 A 
HETATM   13  C   UNL     1      -4.293  -1.960 -33.220  1.00  0.00     0.074 A 
HETATM   14  C   UNL     1      -4.561  -2.919 -34.193  1.00  0.00     0.070 A 
HETATM   15  C   UNL     1      -5.669  -2.752 -35.025  1.00  0.00     0.038 A 
HETATM   16  C   UNL     1      -6.508  -1.642 -34.885  1.00  0.00     0.019 A 
BRANCH  12  17
HETATM   17  O   UNL     1      -4.861   0.058 -32.085  1.00  0.00    -0.355 OA
HETATM   18  C   UNL     1      -3.478   0.413 -32.086  1.00  0.00     0.210 C 
ENDBRANCH  12  17
BRANCH  14  19
HETATM   19  O   UNL     1      -3.836  -4.055 -34.427  1.00  0.00    -0.356 OA
HETATM   20  C   UNL     1      -3.484  -4.838 -33.293  1.00  0.00     0.210 C 
ENDBRANCH  14  19
ENDBRANCH   9  11
BRANCH   1  21
HETATM   21  C   UNL     1      -7.073   4.192 -33.397  1.00  0.00     0.253 C 
HETATM   22  N   UNL     1      -6.638   4.541 -32.134  1.00  0.00    -0.349 N 
HETATM   23  H   UNL     1      -6.869   3.913 -31.375  1.00  0.00     0.163 HD
HETATM   24  O   UNL     1      -7.045   4.924 -34.377  1.00  0.00    -0.268 OA
BRANCH  22  25
HETATM   25  C   UNL     1      -6.117   5.867 -31.764  1.00  0.00     0.022 C 
HETATM   26  C   UNL     1      -5.749   5.909 -30.272  1.00  0.00     0.037 C 
HETATM   27  C   UNL     1      -7.132   6.974 -32.090  1.00  0.00     0.037 C 
HETATM   28  C   UNL     1      -4.845   6.124 -32.591  1.00  0.00     0.037 C 
ENDBRANCH  22  25
ENDBRANCH   1  21
TORSDOF 5
ENDMDL
MODEL 7
REMARK VINA RESULT:      -7.6      3.399      8.286
REMARK  5 active torsions:
REMARK  status: ('A' for Active; 'I' for Inactive)
REMARK    1  A    between atoms: C_2  and  N_3 
REMARK       I    between atoms: N_3  and  C_4 
REMARK    2  A    between atoms: C_4  and  C_5 
REMARK    3  A    between atoms: C_13  and  C_14 
REMARK    4  A    between atoms: C_15  and  O_16 
REMARK    5  A    between atoms: C_19  and  O_20 
ROOT
HETATM    1  C   UNL     1      -7.946   1.381 -33.539  1.00  0.00     0.046 A 
HETATM    2  C   UNL     1      -7.241   0.176 -33.757  1.00  0.00     0.008 A 
HETATM    3  C   UNL     1      -5.837   0.257 -33.673  1.00  0.00     0.068 A 
HETATM    4  C   UNL     1      -5.087  -0.894 -33.872  1.00  0.00     0.032 A 
HETATM    5  C   UNL     1      -5.679  -2.127 -34.151  1.00  0.00     0.002 A 
HETATM    6  C   UNL     1      -7.060  -2.221 -34.232  1.00  0.00     0.001 A 
HETATM    7  C   UNL     1      -7.837  -1.081 -34.034  1.00  0.00     0.015 A 
HETATM    8  N   UNL     1      -5.183   1.397 -33.398  1.00  0.00    -0.247 NA
HETATM    9  C   UNL     1      -5.885   2.543 -33.227  1.00  0.00     0.071 A 
HETATM   10  C   UNL     1      -7.266   2.573 -33.283  1.00  0.00     0.050 A 
ENDROOT
BRANCH   9  11
HETATM   11  C   UNL     1      -5.098   3.747 -32.934  1.00  0.00     0.026 A 
HETATM   12  C   UNL     1      -4.726   4.104 -31.627  1.00  0.00     0.083 A 
HETATM   13  C   UNL     1      -3.936   5.234 -31.370  1.00  0.00     0.074 A 
HETATM   14  C   UNL     1      -3.532   6.056 -32.420  1.00  0.00     0.070 A 
HETATM   15  C   UNL     1      -3.912   5.729 -33.723  1.00  0.00     0.038 A 
HETATM   16  C   UNL     1      -4.682   4.589 -33.979  1.00  0.00     0.019 A 
BRANCH  12  17
HETATM   17  O   UNL     1      -5.053   3.285 -30.572  1.00  0.00    -0.355 OA
HETATM   18  C   UNL     1      -5.977   3.943 -29.705  1.00  0.00     0.210 C 
ENDBRANCH  12  17
BRANCH  14  19
HETATM   19  O   UNL     1      -2.769   7.184 -32.313  1.00  0.00    -0.356 OA
HETATM   20  C   UNL     1      -1.889   7.470 -33.393  1.00  0.00     0.210 C 
ENDBRANCH  14  19
ENDBRANCH   9  11
BRANCH   1  21
HETATM   21  C   UNL     1      -9.429   1.439 -33.581  1.00  0.00     0.253 C 
HETATM   22  N   UNL     1      -9.941   2.379 -34.454  1.00  0.00    -0.349 N 
HETATM   23  H   UNL     1      -9.290   3.044 -34.850  1.00  0.00     0.163 HD
HETATM   24  O   UNL     1     -10.098   0.695 -32.877  1.00  0.00    -0.268 OA
BRANCH  22  25
HETATM   25  C   UNL     1     -11.374   2.662 -34.633  1.00  0.00     0.022 C 
HETATM   26  C   UNL     1     -12.003   3.137 -33.314  1.00  0.00     0.037 C 
HETATM   27  C   UNL     1     -12.123   1.429 -35.164  1.00  0.00     0.037 C 
HETATM   28  C   UNL     1     -11.507   3.788 -35.674  1.00  0.00     0.037 C 
ENDBRANCH  22  25
ENDBRANCH   1  21
TORSDOF 5
ENDMDL
MODEL 8
REMARK VINA RESULT:      -7.5      3.460      8.321
REMARK  5 active torsions:
REMARK  status: ('A' for Active; 'I' for Inactive)
REMARK    1  A    between atoms: C_2  and  N_3 
REMARK       I    between atoms: N_3  and  C_4 
REMARK    2  A    between atoms: C_4  and  C_5 
REMARK    3  A    between atoms: C_13  and  C_14 
REMARK    4  A    between atoms: C_15  and  O_16 
REMARK    5  A    between atoms: C_19  and  O_20 
ROOT
HETATM    1  C   UNL     1      -8.071   1.510 -33.387  1.00  0.00     0.046 A 
HETATM    2  C   UNL     1      -7.287   0.371 -33.677  1.00  0.00     0.008 A 
HETATM    3  C   UNL     1      -5.900   0.507 -33.477  1.00  0.00     0.068 A 
HETATM    4  C   UNL     1      -5.075  -0.579 -33.738  1.00  0.00     0.032 A 
HETATM    5  C   UNL     1      -5.577  -1.800 -34.191  1.00  0.00     0.002 A 
HETATM    6  C   UNL     1      -6.942  -1.949 -34.387  1.00  0.00     0.001 A 
HETATM    7  C   UNL     1      -7.792  -0.875 -34.130  1.00  0.00     0.015 A 
HETATM    8  N   UNL     1      -5.330   1.640 -33.034  1.00  0.00    -0.247 NA
HETATM    9  C   UNL     1      -6.104   2.725 -32.797  1.00  0.00     0.071 A 
HETATM   10  C   UNL     1      -7.477   2.697 -32.956  1.00  0.00     0.050 A 
ENDROOT
BRANCH   9  11
HETATM   11  C   UNL     1      -5.408   3.926 -32.319  1.00  0.00     0.026 A 
HETATM   12  C   UNL     1      -4.837   4.865 -33.196  1.00  0.00     0.083 A 
HETATM   13  C   UNL     1      -4.215   6.030 -32.723  1.00  0.00     0.074 A 
HETATM   14  C   UNL     1      -4.117   6.260 -31.354  1.00  0.00     0.070 A 
HETATM   15  C   UNL     1      -4.657   5.327 -30.467  1.00  0.00     0.038 A 
HETATM   16  C   UNL     1      -5.296   4.177 -30.941  1.00  0.00     0.019 A 
BRANCH  12  17
HETATM   17  O   UNL     1      -4.969   4.703 -34.555  1.00  0.00    -0.355 OA
HETATM   18  C   UNL     1      -3.812   5.203 -35.226  1.00  0.00     0.210 C 
ENDBRANCH  12  17
BRANCH  14  19
HETATM   19  O   UNL     1      -3.536   7.345 -30.758  1.00  0.00    -0.356 OA
HETATM   20  C   UNL     1      -2.433   7.091 -29.897  1.00  0.00     0.210 C 
ENDBRANCH  14  19
ENDBRANCH   9  11
BRANCH   1  21
HETATM   21  C   UNL     1      -9.549   1.503 -33.538  1.00  0.00     0.253 C 
HETATM   22  N   UNL     1     -10.040   2.452 -34.411  1.00  0.00    -0.349 N 
HETATM   23  H   UNL     1      -9.395   3.161 -34.734  1.00  0.00     0.163 HD
HETATM   24  O   UNL     1     -10.230   0.703 -32.912  1.00  0.00    -0.268 OA
BRANCH  22  25
HETATM   25  C   UNL     1     -11.468   2.678 -34.686  1.00  0.00     0.022 C 
HETATM   26  C   UNL     1     -12.209   3.090 -33.404  1.00  0.00     0.037 C 
HETATM   27  C   UNL     1     -12.121   1.429 -35.298  1.00  0.00     0.037 C 
HETATM   28  C   UNL     1     -11.578   3.825 -35.707  1.00  0.00     0.037 C 
ENDBRANCH  22  25
ENDBRANCH   1  21
TORSDOF 5
ENDMDL
MODEL 9
REMARK VINA RESULT:      -7.5      4.888      7.116
REMARK  5 active torsions:
REMARK  status: ('A' for Active; 'I' for Inactive)
REMARK    1  A    between atoms: C_2  and  N_3 
REMARK       I    between atoms: N_3  and  C_4 
REMARK    2  A    between atoms: C_4  and  C_5 
REMARK    3  A    between atoms: C_13  and  C_14 
REMARK    4  A    between atoms: C_15  and  O_16 
REMARK    5  A    between atoms: C_19  and  O_20 
ROOT
HETATM    1  C   UNL     1     -10.544   2.866 -33.783  1.00  0.00     0.046 A 
HETATM    2  C   UNL     1     -11.738   2.113 -33.723  1.00  0.00     0.008 A 
HETATM    3  C   UNL     1     -11.585   0.719 -33.593  1.00  0.00     0.068 A 
HETATM    4  C   UNL     1     -12.720  -0.077 -33.523  1.00  0.00     0.032 A 
HETATM    5  C   UNL     1     -14.008   0.461 -33.576  1.00  0.00     0.002 A 
HETATM    6  C   UNL     1     -14.173   1.832 -33.698  1.00  0.00     0.001 A 
HETATM    7  C   UNL     1     -13.048   2.654 -33.768  1.00  0.00     0.015 A 
HETATM    8  N   UNL     1     -10.387   0.116 -33.524  1.00  0.00    -0.247 NA
HETATM    9  C   UNL     1      -9.260   0.861 -33.618  1.00  0.00     0.071 A 
HETATM   10  C   UNL     1      -9.298   2.237 -33.742  1.00  0.00     0.050 A 
ENDROOT
BRANCH   9  11
HETATM   11  C   UNL     1      -7.990   0.129 -33.538  1.00  0.00     0.026 A 
HETATM   12  C   UNL     1      -7.225   0.074 -32.361  1.00  0.00     0.083 A 
HETATM   13  C   UNL     1      -6.037  -0.667 -32.289  1.00  0.00     0.074 A 
HETATM   14  C   UNL     1      -5.568  -1.342 -33.413  1.00  0.00     0.070 A 
HETATM   15  C   UNL     1      -6.303  -1.280 -34.598  1.00  0.00     0.038 A 
HETATM   16  C   UNL     1      -7.499  -0.558 -34.661  1.00  0.00     0.019 A 
BRANCH  12  17
HETATM   17  O   UNL     1      -7.687   0.676 -31.214  1.00  0.00    -0.355 OA
HETATM   18  C   UNL     1      -6.798   1.719 -30.811  1.00  0.00     0.210 C 
ENDBRANCH  12  17
BRANCH  14  19
HETATM   19  O   UNL     1      -4.429  -2.095 -33.485  1.00  0.00    -0.356 OA
HETATM   20  C   UNL     1      -4.363  -3.063 -34.525  1.00  0.00     0.210 C 
ENDBRANCH  14  19
ENDBRANCH   9  11
BRANCH   1  21
HETATM   21  C   UNL     1     -10.557   4.346 -33.903  1.00  0.00     0.253 C 
HETATM   22  N   UNL     1     -10.695   5.017 -32.704  1.00  0.00    -0.349 N 
HETATM   23  H   UNL     1     -10.938   4.465 -31.892  1.00  0.00     0.163 HD
HETATM   24  O   UNL     1     -10.456   4.879 -35.000  1.00  0.00    -0.268 OA
BRANCH  22  25
HETATM   25  C   UNL     1     -10.789   6.479 -32.568  1.00  0.00     0.022 C 
HETATM   26  C   UNL     1     -11.989   7.022 -33.361  1.00  0.00     0.037 C 
HETATM   27  C   UNL     1      -9.494   7.165 -33.031  1.00  0.00     0.037 C 
HETATM   28  C   UNL     1     -10.997   6.804 -31.078  1.00  0.00     0.037 C 
ENDBRANCH  22  25
ENDBRANCH   1  21
TORSDOF 5
ENDMDL
MODEL 10
REMARK VINA RESULT:      -7.4      2.210      4.655
REMARK  5 active torsions:
REMARK  status: ('A' for Active; 'I' for Inactive)
REMARK    1  A    between atoms: C_2  and  N_3 
REMARK       I    between atoms: N_3  and  C_4 
REMARK    2  A    between atoms: C_4  and  C_5 
REMARK    3  A    between atoms: C_13  and  C_14 
REMARK    4  A    between atoms: C_15  and  O_16 
REMARK    5  A    between atoms: C_19  and  O_20 
ROOT
HETATM    1  C   UNL     1      -6.161   3.021 -31.276  1.00  0.00     0.046 A 
HETATM    2  C   UNL     1      -4.952   3.747 -31.368  1.00  0.00     0.008 A 
HETATM    3  C   UNL     1      -3.908   3.122 -32.078  1.00  0.00     0.068 A 
HETATM    4  C   UNL     1      -2.696   3.786 -32.209  1.00  0.00     0.032 A 
HETATM    5  C   UNL     1      -2.479   5.051 -31.661  1.00  0.00     0.002 A 
HETATM    6  C   UNL     1      -3.500   5.679 -30.964  1.00  0.00     0.001 A 
HETATM    7  C   UNL     1      -4.728   5.035 -30.820  1.00  0.00     0.015 A 
HETATM    8  N   UNL     1      -4.030   1.912 -32.648  1.00  0.00    -0.247 NA
HETATM    9  C   UNL     1      -5.190   1.227 -32.514  1.00  0.00     0.071 A 
HETATM   10  C   UNL     1      -6.278   1.751 -31.842  1.00  0.00     0.050 A 
ENDROOT
BRANCH   9  11
HETATM   11  C   UNL     1      -5.244  -0.090 -33.161  1.00  0.00     0.026 A 
HETATM   12  C   UNL     1      -6.087  -0.359 -34.253  1.00  0.00     0.083 A 
HETATM   13  C   UNL     1      -6.092  -1.610 -34.887  1.00  0.00     0.074 A 
HETATM   14  C   UNL     1      -5.277  -2.634 -34.415  1.00  0.00     0.070 A 
HETATM   15  C   UNL     1      -4.449  -2.392 -33.316  1.00  0.00     0.038 A 
HETATM   16  C   UNL     1      -4.430  -1.137 -32.699  1.00  0.00     0.019 A 
BRANCH  12  17
HETATM   17  O   UNL     1      -6.860   0.645 -34.786  1.00  0.00    -0.355 OA
HETATM   18  C   UNL     1      -8.244   0.309 -34.685  1.00  0.00     0.210 C 
ENDBRANCH  12  17
BRANCH  14  19
HETATM   19  O   UNL     1      -5.186  -3.897 -34.931  1.00  0.00    -0.356 OA
HETATM   20  C   UNL     1      -6.399  -4.507 -35.354  1.00  0.00     0.210 C 
ENDBRANCH  14  19
ENDBRANCH   9  11
BRANCH   1  21
HETATM   21  C   UNL     1      -7.349   3.566 -30.571  1.00  0.00     0.253 C 
HETATM   22  N   UNL     1      -8.208   4.291 -31.373  1.00  0.00    -0.349 N 
HETATM   23  H   UNL     1      -7.885   4.528 -32.301  1.00  0.00     0.163 HD
HETATM   24  O   UNL     1      -7.505   3.365 -29.374  1.00  0.00    -0.268 OA
BRANCH  22  25
HETATM   25  C   UNL     1      -9.422   4.974 -30.897  1.00  0.00     0.022 C 
HETATM   26  C   UNL     1     -10.472   3.954 -30.431  1.00  0.00     0.037 C 
HETATM   27  C   UNL     1     -10.012   5.883 -31.987  1.00  0.00     0.037 C 
HETATM   28  C   UNL     1      -9.029   5.857 -29.699  1.00  0.00     0.037 C 
ENDBRANCH  22  25
ENDBRANCH   1  21
TORSDOF 5
ENDMDL
