MODEL 1
REMARK VINA RESULT:      -8.7      0.000      0.000
REMARK  6 active torsions:
REMARK  status: ('A' for Active; 'I' for Inactive)
REMARK    1  A    between atoms: C_3  and  C_4 
REMARK    2  A    between atoms: C_4  and  N_5 
REMARK    3  A    between atoms: N_5  and  C_8 
REMARK    4  A    between atoms: C_8  and  C_9 
REMARK    5  A    between atoms: N_12  and  C_13 
REMARK    6  A    between atoms: C_28  and  O_29 
ROOT
HETATM    1  N   UNL     1      -6.563   3.628 -32.293  1.00  0.00    -0.062 N 
HETATM    2  H   UNL     1      -6.936   3.686 -33.246  1.00  0.00     0.278 HD
HETATM    3  H   UNL     1      -6.185   4.552 -32.063  1.00  0.00     0.278 HD
ENDROOT
BRANCH   1   4
HETATM    4  C   UNL     1      -7.703   3.387 -31.381  1.00  0.00     0.290 C 
BRANCH   4   5
HETATM    5  C   UNL     1      -8.949   2.997 -32.098  1.00  0.00     0.042 A 
HETATM    6  C   UNL     1      -9.587   1.787 -32.376  1.00  0.00    -0.025 A 
HETATM    7  C   UNL     1      -9.189   0.401 -31.990  1.00  0.00     0.051 C 
HETATM    8  C   UNL     1     -10.756   2.093 -33.154  1.00  0.00     0.001 A 
HETATM    9  C   UNL     1     -10.805   3.471 -33.318  1.00  0.00     0.043 A 
HETATM   10  C   UNL     1     -11.779   1.318 -33.741  1.00  0.00     0.051 A 
HETATM   11  N   UNL     1      -9.719   3.995 -32.668  1.00  0.00    -0.357 N 
HETATM   12  C   UNL     1     -11.823   4.115 -34.032  1.00  0.00     0.033 A 
HETATM   13  H   UNL     1      -9.525   4.988 -32.636  1.00  0.00     0.166 HD
HETATM   14  C   UNL     1     -12.822   3.319 -34.607  1.00  0.00     0.039 A 
HETATM   15  C   UNL     1     -12.807   1.934 -34.468  1.00  0.00     0.069 A 
BRANCH  15  16
HETATM   16  O   UNL     1     -13.726   1.063 -34.986  1.00  0.00    -0.356 OA
HETATM   17  C   UNL     1     -14.891   0.811 -34.210  1.00  0.00     0.210 C 
ENDBRANCH  15  16
ENDBRANCH   4   5
ENDBRANCH   1   4
BRANCH   1  18
HETATM   18  C   UNL     1      -5.450   2.628 -32.237  1.00  0.00     0.218 C 
HETATM   19  C   UNL     1      -4.170   3.332 -32.685  1.00  0.00     0.045 C 
BRANCH  18  20
HETATM   20  C   UNL     1      -5.734   1.406 -33.048  1.00  0.00     0.015 C 
HETATM   21  C   UNL     1      -5.519   0.069 -32.721  1.00  0.00     0.042 C 
HETATM   22  C   UNL     1      -5.021  -0.511 -31.442  1.00  0.00     0.071 C 
HETATM   23  N   UNL     1      -5.902  -0.685 -33.839  1.00  0.00    -0.238 N 
HETATM   24  N   UNL     1      -6.529   0.117 -34.741  1.00  0.00    -0.179 NA
HETATM   25  C   UNL     1      -6.328   1.356 -34.323  1.00  0.00     0.150 C 
BRANCH  23  26
HETATM   26  C   UNL     1      -5.749  -2.072 -34.137  1.00  0.00     0.058 A 
HETATM   27  C   UNL     1      -6.866  -2.791 -34.599  1.00  0.00     0.031 A 
HETATM   28  C   UNL     1      -6.763  -4.149 -34.907  1.00  0.00     0.002 A 
HETATM   29  C   UNL     1      -5.541  -4.802 -34.775  1.00  0.00     0.000 A 
HETATM   30  C   UNL     1      -4.421  -4.095 -34.344  1.00  0.00     0.002 A 
HETATM   31  C   UNL     1      -4.520  -2.734 -34.030  1.00  0.00     0.031 A 
ENDBRANCH  23  26
ENDBRANCH  18  20
ENDBRANCH   1  18
TORSDOF 6
ENDMDL
MODEL 2
REMARK VINA RESULT:      -8.6      3.875      7.240
REMARK  6 active torsions:
REMARK  status: ('A' for Active; 'I' for Inactive)
REMARK    1  A    between atoms: C_3  and  C_4 
REMARK    2  A    between atoms: C_4  and  N_5 
REMARK    3  A    between atoms: N_5  and  C_8 
REMARK    4  A    between atoms: C_8  and  C_9 
REMARK    5  A    between atoms: N_12  and  C_13 
REMARK    6  A    between atoms: C_28  and  O_29 
ROOT
HETATM    1  N   UNL     1      -6.773   3.656 -32.711  1.00  0.00    -0.062 N 
HETATM    2  H   UNL     1      -6.248   3.529 -31.840  1.00  0.00     0.278 HD
HETATM    3  H   UNL     1      -7.304   4.527 -32.615  1.00  0.00     0.278 HD
ENDROOT
BRANCH   1   4
HETATM    4  C   UNL     1      -5.793   3.863 -33.800  1.00  0.00     0.290 C 
BRANCH   4   5
HETATM    5  C   UNL     1      -4.480   4.368 -33.311  1.00  0.00     0.042 A 
HETATM    6  C   UNL     1      -3.478   3.863 -32.479  1.00  0.00    -0.025 A 
HETATM    7  C   UNL     1      -3.407   2.544 -31.784  1.00  0.00     0.051 C 
HETATM    8  C   UNL     1      -2.465   4.876 -32.373  1.00  0.00     0.001 A 
HETATM    9  C   UNL     1      -2.866   5.958 -33.146  1.00  0.00     0.043 A 
HETATM   10  C   UNL     1      -1.238   4.973 -31.682  1.00  0.00     0.051 A 
HETATM   11  N   UNL     1      -4.071   5.629 -33.708  1.00  0.00    -0.357 N 
HETATM   12  C   UNL     1      -2.106   7.127 -33.268  1.00  0.00     0.033 A 
HETATM   13  H   UNL     1      -4.578   6.253 -34.322  1.00  0.00     0.166 HD
HETATM   14  C   UNL     1      -0.895   7.196 -32.567  1.00  0.00     0.039 A 
HETATM   15  C   UNL     1      -0.459   6.134 -31.779  1.00  0.00     0.069 A 
BRANCH  15  16
HETATM   16  O   UNL     1       0.700   6.094 -31.052  1.00  0.00    -0.356 OA
HETATM   17  C   UNL     1       0.765   5.153 -29.987  1.00  0.00     0.210 C 
ENDBRANCH  15  16
ENDBRANCH   4   5
ENDBRANCH   1   4
BRANCH   1  18
HETATM   18  C   UNL     1      -7.739   2.527 -32.899  1.00  0.00     0.218 C 
HETATM   19  C   UNL     1      -8.830   2.667 -31.837  1.00  0.00     0.045 C 
BRANCH  18  20
HETATM   20  C   UNL     1      -7.075   1.190 -32.851  1.00  0.00     0.015 C 
HETATM   21  C   UNL     1      -6.851   0.286 -33.888  1.00  0.00     0.042 C 
HETATM   22  C   UNL     1      -7.140   0.442 -35.341  1.00  0.00     0.071 C 
HETATM   23  N   UNL     1      -6.242  -0.839 -33.315  1.00  0.00    -0.238 N 
HETATM   24  N   UNL     1      -5.903  -0.572 -32.026  1.00  0.00    -0.179 NA
HETATM   25  C   UNL     1      -6.492   0.574 -31.728  1.00  0.00     0.150 C 
BRANCH  23  26
HETATM   26  C   UNL     1      -5.941  -2.125 -33.857  1.00  0.00     0.058 A 
HETATM   27  C   UNL     1      -6.988  -2.894 -34.394  1.00  0.00     0.031 A 
HETATM   28  C   UNL     1      -6.740  -4.156 -34.940  1.00  0.00     0.002 A 
HETATM   29  C   UNL     1      -5.443  -4.657 -34.972  1.00  0.00     0.000 A 
HETATM   30  C   UNL     1      -4.393  -3.894 -34.467  1.00  0.00     0.002 A 
HETATM   31  C   UNL     1      -4.637  -2.630 -33.916  1.00  0.00     0.031 A 
ENDBRANCH  23  26
ENDBRANCH  18  20
ENDBRANCH   1  18
TORSDOF 6
ENDMDL
MODEL 3
REMARK VINA RESULT:      -8.2      5.054      9.000
REMARK  6 active torsions:
REMARK  status: ('A' for Active; 'I' for Inactive)
REMARK    1  A    between atoms: C_3  and  C_4 
REMARK    2  A    between atoms: C_4  and  N_5 
REMARK    3  A    between atoms: N_5  and  C_8 
REMARK    4  A    between atoms: C_8  and  C_9 
REMARK    5  A    between atoms: N_12  and  C_13 
REMARK    6  A    between atoms: C_28  and  O_29 
ROOT
HETATM    1  N   UNL     1      -3.061   3.767 -32.743  1.00  0.00    -0.062 N 
HETATM    2  H   UNL     1      -2.161   3.281 -32.803  1.00  0.00     0.278 HD
HETATM    3  H   UNL     1      -3.489   3.720 -33.673  1.00  0.00     0.278 HD
ENDROOT
BRANCH   1   4
HETATM    4  C   UNL     1      -3.929   2.993 -31.828  1.00  0.00     0.290 C 
BRANCH   4   5
HETATM    5  C   UNL     1      -4.538   1.799 -32.477  1.00  0.00     0.042 A 
HETATM    6  C   UNL     1      -4.235   0.437 -32.517  1.00  0.00    -0.025 A 
HETATM    7  C   UNL     1      -3.122  -0.300 -31.849  1.00  0.00     0.051 C 
HETATM    8  C   UNL     1      -5.210  -0.190 -33.366  1.00  0.00     0.001 A 
HETATM    9  C   UNL     1      -6.082   0.796 -33.808  1.00  0.00     0.043 A 
HETATM   10  C   UNL     1      -5.428  -1.514 -33.805  1.00  0.00     0.051 A 
HETATM   11  N   UNL     1      -5.668   1.979 -33.255  1.00  0.00    -0.357 N 
HETATM   12  C   UNL     1      -7.160   0.529 -34.660  1.00  0.00     0.033 A 
HETATM   13  H   UNL     1      -6.143   2.857 -33.421  1.00  0.00     0.166 HD
HETATM   14  C   UNL     1      -7.349  -0.793 -35.082  1.00  0.00     0.039 A 
HETATM   15  C   UNL     1      -6.495  -1.810 -34.663  1.00  0.00     0.069 A 
BRANCH  15  16
HETATM   16  O   UNL     1      -6.583  -3.130 -35.014  1.00  0.00    -0.356 OA
HETATM   17  C   UNL     1      -5.486  -3.968 -34.667  1.00  0.00     0.210 C 
ENDBRANCH  15  16
ENDBRANCH   4   5
ENDBRANCH   1   4
BRANCH   1  18
HETATM   18  C   UNL     1      -2.846   5.206 -32.388  1.00  0.00     0.218 C 
HETATM   19  C   UNL     1      -2.546   5.964 -33.681  1.00  0.00     0.045 C 
BRANCH  18  20
HETATM   20  C   UNL     1      -1.774   5.391 -31.365  1.00  0.00     0.015 C 
HETATM   21  C   UNL     1      -1.735   6.273 -30.286  1.00  0.00     0.042 C 
HETATM   22  C   UNL     1      -2.787   7.215 -29.813  1.00  0.00     0.071 C 
HETATM   23  N   UNL     1      -0.492   6.093 -29.665  1.00  0.00    -0.238 N 
HETATM   24  N   UNL     1       0.131   5.004 -30.190  1.00  0.00    -0.179 NA
HETATM   25  C   UNL     1      -0.572   4.666 -31.258  1.00  0.00     0.150 C 
BRANCH  23  26
HETATM   26  C   UNL     1       0.157   6.828 -28.628  1.00  0.00     0.058 A 
HETATM   27  C   UNL     1       0.036   6.376 -27.302  1.00  0.00     0.031 A 
HETATM   28  C   UNL     1       0.658   7.061 -26.255  1.00  0.00     0.002 A 
HETATM   29  C   UNL     1       1.422   8.193 -26.520  1.00  0.00     0.000 A 
HETATM   30  C   UNL     1       1.571   8.635 -27.832  1.00  0.00     0.002 A 
HETATM   31  C   UNL     1       0.947   7.954 -28.885  1.00  0.00     0.031 A 
ENDBRANCH  23  26
ENDBRANCH  18  20
ENDBRANCH   1  18
TORSDOF 6
ENDMDL
MODEL 4
REMARK VINA RESULT:      -8.2      2.603      7.445
REMARK  6 active torsions:
REMARK  status: ('A' for Active; 'I' for Inactive)
REMARK    1  A    between atoms: C_3  and  C_4 
REMARK    2  A    between atoms: C_4  and  N_5 
REMARK    3  A    between atoms: N_5  and  C_8 
REMARK    4  A    between atoms: C_8  and  C_9 
REMARK    5  A    between atoms: N_12  and  C_13 
REMARK    6  A    between atoms: C_28  and  O_29 
ROOT
HETATM    1  N   UNL     1      -5.045   1.676 -30.850  1.00  0.00    -0.062 N 
HETATM    2  H   UNL     1      -5.587   0.825 -30.671  1.00  0.00     0.278 HD
HETATM    3  H   UNL     1      -4.581   1.925 -29.971  1.00  0.00     0.278 HD
ENDROOT
BRANCH   1   4
HETATM    4  C   UNL     1      -3.981   1.335 -31.819  1.00  0.00     0.290 C 
BRANCH   4   5
HETATM    5  C   UNL     1      -4.154  -0.017 -32.420  1.00  0.00     0.042 A 
HETATM    6  C   UNL     1      -4.984  -0.559 -33.404  1.00  0.00    -0.025 A 
HETATM    7  C   UNL     1      -6.025   0.115 -34.234  1.00  0.00     0.051 C 
HETATM    8  C   UNL     1      -4.676  -1.960 -33.493  1.00  0.00     0.001 A 
HETATM    9  C   UNL     1      -3.666  -2.230 -32.579  1.00  0.00     0.043 A 
HETATM   10  C   UNL     1      -5.171  -3.029 -34.271  1.00  0.00     0.051 A 
HETATM   11  N   UNL     1      -3.361  -1.050 -31.953  1.00  0.00    -0.357 N 
HETATM   12  C   UNL     1      -3.124  -3.509 -32.403  1.00  0.00     0.033 A 
HETATM   13  H   UNL     1      -2.648  -0.978 -31.238  1.00  0.00     0.166 HD
HETATM   14  C   UNL     1      -3.638  -4.551 -33.186  1.00  0.00     0.039 A 
HETATM   15  C   UNL     1      -4.652  -4.321 -34.112  1.00  0.00     0.069 A 
BRANCH  15  16
HETATM   16  O   UNL     1      -5.228  -5.260 -34.924  1.00  0.00    -0.356 OA
HETATM   17  C   UNL     1      -6.365  -4.856 -35.678  1.00  0.00     0.210 C 
ENDBRANCH  15  16
ENDBRANCH   4   5
ENDBRANCH   1   4
BRANCH   1  18
HETATM   18  C   UNL     1      -5.960   2.795 -31.242  1.00  0.00     0.218 C 
HETATM   19  C   UNL     1      -6.057   3.752 -30.054  1.00  0.00     0.045 C 
BRANCH  18  20
HETATM   20  C   UNL     1      -7.301   2.311 -31.686  1.00  0.00     0.015 C 
HETATM   21  C   UNL     1      -8.171   2.877 -32.617  1.00  0.00     0.042 C 
HETATM   22  C   UNL     1      -7.966   4.074 -33.479  1.00  0.00     0.071 C 
HETATM   23  N   UNL     1      -9.318   2.071 -32.635  1.00  0.00    -0.238 N 
HETATM   24  N   UNL     1      -9.095   0.937 -31.918  1.00  0.00    -0.179 NA
HETATM   25  C   UNL     1      -7.956   1.136 -31.275  1.00  0.00     0.150 C 
BRANCH  23  26
HETATM   26  C   UNL     1     -10.586   2.252 -33.264  1.00  0.00     0.058 A 
HETATM   27  C   UNL     1     -10.915   1.444 -34.367  1.00  0.00     0.031 A 
HETATM   28  C   UNL     1     -12.147   1.583 -35.011  1.00  0.00     0.002 A 
HETATM   29  C   UNL     1     -13.071   2.517 -34.553  1.00  0.00     0.000 A 
HETATM   30  C   UNL     1     -12.767   3.305 -33.445  1.00  0.00     0.002 A 
HETATM   31  C   UNL     1     -11.533   3.172 -32.798  1.00  0.00     0.031 A 
ENDBRANCH  23  26
ENDBRANCH  18  20
ENDBRANCH   1  18
TORSDOF 6
ENDMDL
MODEL 5
REMARK VINA RESULT:      -8.1      5.615      8.980
REMARK  6 active torsions:
REMARK  status: ('A' for Active; 'I' for Inactive)
REMARK    1  A    between atoms: C_3  and  C_4 
REMARK    2  A    between atoms: C_4  and  N_5 
REMARK    3  A    between atoms: N_5  and  C_8 
REMARK    4  A    between atoms: C_8  and  C_9 
REMARK    5  A    between atoms: N_12  and  C_13 
REMARK    6  A    between atoms: C_28  and  O_29 
ROOT
HETATM    1  N   UNL     1      -3.166   3.374 -31.101  1.00  0.00    -0.062 N 
HETATM    2  H   UNL     1      -2.872   2.410 -31.289  1.00  0.00     0.278 HD
HETATM    3  H   UNL     1      -3.020   3.540 -30.101  1.00  0.00     0.278 HD
ENDROOT
BRANCH   1   4
HETATM    4  C   UNL     1      -2.244   4.274 -31.829  1.00  0.00     0.290 C 
BRANCH   4   5
HETATM    5  C   UNL     1      -1.617   5.299 -30.949  1.00  0.00     0.042 A 
HETATM    6  C   UNL     1      -0.307   5.617 -30.588  1.00  0.00    -0.025 A 
HETATM    7  C   UNL     1       0.972   4.984 -31.025  1.00  0.00     0.051 C 
HETATM    8  C   UNL     1      -0.377   6.710 -29.657  1.00  0.00     0.001 A 
HETATM    9  C   UNL     1      -1.717   7.034 -29.487  1.00  0.00     0.043 A 
HETATM   10  C   UNL     1       0.582   7.454 -28.936  1.00  0.00     0.051 A 
HETATM   11  N   UNL     1      -2.443   6.183 -30.278  1.00  0.00    -0.357 N 
HETATM   12  C   UNL     1      -2.147   8.062 -28.640  1.00  0.00     0.033 A 
HETATM   13  H   UNL     1      -3.452   6.215 -30.336  1.00  0.00     0.166 HD
HETATM   14  C   UNL     1      -1.173   8.780 -27.935  1.00  0.00     0.039 A 
HETATM   15  C   UNL     1       0.180   8.484 -28.076  1.00  0.00     0.069 A 
BRANCH  15  16
HETATM   16  O   UNL     1       1.213   9.115 -27.437  1.00  0.00    -0.356 OA
HETATM   17  C   UNL     1       0.882  10.221 -26.605  1.00  0.00     0.210 C 
ENDBRANCH  15  16
ENDBRANCH   4   5
ENDBRANCH   1   4
BRANCH   1  18
HETATM   18  C   UNL     1      -4.623   3.536 -31.405  1.00  0.00     0.218 C 
HETATM   19  C   UNL     1      -5.372   3.587 -30.074  1.00  0.00     0.045 C 
BRANCH  18  20
HETATM   20  C   UNL     1      -5.145   2.463 -32.303  1.00  0.00     0.015 C 
HETATM   21  C   UNL     1      -5.022   1.080 -32.179  1.00  0.00     0.042 C 
HETATM   22  C   UNL     1      -4.406   0.294 -31.074  1.00  0.00     0.071 C 
HETATM   23  N   UNL     1      -5.638   0.519 -33.306  1.00  0.00    -0.238 N 
HETATM   24  N   UNL     1      -6.304   1.484 -33.994  1.00  0.00    -0.179 NA
HETATM   25  C   UNL     1      -5.920   2.634 -33.465  1.00  0.00     0.150 C 
BRANCH  23  26
HETATM   26  C   UNL     1      -5.673  -0.823 -33.789  1.00  0.00     0.058 A 
HETATM   27  C   UNL     1      -4.468  -1.543 -33.870  1.00  0.00     0.031 A 
HETATM   28  C   UNL     1      -4.453  -2.861 -34.333  1.00  0.00     0.002 A 
HETATM   29  C   UNL     1      -5.642  -3.482 -34.704  1.00  0.00     0.000 A 
HETATM   30  C   UNL     1      -6.845  -2.788 -34.604  1.00  0.00     0.002 A 
HETATM   31  C   UNL     1      -6.865  -1.466 -34.144  1.00  0.00     0.031 A 
ENDBRANCH  23  26
ENDBRANCH  18  20
ENDBRANCH   1  18
TORSDOF 6
ENDMDL
MODEL 6
REMARK VINA RESULT:      -8.0      3.568      7.626
REMARK  6 active torsions:
REMARK  status: ('A' for Active; 'I' for Inactive)
REMARK    1  A    between atoms: C_3  and  C_4 
REMARK    2  A    between atoms: C_4  and  N_5 
REMARK    3  A    between atoms: N_5  and  C_8 
REMARK    4  A    between atoms: C_8  and  C_9 
REMARK    5  A    between atoms: N_12  and  C_13 
REMARK    6  A    between atoms: C_28  and  O_29 
ROOT
HETATM    1  N   UNL     1      -7.947   3.177 -32.822  1.00  0.00    -0.062 N 
HETATM    2  H   UNL     1      -7.701   2.779 -33.734  1.00  0.00     0.278 HD
HETATM    3  H   UNL     1      -8.967   3.122 -32.738  1.00  0.00     0.278 HD
ENDROOT
BRANCH   1   4
HETATM    4  C   UNL     1      -7.378   2.294 -31.780  1.00  0.00     0.290 C 
BRANCH   4   5
HETATM    5  C   UNL     1      -6.727   1.078 -32.341  1.00  0.00     0.042 A 
HETATM    6  C   UNL     1      -5.414   0.606 -32.408  1.00  0.00    -0.025 A 
HETATM    7  C   UNL     1      -4.163   1.222 -31.878  1.00  0.00     0.051 C 
HETATM    8  C   UNL     1      -5.448  -0.639 -33.127  1.00  0.00     0.001 A 
HETATM    9  C   UNL     1      -6.771  -0.896 -33.464  1.00  0.00     0.043 A 
HETATM   10  C   UNL     1      -4.468  -1.572 -33.526  1.00  0.00     0.051 A 
HETATM   11  N   UNL     1      -7.522   0.140 -32.975  1.00  0.00    -0.357 N 
HETATM   12  C   UNL     1      -7.164  -2.036 -34.175  1.00  0.00     0.033 A 
HETATM   13  H   UNL     1      -8.526   0.189 -33.087  1.00  0.00     0.166 HD
HETATM   14  C   UNL     1      -6.169  -2.942 -34.561  1.00  0.00     0.039 A 
HETATM   15  C   UNL     1      -4.831  -2.719 -34.245  1.00  0.00     0.069 A 
BRANCH  15  16
HETATM   16  O   UNL     1      -3.780  -3.531 -34.573  1.00  0.00    -0.356 OA
HETATM   17  C   UNL     1      -3.626  -4.728 -33.819  1.00  0.00     0.210 C 
ENDBRANCH  15  16
ENDBRANCH   4   5
ENDBRANCH   1   4
BRANCH   1  18
HETATM   18  C   UNL     1      -7.539   4.616 -32.763  1.00  0.00     0.218 C 
HETATM   19  C   UNL     1      -8.399   5.384 -33.767  1.00  0.00     0.045 C 
BRANCH  18  20
HETATM   20  C   UNL     1      -6.079   4.810 -33.007  1.00  0.00     0.015 C 
HETATM   21  C   UNL     1      -5.071   5.113 -32.093  1.00  0.00     0.042 C 
HETATM   22  C   UNL     1      -5.163   5.246 -30.613  1.00  0.00     0.071 C 
HETATM   23  N   UNL     1      -3.886   5.242 -32.831  1.00  0.00    -0.238 N 
HETATM   24  N   UNL     1      -4.093   4.829 -34.109  1.00  0.00    -0.179 NA
HETATM   25  C   UNL     1      -5.402   4.684 -34.234  1.00  0.00     0.150 C 
BRANCH  23  26
HETATM   26  C   UNL     1      -2.588   5.700 -32.454  1.00  0.00     0.058 A 
HETATM   27  C   UNL     1      -2.291   7.068 -32.582  1.00  0.00     0.031 A 
HETATM   28  C   UNL     1      -1.035   7.563 -32.221  1.00  0.00     0.002 A 
HETATM   29  C   UNL     1      -0.068   6.702 -31.713  1.00  0.00     0.000 A 
HETATM   30  C   UNL     1      -0.359   5.349 -31.556  1.00  0.00     0.002 A 
HETATM   31  C   UNL     1      -1.615   4.847 -31.920  1.00  0.00     0.031 A 
ENDBRANCH  23  26
ENDBRANCH  18  20
ENDBRANCH   1  18
TORSDOF 6
ENDMDL
MODEL 7
REMARK VINA RESULT:      -7.8      2.303      6.778
REMARK  6 active torsions:
REMARK  status: ('A' for Active; 'I' for Inactive)
REMARK    1  A    between atoms: C_3  and  C_4 
REMARK    2  A    between atoms: C_4  and  N_5 
REMARK    3  A    between atoms: N_5  and  C_8 
REMARK    4  A    between atoms: C_8  and  C_9 
REMARK    5  A    between atoms: N_12  and  C_13 
REMARK    6  A    between atoms: C_28  and  O_29 
ROOT
HETATM    1  N   UNL     1      -5.335   3.934 -32.235  1.00  0.00    -0.062 N 
HETATM    2  H   UNL     1      -4.769   4.764 -32.439  1.00  0.00     0.278 HD
HETATM    3  H   UNL     1      -5.707   3.600 -33.129  1.00  0.00     0.278 HD
ENDROOT
BRANCH   1   4
HETATM    4  C   UNL     1      -4.424   2.885 -31.727  1.00  0.00     0.290 C 
BRANCH   4   5
HETATM    5  C   UNL     1      -4.679   1.549 -32.334  1.00  0.00     0.042 A 
HETATM    6  C   UNL     1      -4.095   0.286 -32.217  1.00  0.00    -0.025 A 
HETATM    7  C   UNL     1      -2.952  -0.148 -31.362  1.00  0.00     0.051 C 
HETATM    8  C   UNL     1      -4.797  -0.590 -33.115  1.00  0.00     0.001 A 
HETATM    9  C   UNL     1      -5.790   0.153 -33.740  1.00  0.00     0.043 A 
HETATM   10  C   UNL     1      -4.673  -1.954 -33.457  1.00  0.00     0.051 A 
HETATM   11  N   UNL     1      -5.709   1.430 -33.251  1.00  0.00    -0.357 N 
HETATM   12  C   UNL     1      -6.665  -0.395 -34.685  1.00  0.00     0.033 A 
HETATM   13  H   UNL     1      -6.330   2.171 -33.548  1.00  0.00     0.166 HD
HETATM   14  C   UNL     1      -6.517  -1.750 -35.007  1.00  0.00     0.039 A 
HETATM   15  C   UNL     1      -5.532  -2.528 -34.404  1.00  0.00     0.069 A 
BRANCH  15  16
HETATM   16  O   UNL     1      -5.295  -3.854 -34.644  1.00  0.00    -0.356 OA
HETATM   17  C   UNL     1      -6.291  -4.571 -35.363  1.00  0.00     0.210 C 
ENDBRANCH  15  16
ENDBRANCH   4   5
ENDBRANCH   1   4
BRANCH   1  18
HETATM   18  C   UNL     1      -6.482   4.300 -31.345  1.00  0.00     0.218 C 
HETATM   19  C   UNL     1      -6.030   4.098 -29.899  1.00  0.00     0.045 C 
BRANCH  18  20
HETATM   20  C   UNL     1      -7.722   3.531 -31.661  1.00  0.00     0.015 C 
HETATM   21  C   UNL     1      -8.575   3.655 -32.756  1.00  0.00     0.042 C 
HETATM   22  C   UNL     1      -8.437   4.534 -33.951  1.00  0.00     0.071 C 
HETATM   23  N   UNL     1      -9.619   2.742 -32.557  1.00  0.00    -0.238 N 
HETATM   24  N   UNL     1      -9.329   1.933 -31.504  1.00  0.00    -0.179 NA
HETATM   25  C   UNL     1      -8.273   2.471 -30.917  1.00  0.00     0.150 C 
BRANCH  23  26
HETATM   26  C   UNL     1     -10.847   2.549 -33.259  1.00  0.00     0.058 A 
HETATM   27  C   UNL     1     -11.949   3.357 -32.928  1.00  0.00     0.031 A 
HETATM   28  C   UNL     1     -13.169   3.208 -33.590  1.00  0.00     0.002 A 
HETATM   29  C   UNL     1     -13.300   2.262 -34.603  1.00  0.00     0.000 A 
HETATM   30  C   UNL     1     -12.209   1.474 -34.958  1.00  0.00     0.002 A 
HETATM   31  C   UNL     1     -10.984   1.617 -34.295  1.00  0.00     0.031 A 
ENDBRANCH  23  26
ENDBRANCH  18  20
ENDBRANCH   1  18
TORSDOF 6
ENDMDL
MODEL 8
REMARK VINA RESULT:      -7.8      6.341     10.015
REMARK  6 active torsions:
REMARK  status: ('A' for Active; 'I' for Inactive)
REMARK    1  A    between atoms: C_3  and  C_4 
REMARK    2  A    between atoms: C_4  and  N_5 
REMARK    3  A    between atoms: N_5  and  C_8 
REMARK    4  A    between atoms: C_8  and  C_9 
REMARK    5  A    between atoms: N_12  and  C_13 
REMARK    6  A    between atoms: C_28  and  O_29 
ROOT
HETATM    1  N   UNL     1      -3.229   4.817 -30.854  1.00  0.00    -0.062 N 
HETATM    2  H   UNL     1      -3.028   4.600 -29.872  1.00  0.00     0.278 HD
HETATM    3  H   UNL     1      -4.249   4.835 -30.952  1.00  0.00     0.278 HD
ENDROOT
BRANCH   1   4
HETATM    4  C   UNL     1      -2.745   6.190 -31.116  1.00  0.00     0.290 C 
BRANCH   4   5
HETATM    5  C   UNL     1      -1.788   6.676 -30.084  1.00  0.00     0.042 A 
HETATM    6  C   UNL     1      -0.426   6.986 -30.072  1.00  0.00    -0.025 A 
HETATM    7  C   UNL     1       0.562   6.936 -31.189  1.00  0.00     0.051 C 
HETATM    8  C   UNL     1      -0.092   7.372 -28.728  1.00  0.00     0.001 A 
HETATM    9  C   UNL     1      -1.251   7.300 -27.967  1.00  0.00     0.043 A 
HETATM   10  C   UNL     1       1.100   7.774 -28.087  1.00  0.00     0.051 A 
HETATM   11  N   UNL     1      -2.258   6.891 -28.801  1.00  0.00    -0.357 N 
HETATM   12  C   UNL     1      -1.283   7.611 -26.602  1.00  0.00     0.033 A 
HETATM   13  H   UNL     1      -3.211   6.762 -28.487  1.00  0.00     0.166 HD
HETATM   14  C   UNL     1      -0.085   8.003 -25.992  1.00  0.00     0.039 A 
HETATM   15  C   UNL     1       1.100   8.085 -26.720  1.00  0.00     0.069 A 
BRANCH  15  16
HETATM   16  O   UNL     1       2.323   8.451 -26.229  1.00  0.00    -0.356 OA
HETATM   17  C   UNL     1       2.407   8.721 -24.834  1.00  0.00     0.210 C 
ENDBRANCH  15  16
ENDBRANCH   4   5
ENDBRANCH   1   4
BRANCH   1  18
HETATM   18  C   UNL     1      -2.681   3.743 -31.741  1.00  0.00     0.218 C 
HETATM   19  C   UNL     1      -2.132   4.415 -32.999  1.00  0.00     0.045 C 
BRANCH  18  20
HETATM   20  C   UNL     1      -3.691   2.691 -32.060  1.00  0.00     0.015 C 
HETATM   21  C   UNL     1      -4.975   2.839 -32.582  1.00  0.00     0.042 C 
HETATM   22  C   UNL     1      -5.660   4.081 -33.037  1.00  0.00     0.071 C 
HETATM   23  N   UNL     1      -5.533   1.555 -32.644  1.00  0.00    -0.238 N 
HETATM   24  N   UNL     1      -4.577   0.624 -32.382  1.00  0.00    -0.179 NA
HETATM   25  C   UNL     1      -3.532   1.298 -31.933  1.00  0.00     0.150 C 
BRANCH  23  26
HETATM   26  C   UNL     1      -6.861   1.118 -32.935  1.00  0.00     0.058 A 
HETATM   27  C   UNL     1      -7.748   0.898 -31.866  1.00  0.00     0.031 A 
HETATM   28  C   UNL     1      -9.058   0.476 -32.102  1.00  0.00     0.002 A 
HETATM   29  C   UNL     1      -9.504   0.285 -33.406  1.00  0.00     0.000 A 
HETATM   30  C   UNL     1      -8.643   0.525 -34.474  1.00  0.00     0.002 A 
HETATM   31  C   UNL     1      -7.327   0.945 -34.243  1.00  0.00     0.031 A 
ENDBRANCH  23  26
ENDBRANCH  18  20
ENDBRANCH   1  18
TORSDOF 6
ENDMDL
MODEL 9
REMARK VINA RESULT:      -7.5      2.422      6.965
REMARK  6 active torsions:
REMARK  status: ('A' for Active; 'I' for Inactive)
REMARK    1  A    between atoms: C_3  and  C_4 
REMARK    2  A    between atoms: C_4  and  N_5 
REMARK    3  A    between atoms: N_5  and  C_8 
REMARK    4  A    between atoms: C_8  and  C_9 
REMARK    5  A    between atoms: N_12  and  C_13 
REMARK    6  A    between atoms: C_28  and  O_29 
ROOT
HETATM    1  N   UNL     1      -5.863   3.264 -30.682  1.00  0.00    -0.062 N 
HETATM    2  H   UNL     1      -5.010   3.502 -30.166  1.00  0.00     0.278 HD
HETATM    3  H   UNL     1      -5.600   3.178 -31.669  1.00  0.00     0.278 HD
ENDROOT
BRANCH   1   4
HETATM    4  C   UNL     1      -6.300   1.924 -30.232  1.00  0.00     0.290 C 
BRANCH   4   5
HETATM    5  C   UNL     1      -6.128   0.876 -31.277  1.00  0.00     0.042 A 
HETATM    6  C   UNL     1      -6.995   0.166 -32.111  1.00  0.00    -0.025 A 
HETATM    7  C   UNL     1      -8.479   0.265 -32.231  1.00  0.00     0.051 C 
HETATM    8  C   UNL     1      -6.191  -0.746 -32.879  1.00  0.00     0.001 A 
HETATM    9  C   UNL     1      -4.867  -0.560 -32.504  1.00  0.00     0.043 A 
HETATM   10  C   UNL     1      -6.473  -1.720 -33.860  1.00  0.00     0.051 A 
HETATM   11  N   UNL     1      -4.850   0.423 -31.551  1.00  0.00    -0.357 N 
HETATM   12  C   UNL     1      -3.812  -1.293 -33.060  1.00  0.00     0.033 A 
HETATM   13  H   UNL     1      -3.997   0.748 -31.114  1.00  0.00     0.166 HD
HETATM   14  C   UNL     1      -4.123  -2.256 -34.029  1.00  0.00     0.039 A 
HETATM   15  C   UNL     1      -5.438  -2.474 -34.429  1.00  0.00     0.069 A 
BRANCH  15  16
HETATM   16  O   UNL     1      -5.856  -3.386 -35.360  1.00  0.00    -0.356 OA
HETATM   17  C   UNL     1      -6.683  -4.449 -34.902  1.00  0.00     0.210 C 
ENDBRANCH  15  16
ENDBRANCH   4   5
ENDBRANCH   1   4
BRANCH   1  18
HETATM   18  C   UNL     1      -6.868   4.365 -30.549  1.00  0.00     0.218 C 
HETATM   19  C   UNL     1      -7.007   4.690 -29.062  1.00  0.00     0.045 C 
BRANCH  18  20
HETATM   20  C   UNL     1      -8.180   4.024 -31.176  1.00  0.00     0.015 C 
HETATM   21  C   UNL     1      -8.486   3.845 -32.524  1.00  0.00     0.042 C 
HETATM   22  C   UNL     1      -7.572   3.868 -33.700  1.00  0.00     0.071 C 
HETATM   23  N   UNL     1      -9.863   3.591 -32.593  1.00  0.00    -0.238 N 
HETATM   24  N   UNL     1     -10.359   3.404 -31.341  1.00  0.00    -0.179 NA
HETATM   25  C   UNL     1      -9.394   3.768 -30.513  1.00  0.00     0.150 C 
BRANCH  23  26
HETATM   26  C   UNL     1     -10.748   3.497 -33.708  1.00  0.00     0.058 A 
HETATM   27  C   UNL     1     -11.241   2.232 -34.075  1.00  0.00     0.031 A 
HETATM   28  C   UNL     1     -12.114   2.092 -35.156  1.00  0.00     0.002 A 
HETATM   29  C   UNL     1     -12.518   3.213 -35.874  1.00  0.00     0.000 A 
HETATM   30  C   UNL     1     -12.058   4.475 -35.505  1.00  0.00     0.002 A 
HETATM   31  C   UNL     1     -11.180   4.620 -34.424  1.00  0.00     0.031 A 
ENDBRANCH  23  26
ENDBRANCH  18  20
ENDBRANCH   1  18
TORSDOF 6
ENDMDL
MODEL 10
REMARK VINA RESULT:      -7.5      3.853      8.145
REMARK  6 active torsions:
REMARK  status: ('A' for Active; 'I' for Inactive)
REMARK    1  A    between atoms: C_3  and  C_4 
REMARK    2  A    between atoms: C_4  and  N_5 
REMARK    3  A    between atoms: N_5  and  C_8 
REMARK    4  A    between atoms: C_8  and  C_9 
REMARK    5  A    between atoms: N_12  and  C_13 
REMARK    6  A    between atoms: C_28  and  O_29 
ROOT
HETATM    1  N   UNL     1      -6.117   3.473 -31.635  1.00  0.00    -0.062 N 
HETATM    2  H   UNL     1      -6.158   3.729 -30.644  1.00  0.00     0.278 HD
HETATM    3  H   UNL     1      -5.289   2.881 -31.756  1.00  0.00     0.278 HD
ENDROOT
BRANCH   1   4
HETATM    4  C   UNL     1      -7.298   2.630 -31.929  1.00  0.00     0.290 C 
BRANCH   4   5
HETATM    5  C   UNL     1      -6.945   1.355 -32.612  1.00  0.00     0.042 A 
HETATM    6  C   UNL     1      -7.647   0.420 -33.376  1.00  0.00    -0.025 A 
HETATM    7  C   UNL     1      -9.081   0.428 -33.789  1.00  0.00     0.051 C 
HETATM    8  C   UNL     1      -6.725  -0.628 -33.716  1.00  0.00     0.001 A 
HETATM    9  C   UNL     1      -5.493  -0.302 -33.166  1.00  0.00     0.043 A 
HETATM   10  C   UNL     1      -6.829  -1.834 -34.443  1.00  0.00     0.051 A 
HETATM   11  N   UNL     1      -5.644   0.896 -32.517  1.00  0.00    -0.357 N 
HETATM   12  C   UNL     1      -4.360  -1.113 -33.306  1.00  0.00     0.033 A 
HETATM   13  H   UNL     1      -4.884   1.355 -32.031  1.00  0.00     0.166 HD
HETATM   14  C   UNL     1      -4.495  -2.305 -34.029  1.00  0.00     0.039 A 
HETATM   15  C   UNL     1      -5.714  -2.670 -34.594  1.00  0.00     0.069 A 
BRANCH  15  16
HETATM   16  O   UNL     1      -5.959  -3.807 -35.314  1.00  0.00    -0.356 OA
HETATM   17  C   UNL     1      -5.452  -5.028 -34.790  1.00  0.00     0.210 C 
ENDBRANCH  15  16
ENDBRANCH   4   5
ENDBRANCH   1   4
BRANCH   1  18
HETATM   18  C   UNL     1      -5.957   4.700 -32.478  1.00  0.00     0.218 C 
HETATM   19  C   UNL     1      -5.661   4.246 -33.907  1.00  0.00     0.045 C 
BRANCH  18  20
HETATM   20  C   UNL     1      -4.909   5.624 -31.952  1.00  0.00     0.015 C 
HETATM   21  C   UNL     1      -3.608   5.333 -31.545  1.00  0.00     0.042 C 
HETATM   22  C   UNL     1      -2.883   4.033 -31.599  1.00  0.00     0.071 C 
HETATM   23  N   UNL     1      -3.052   6.535 -31.087  1.00  0.00    -0.238 N 
HETATM   24  N   UNL     1      -3.879   7.570 -31.390  1.00  0.00    -0.179 NA
HETATM   25  C   UNL     1      -5.012   7.019 -31.795  1.00  0.00     0.150 C 
BRANCH  23  26
HETATM   26  C   UNL     1      -1.826   6.806 -30.408  1.00  0.00     0.058 A 
HETATM   27  C   UNL     1      -0.630   6.812 -31.149  1.00  0.00     0.031 A 
HETATM   28  C   UNL     1       0.593   7.077 -30.529  1.00  0.00     0.002 A 
HETATM   29  C   UNL     1       0.636   7.356 -29.167  1.00  0.00     0.000 A 
HETATM   30  C   UNL     1      -0.544   7.379 -28.427  1.00  0.00     0.002 A 
HETATM   31  C   UNL     1      -1.772   7.111 -29.043  1.00  0.00     0.031 A 
ENDBRANCH  23  26
ENDBRANCH  18  20
ENDBRANCH   1  18
TORSDOF 6
ENDMDL
