MODEL 1
REMARK VINA RESULT:      -9.8      0.000      0.000
REMARK  9 active torsions:
REMARK  status: ('A' for Active; 'I' for Inactive)
REMARK    1  A    between atoms: C_7  and  O_8 
REMARK    2  A    between atoms: O_8  and  C_9 
REMARK    3  A    between atoms: C_10  and  N_11 
REMARK    4  A    between atoms: N_11  and  C_12 
REMARK    5  A    between atoms: C_14  and  C_15 
REMARK       I    between atoms: C_15  and  N_16 
REMARK    6  A    between atoms: N_16  and  C_17 
REMARK    7  A    between atoms: C_17  and  C_18 
REMARK    8  A    between atoms: C_18  and  N_19 
REMARK    9  A    between atoms: N_29  and  C_30 
ROOT
HETATM    1  C   UNL     1      -8.579   1.383 -33.680  1.00  0.00     0.122 C 
HETATM    2  C   UNL     1      -7.998   0.888 -32.574  1.00  0.00     0.119 C 
HETATM    3  C   UNL     1      -7.124  -0.340 -32.695  1.00  0.00     0.293 C 
HETATM    4  O   UNL     1      -6.521  -0.691 -31.676  1.00  0.00    -0.264 OA
HETATM    5  N   UNL     1      -7.042  -0.935 -33.952  1.00  0.00    -0.195 N 
HETATM    6  N   UNL     1      -7.449  -0.294 -35.101  1.00  0.00    -0.174 NA
HETATM    7  C   UNL     1      -8.150   0.779 -34.957  1.00  0.00     0.178 C 
ENDROOT
BRANCH   2   8
HETATM    8  N   UNL     1      -8.143   1.366 -31.261  1.00  0.00    -0.253 NA
HETATM    9  H   UNL     1      -7.638   0.722 -30.635  1.00  0.00     0.134 HD
BRANCH   8  10
HETATM   10  C   UNL     1      -7.835   2.692 -30.852  1.00  0.00     0.014 A 
HETATM   11  C   UNL     1      -6.538   3.171 -31.087  1.00  0.00     0.040 A 
HETATM   12  C   UNL     1      -6.178   4.469 -30.707  1.00  0.00     0.033 A 
HETATM   13  C   UNL     1      -7.117   5.318 -30.114  1.00  0.00     0.017 A 
HETATM   14  C   UNL     1      -8.411   4.857 -29.892  1.00  0.00     0.003 A 
HETATM   15  C   UNL     1      -8.764   3.553 -30.251  1.00  0.00     0.024 A 
BRANCH  12  16
HETATM   16  C   UNL     1      -4.791   4.930 -30.960  1.00  0.00     0.251 C 
HETATM   17  N   UNL     1      -3.813   3.955 -30.972  1.00  0.00    -0.355 N 
HETATM   18  H   UNL     1      -4.160   2.998 -30.999  1.00  0.00     0.162 HD
HETATM   19  O   UNL     1      -4.530   6.117 -31.113  1.00  0.00    -0.268 OA
BRANCH  17  20
HETATM   20  C   UNL     1      -2.514   4.159 -31.612  1.00  0.00     0.150 C 
BRANCH  20  21
HETATM   21  C   UNL     1      -2.463   4.147 -33.155  1.00  0.00     0.253 C 
BRANCH  21  22
HETATM   22  N   UNL     1      -2.942   5.451 -33.760  1.00  0.00    -0.077 N 
HETATM   23  H   UNL     1      -3.447   5.909 -32.983  1.00  0.00     0.279 HD
HETATM   24  C   UNL     1      -1.845   6.352 -34.226  1.00  0.00     0.269 C 
HETATM   25  C   UNL     1      -3.980   5.225 -34.818  1.00  0.00     0.269 C 
ENDBRANCH  21  22
ENDBRANCH  20  21
ENDBRANCH  17  20
ENDBRANCH  12  16
ENDBRANCH   8  10
ENDBRANCH   2   8
BRANCH   1  26
HETATM   26  O   UNL     1      -9.439   2.476 -33.618  1.00  0.00    -0.307 OA
BRANCH  26  27
HETATM   27  C   UNL     1     -10.788   2.271 -33.479  1.00  0.00     0.076 A 
HETATM   28  C   UNL     1     -11.563   3.373 -33.127  1.00  0.00     0.039 A 
HETATM   29  C   UNL     1     -12.943   3.230 -32.981  1.00  0.00     0.027 A 
HETATM   30  C   UNL     1     -13.545   1.983 -33.177  1.00  0.00     0.040 A 
HETATM   31  C   UNL     1     -12.769   0.856 -33.494  1.00  0.00    -0.038 A 
HETATM   32 CL   UNL     1     -15.261   1.886 -33.017  1.00  0.00    -0.084 Cl
HETATM   33  C   UNL     1     -13.391  -0.492 -33.733  1.00  0.00     0.050 C 
HETATM   34  C   UNL     1     -11.378   1.011 -33.629  1.00  0.00     0.045 A 
ENDBRANCH  26  27
ENDBRANCH   1  26
BRANCH   5  35
HETATM   35  C   UNL     1      -6.314  -2.147 -34.186  1.00  0.00     0.084 A 
HETATM   36  C   UNL     1      -4.908  -2.231 -34.170  1.00  0.00     0.063 A 
HETATM   37 CL   UNL     1      -3.883  -0.959 -33.583  1.00  0.00    -0.082 Cl
HETATM   38  C   UNL     1      -4.264  -3.441 -34.471  1.00  0.00     0.026 A 
HETATM   39  C   UNL     1      -5.004  -4.588 -34.755  1.00  0.00     0.002 A 
HETATM   40  C   UNL     1      -6.392  -4.537 -34.717  1.00  0.00     0.002 A 
HETATM   41  C   UNL     1      -7.038  -3.333 -34.427  1.00  0.00     0.033 A 
ENDBRANCH   5  35
TORSDOF 9
ENDMDL
MODEL 2
REMARK VINA RESULT:      -9.5      1.891      6.178
REMARK  9 active torsions:
REMARK  status: ('A' for Active; 'I' for Inactive)
REMARK    1  A    between atoms: C_7  and  O_8 
REMARK    2  A    between atoms: O_8  and  C_9 
REMARK    3  A    between atoms: C_10  and  N_11 
REMARK    4  A    between atoms: N_11  and  C_12 
REMARK    5  A    between atoms: C_14  and  C_15 
REMARK       I    between atoms: C_15  and  N_16 
REMARK    6  A    between atoms: N_16  and  C_17 
REMARK    7  A    between atoms: C_17  and  C_18 
REMARK    8  A    between atoms: C_18  and  N_19 
REMARK    9  A    between atoms: N_29  and  C_30 
ROOT
HETATM    1  C   UNL     1      -7.186   0.729 -33.742  1.00  0.00     0.122 C 
HETATM    2  C   UNL     1      -7.605   1.086 -32.516  1.00  0.00     0.119 C 
HETATM    3  C   UNL     1      -9.068   1.408 -32.309  1.00  0.00     0.293 C 
HETATM    4  O   UNL     1      -9.427   1.620 -31.146  1.00  0.00    -0.264 OA
HETATM    5  N   UNL     1      -9.884   1.393 -33.438  1.00  0.00    -0.195 N 
HETATM    6  N   UNL     1      -9.494   0.809 -34.623  1.00  0.00    -0.174 NA
HETATM    7  C   UNL     1      -8.248   0.502 -34.744  1.00  0.00     0.178 C 
ENDROOT
BRANCH   2   8
HETATM    8  N   UNL     1      -6.811   1.243 -31.368  1.00  0.00    -0.253 NA
HETATM    9  H   UNL     1      -6.109   0.489 -31.366  1.00  0.00     0.134 HD
BRANCH   8  10
HETATM   10  C   UNL     1      -6.148   2.449 -31.012  1.00  0.00     0.014 A 
HETATM   11  C   UNL     1      -4.903   2.716 -31.600  1.00  0.00     0.040 A 
HETATM   12  C   UNL     1      -4.204   3.888 -31.287  1.00  0.00     0.033 A 
HETATM   13  C   UNL     1      -4.754   4.825 -30.406  1.00  0.00     0.017 A 
HETATM   14  C   UNL     1      -5.996   4.576 -29.831  1.00  0.00     0.003 A 
HETATM   15  C   UNL     1      -6.683   3.394 -30.126  1.00  0.00     0.024 A 
BRANCH  12  16
HETATM   16  C   UNL     1      -2.884   4.124 -31.919  1.00  0.00     0.251 C 
HETATM   17  N   UNL     1      -2.901   4.617 -33.210  1.00  0.00    -0.355 N 
HETATM   18  H   UNL     1      -3.807   4.950 -33.531  1.00  0.00     0.162 HD
HETATM   19  O   UNL     1      -1.840   3.862 -31.336  1.00  0.00    -0.268 OA
BRANCH  17  20
HETATM   20  C   UNL     1      -1.748   5.293 -33.804  1.00  0.00     0.150 C 
BRANCH  20  21
HETATM   21  C   UNL     1      -1.850   6.816 -34.039  1.00  0.00     0.253 C 
BRANCH  21  22
HETATM   22  N   UNL     1      -1.488   7.617 -32.805  1.00  0.00    -0.077 N 
HETATM   23  H   UNL     1      -1.069   8.481 -33.190  1.00  0.00     0.279 HD
HETATM   24  C   UNL     1      -2.655   7.984 -31.947  1.00  0.00     0.269 C 
HETATM   25  C   UNL     1      -0.388   6.967 -32.021  1.00  0.00     0.269 C 
ENDBRANCH  21  22
ENDBRANCH  20  21
ENDBRANCH  17  20
ENDBRANCH  12  16
ENDBRANCH   8  10
ENDBRANCH   2   8
BRANCH   1  26
HETATM   26  O   UNL     1      -5.842   0.477 -34.003  1.00  0.00    -0.307 OA
BRANCH  26  27
HETATM   27  C   UNL     1      -5.369  -0.810 -33.941  1.00  0.00     0.076 A 
HETATM   28  C   UNL     1      -4.261  -1.038 -33.130  1.00  0.00     0.039 A 
HETATM   29  C   UNL     1      -3.740  -2.326 -33.017  1.00  0.00     0.027 A 
HETATM   30  C   UNL     1      -4.321  -3.384 -33.722  1.00  0.00     0.040 A 
HETATM   31  C   UNL     1      -5.415  -3.160 -34.574  1.00  0.00    -0.038 A 
HETATM   32 CL   UNL     1      -3.648  -4.959 -33.506  1.00  0.00    -0.084 Cl
HETATM   33  C   UNL     1      -6.075  -4.281 -35.328  1.00  0.00     0.050 C 
HETATM   34  C   UNL     1      -5.925  -1.854 -34.688  1.00  0.00     0.045 A 
ENDBRANCH  26  27
ENDBRANCH   1  26
BRANCH   5  35
HETATM   35  C   UNL     1     -11.270   1.756 -33.393  1.00  0.00     0.084 A 
HETATM   36  C   UNL     1     -11.729   3.066 -33.159  1.00  0.00     0.063 A 
HETATM   37 CL   UNL     1     -10.693   4.458 -33.184  1.00  0.00    -0.082 Cl
HETATM   38  C   UNL     1     -13.104   3.333 -33.068  1.00  0.00     0.026 A 
HETATM   39  C   UNL     1     -14.038   2.313 -33.242  1.00  0.00     0.002 A 
HETATM   40  C   UNL     1     -13.604   1.026 -33.532  1.00  0.00     0.002 A 
HETATM   41  C   UNL     1     -12.236   0.753 -33.616  1.00  0.00     0.033 A 
ENDBRANCH   5  35
TORSDOF 9
ENDMDL
MODEL 3
REMARK VINA RESULT:      -9.5      1.603      2.103
REMARK  9 active torsions:
REMARK  status: ('A' for Active; 'I' for Inactive)
REMARK    1  A    between atoms: C_7  and  O_8 
REMARK    2  A    between atoms: O_8  and  C_9 
REMARK    3  A    between atoms: C_10  and  N_11 
REMARK    4  A    between atoms: N_11  and  C_12 
REMARK    5  A    between atoms: C_14  and  C_15 
REMARK       I    between atoms: C_15  and  N_16 
REMARK    6  A    between atoms: N_16  and  C_17 
REMARK    7  A    between atoms: C_17  and  C_18 
REMARK    8  A    between atoms: C_18  and  N_19 
REMARK    9  A    between atoms: N_29  and  C_30 
ROOT
HETATM    1  C   UNL     1      -8.449   1.357 -33.597  1.00  0.00     0.122 C 
HETATM    2  C   UNL     1      -7.811   0.869 -32.520  1.00  0.00     0.119 C 
HETATM    3  C   UNL     1      -6.965  -0.376 -32.674  1.00  0.00     0.293 C 
HETATM    4  O   UNL     1      -6.308  -0.722 -31.688  1.00  0.00    -0.264 OA
HETATM    5  N   UNL     1      -6.968  -0.990 -33.925  1.00  0.00    -0.195 N 
HETATM    6  N   UNL     1      -7.432  -0.358 -35.057  1.00  0.00    -0.174 NA
HETATM    7  C   UNL     1      -8.106   0.728 -34.889  1.00  0.00     0.178 C 
ENDROOT
BRANCH   2   8
HETATM    8  N   UNL     1      -7.870   1.367 -31.208  1.00  0.00    -0.253 NA
HETATM    9  H   UNL     1      -7.744   0.573 -30.565  1.00  0.00     0.134 HD
BRANCH   8  10
HETATM   10  C   UNL     1      -7.078   2.444 -30.724  1.00  0.00     0.014 A 
HETATM   11  C   UNL     1      -5.754   2.546 -31.179  1.00  0.00     0.040 A 
HETATM   12  C   UNL     1      -4.928   3.585 -30.737  1.00  0.00     0.033 A 
HETATM   13  C   UNL     1      -5.420   4.555 -29.858  1.00  0.00     0.017 A 
HETATM   14  C   UNL     1      -6.736   4.470 -29.414  1.00  0.00     0.003 A 
HETATM   15  C   UNL     1      -7.554   3.419 -29.838  1.00  0.00     0.024 A 
BRANCH  12  16
HETATM   16  C   UNL     1      -3.531   3.648 -31.231  1.00  0.00     0.251 C 
HETATM   17  N   UNL     1      -2.873   4.851 -31.059  1.00  0.00    -0.355 N 
HETATM   18  H   UNL     1      -3.340   5.512 -30.442  1.00  0.00     0.162 HD
HETATM   19  O   UNL     1      -3.008   2.694 -31.792  1.00  0.00    -0.268 OA
BRANCH  17  20
HETATM   20  C   UNL     1      -1.415   4.955 -31.087  1.00  0.00     0.150 C 
BRANCH  20  21
HETATM   21  C   UNL     1      -0.767   6.165 -30.380  1.00  0.00     0.253 C 
BRANCH  21  22
HETATM   22  N   UNL     1      -1.031   6.175 -28.889  1.00  0.00    -0.077 N 
HETATM   23  H   UNL     1      -1.588   5.318 -28.735  1.00  0.00     0.279 HD
HETATM   24  C   UNL     1       0.200   6.113 -28.046  1.00  0.00     0.269 C 
HETATM   25  C   UNL     1      -1.936   7.303 -28.491  1.00  0.00     0.269 C 
ENDBRANCH  21  22
ENDBRANCH  20  21
ENDBRANCH  17  20
ENDBRANCH  12  16
ENDBRANCH   8  10
ENDBRANCH   2   8
BRANCH   1  26
HETATM   26  O   UNL     1      -9.286   2.465 -33.501  1.00  0.00    -0.307 OA
BRANCH  26  27
HETATM   27  C   UNL     1     -10.640   2.284 -33.374  1.00  0.00     0.076 A 
HETATM   28  C   UNL     1     -11.390   3.380 -32.956  1.00  0.00     0.039 A 
HETATM   29  C   UNL     1     -12.772   3.260 -32.817  1.00  0.00     0.027 A 
HETATM   30  C   UNL     1     -13.403   2.042 -33.087  1.00  0.00     0.040 A 
HETATM   31  C   UNL     1     -12.653   0.918 -33.472  1.00  0.00    -0.038 A 
HETATM   32 CL   UNL     1     -15.121   1.976 -32.932  1.00  0.00    -0.084 Cl
HETATM   33  C   UNL     1     -13.306  -0.399 -33.790  1.00  0.00     0.050 C 
HETATM   34  C   UNL     1     -11.259   1.048 -33.598  1.00  0.00     0.045 A 
ENDBRANCH  26  27
ENDBRANCH   1  26
BRANCH   5  35
HETATM   35  C   UNL     1      -6.273  -2.217 -34.183  1.00  0.00     0.084 A 
HETATM   36  C   UNL     1      -4.871  -2.341 -34.168  1.00  0.00     0.063 A 
HETATM   37 CL   UNL     1      -3.811  -1.112 -33.553  1.00  0.00    -0.082 Cl
HETATM   38  C   UNL     1      -4.261  -3.563 -34.493  1.00  0.00     0.026 A 
HETATM   39  C   UNL     1      -5.033  -4.681 -34.802  1.00  0.00     0.002 A 
HETATM   40  C   UNL     1      -6.419  -4.592 -34.764  1.00  0.00     0.002 A 
HETATM   41  C   UNL     1      -7.031  -3.376 -34.450  1.00  0.00     0.033 A 
ENDBRANCH   5  35
TORSDOF 9
ENDMDL
MODEL 4
REMARK VINA RESULT:      -9.3      2.273      6.347
REMARK  9 active torsions:
REMARK  status: ('A' for Active; 'I' for Inactive)
REMARK    1  A    between atoms: C_7  and  O_8 
REMARK    2  A    between atoms: O_8  and  C_9 
REMARK    3  A    between atoms: C_10  and  N_11 
REMARK    4  A    between atoms: N_11  and  C_12 
REMARK    5  A    between atoms: C_14  and  C_15 
REMARK       I    between atoms: C_15  and  N_16 
REMARK    6  A    between atoms: N_16  and  C_17 
REMARK    7  A    between atoms: C_17  and  C_18 
REMARK    8  A    between atoms: C_18  and  N_19 
REMARK    9  A    between atoms: N_29  and  C_30 
ROOT
HETATM    1  C   UNL     1      -7.457   0.683 -33.866  1.00  0.00     0.122 C 
HETATM    2  C   UNL     1      -7.885   0.879 -32.607  1.00  0.00     0.119 C 
HETATM    3  C   UNL     1      -9.356   1.137 -32.367  1.00  0.00     0.293 C 
HETATM    4  O   UNL     1      -9.720   1.198 -31.189  1.00  0.00    -0.264 OA
HETATM    5  N   UNL     1     -10.171   1.237 -33.493  1.00  0.00    -0.195 N 
HETATM    6  N   UNL     1      -9.766   0.811 -34.738  1.00  0.00    -0.174 NA
HETATM    7  C   UNL     1      -8.512   0.552 -34.891  1.00  0.00     0.178 C 
ENDROOT
BRANCH   2   8
HETATM    8  N   UNL     1      -7.095   0.916 -31.446  1.00  0.00    -0.253 NA
HETATM    9  H   UNL     1      -6.379   0.181 -31.529  1.00  0.00     0.134 HD
BRANCH   8  10
HETATM   10  C   UNL     1      -6.456   2.085 -30.950  1.00  0.00     0.014 A 
HETATM   11  C   UNL     1      -5.174   2.391 -31.430  1.00  0.00     0.040 A 
HETATM   12  C   UNL     1      -4.497   3.530 -30.977  1.00  0.00     0.033 A 
HETATM   13  C   UNL     1      -5.103   4.395 -30.061  1.00  0.00     0.017 A 
HETATM   14  C   UNL     1      -6.381   4.107 -29.591  1.00  0.00     0.003 A 
HETATM   15  C   UNL     1      -7.048   2.958 -30.027  1.00  0.00     0.024 A 
BRANCH  12  16
HETATM   16  C   UNL     1      -3.138   3.808 -31.499  1.00  0.00     0.251 C 
HETATM   17  N   UNL     1      -2.510   4.936 -31.005  1.00  0.00    -0.355 N 
HETATM   18  H   UNL     1      -2.958   5.356 -30.194  1.00  0.00     0.162 HD
HETATM   19  O   UNL     1      -2.620   3.094 -32.348  1.00  0.00    -0.268 OA
BRANCH  17  20
HETATM   20  C   UNL     1      -1.060   5.116 -31.074  1.00  0.00     0.150 C 
BRANCH  20  21
HETATM   21  C   UNL     1      -0.450   6.323 -30.329  1.00  0.00     0.253 C 
BRANCH  21  22
HETATM   22  N   UNL     1      -0.745   6.296 -28.843  1.00  0.00    -0.077 N 
HETATM   23  H   UNL     1      -1.405   5.506 -28.740  1.00  0.00     0.279 HD
HETATM   24  C   UNL     1       0.450   6.046 -27.983  1.00  0.00     0.269 C 
HETATM   25  C   UNL     1      -1.517   7.506 -28.407  1.00  0.00     0.269 C 
ENDBRANCH  21  22
ENDBRANCH  20  21
ENDBRANCH  17  20
ENDBRANCH  12  16
ENDBRANCH   8  10
ENDBRANCH   2   8
BRANCH   1  26
HETATM   26  O   UNL     1      -6.107   0.498 -34.151  1.00  0.00    -0.307 OA
BRANCH  26  27
HETATM   27  C   UNL     1      -5.565  -0.761 -34.081  1.00  0.00     0.076 A 
HETATM   28  C   UNL     1      -4.392  -0.905 -33.346  1.00  0.00     0.039 A 
HETATM   29  C   UNL     1      -3.799  -2.162 -33.228  1.00  0.00     0.027 A 
HETATM   30  C   UNL     1      -4.374  -3.271 -33.855  1.00  0.00     0.040 A 
HETATM   31  C   UNL     1      -5.537  -3.132 -34.632  1.00  0.00    -0.038 A 
HETATM   32 CL   UNL     1      -3.609  -4.803 -33.637  1.00  0.00    -0.084 Cl
HETATM   33  C   UNL     1      -6.190  -4.311 -35.299  1.00  0.00     0.050 C 
HETATM   34  C   UNL     1      -6.119  -1.858 -34.751  1.00  0.00     0.045 A 
ENDBRANCH  26  27
ENDBRANCH   1  26
BRANCH   5  35
HETATM   35  C   UNL     1     -11.565   1.558 -33.409  1.00  0.00     0.084 A 
HETATM   36  C   UNL     1     -12.057   2.838 -33.089  1.00  0.00     0.063 A 
HETATM   37 CL   UNL     1     -11.060   4.258 -33.039  1.00  0.00    -0.082 Cl
HETATM   38  C   UNL     1     -13.437   3.060 -32.964  1.00  0.00     0.026 A 
HETATM   39  C   UNL     1     -14.345   2.026 -33.190  1.00  0.00     0.002 A 
HETATM   40  C   UNL     1     -13.880   0.772 -33.565  1.00  0.00     0.002 A 
HETATM   41  C   UNL     1     -12.506   0.543 -33.682  1.00  0.00     0.033 A 
ENDBRANCH   5  35
TORSDOF 9
ENDMDL
MODEL 5
REMARK VINA RESULT:      -9.2      2.431      7.088
REMARK  9 active torsions:
REMARK  status: ('A' for Active; 'I' for Inactive)
REMARK    1  A    between atoms: C_7  and  O_8 
REMARK    2  A    between atoms: O_8  and  C_9 
REMARK    3  A    between atoms: C_10  and  N_11 
REMARK    4  A    between atoms: N_11  and  C_12 
REMARK    5  A    between atoms: C_14  and  C_15 
REMARK       I    between atoms: C_15  and  N_16 
REMARK    6  A    between atoms: N_16  and  C_17 
REMARK    7  A    between atoms: C_17  and  C_18 
REMARK    8  A    between atoms: C_18  and  N_19 
REMARK    9  A    between atoms: N_29  and  C_30 
ROOT
HETATM    1  C   UNL     1      -3.855   1.415 -31.504  1.00  0.00     0.122 C 
HETATM    2  C   UNL     1      -5.024   0.876 -31.120  1.00  0.00     0.119 C 
HETATM    3  C   UNL     1      -5.512  -0.380 -31.807  1.00  0.00     0.293 C 
HETATM    4  O   UNL     1      -6.532  -0.902 -31.346  1.00  0.00    -0.264 OA
HETATM    5  N   UNL     1      -4.744  -0.858 -32.867  1.00  0.00    -0.195 N 
HETATM    6  N   UNL     1      -3.452  -0.436 -33.092  1.00  0.00    -0.174 NA
HETATM    7  C   UNL     1      -3.055   0.609 -32.449  1.00  0.00     0.178 C 
ENDROOT
BRANCH   2   8
HETATM    8  N   UNL     1      -5.905   1.380 -30.148  1.00  0.00    -0.253 NA
HETATM    9  H   UNL     1      -5.350   1.617 -29.313  1.00  0.00     0.134 HD
BRANCH   8  10
HETATM   10  C   UNL     1      -6.820   2.444 -30.372  1.00  0.00     0.014 A 
HETATM   11  C   UNL     1      -7.932   2.197 -31.190  1.00  0.00     0.040 A 
HETATM   12  C   UNL     1      -8.867   3.208 -31.445  1.00  0.00     0.033 A 
HETATM   13  C   UNL     1      -8.721   4.470 -30.862  1.00  0.00     0.017 A 
HETATM   14  C   UNL     1      -7.629   4.719 -30.037  1.00  0.00     0.003 A 
HETATM   15  C   UNL     1      -6.683   3.717 -29.801  1.00  0.00     0.024 A 
BRANCH  12  16
HETATM   16  C   UNL     1     -10.021   2.909 -32.328  1.00  0.00     0.251 C 
HETATM   17  N   UNL     1     -11.262   3.313 -31.873  1.00  0.00    -0.355 N 
HETATM   18  H   UNL     1     -11.243   3.942 -31.074  1.00  0.00     0.162 HD
HETATM   19  O   UNL     1      -9.879   2.306 -33.383  1.00  0.00    -0.268 OA
BRANCH  17  20
HETATM   20  C   UNL     1     -12.404   3.486 -32.769  1.00  0.00     0.150 C 
BRANCH  20  21
HETATM   21  C   UNL     1     -13.364   2.290 -32.950  1.00  0.00     0.253 C 
BRANCH  21  22
HETATM   22  N   UNL     1     -12.769   1.196 -33.812  1.00  0.00    -0.077 N 
HETATM   23  H   UNL     1     -11.793   1.126 -33.479  1.00  0.00     0.279 HD
HETATM   24  C   UNL     1     -13.431  -0.135 -33.659  1.00  0.00     0.269 C 
HETATM   25  C   UNL     1     -12.660   1.615 -35.248  1.00  0.00     0.269 C 
ENDBRANCH  21  22
ENDBRANCH  20  21
ENDBRANCH  17  20
ENDBRANCH  12  16
ENDBRANCH   8  10
ENDBRANCH   2   8
BRANCH   1  26
HETATM   26  O   UNL     1      -3.386   2.601 -30.946  1.00  0.00    -0.307 OA
BRANCH  26  27
HETATM   27  C   UNL     1      -3.009   3.634 -31.766  1.00  0.00     0.076 A 
HETATM   28  C   UNL     1      -1.962   4.440 -31.328  1.00  0.00     0.039 A 
HETATM   29  C   UNL     1      -1.527   5.500 -32.122  1.00  0.00     0.027 A 
HETATM   30  C   UNL     1      -2.145   5.760 -33.349  1.00  0.00     0.040 A 
HETATM   31  C   UNL     1      -3.227   4.977 -33.784  1.00  0.00    -0.038 A 
HETATM   32 CL   UNL     1      -1.530   7.064 -34.298  1.00  0.00    -0.084 Cl
HETATM   33  C   UNL     1      -3.897   5.218 -35.109  1.00  0.00     0.050 C 
HETATM   34  C   UNL     1      -3.664   3.918 -32.970  1.00  0.00     0.045 A 
ENDBRANCH  26  27
ENDBRANCH   1  26
BRANCH   5  35
HETATM   35  C   UNL     1      -5.134  -1.990 -33.653  1.00  0.00     0.084 A 
HETATM   36  C   UNL     1      -6.310  -2.040 -34.426  1.00  0.00     0.063 A 
HETATM   37 CL   UNL     1      -7.288  -0.647 -34.764  1.00  0.00    -0.082 Cl
HETATM   38  C   UNL     1      -6.657  -3.209 -35.121  1.00  0.00     0.026 A 
HETATM   39  C   UNL     1      -5.826  -4.328 -35.086  1.00  0.00     0.002 A 
HETATM   40  C   UNL     1      -4.633  -4.276 -34.376  1.00  0.00     0.002 A 
HETATM   41  C   UNL     1      -4.287  -3.118 -33.676  1.00  0.00     0.033 A 
ENDBRANCH   5  35
TORSDOF 9
ENDMDL
MODEL 6
REMARK VINA RESULT:      -9.2      2.718      8.069
REMARK  9 active torsions:
REMARK  status: ('A' for Active; 'I' for Inactive)
REMARK    1  A    between atoms: C_7  and  O_8 
REMARK    2  A    between atoms: O_8  and  C_9 
REMARK    3  A    between atoms: C_10  and  N_11 
REMARK    4  A    between atoms: N_11  and  C_12 
REMARK    5  A    between atoms: C_14  and  C_15 
REMARK       I    between atoms: C_15  and  N_16 
REMARK    6  A    between atoms: N_16  and  C_17 
REMARK    7  A    between atoms: C_17  and  C_18 
REMARK    8  A    between atoms: C_18  and  N_19 
REMARK    9  A    between atoms: N_29  and  C_30 
ROOT
HETATM    1  C   UNL     1      -4.472   1.690 -31.205  1.00  0.00     0.122 C 
HETATM    2  C   UNL     1      -4.970   2.804 -30.640  1.00  0.00     0.119 C 
HETATM    3  C   UNL     1      -4.241   4.114 -30.842  1.00  0.00     0.293 C 
HETATM    4  O   UNL     1      -4.793   5.126 -30.402  1.00  0.00    -0.264 OA
HETATM    5  N   UNL     1      -3.038   4.065 -31.544  1.00  0.00    -0.195 N 
HETATM    6  N   UNL     1      -2.669   2.976 -32.301  1.00  0.00    -0.174 NA
HETATM    7  C   UNL     1      -3.346   1.890 -32.138  1.00  0.00     0.178 C 
ENDROOT
BRANCH   2   8
HETATM    8  N   UNL     1      -6.105   2.896 -29.818  1.00  0.00    -0.253 NA
HETATM    9  H   UNL     1      -5.864   3.497 -29.016  1.00  0.00     0.134 HD
BRANCH   8  10
HETATM   10  C   UNL     1      -7.395   3.283 -30.274  1.00  0.00     0.014 A 
HETATM   11  C   UNL     1      -7.978   2.541 -31.311  1.00  0.00     0.040 A 
HETATM   12  C   UNL     1      -9.246   2.876 -31.800  1.00  0.00     0.033 A 
HETATM   13  C   UNL     1      -9.962   3.938 -31.239  1.00  0.00     0.017 A 
HETATM   14  C   UNL     1      -9.398   4.670 -30.199  1.00  0.00     0.003 A 
HETATM   15  C   UNL     1      -8.122   4.349 -29.727  1.00  0.00     0.024 A 
BRANCH  12  16
HETATM   16  C   UNL     1      -9.821   2.075 -32.907  1.00  0.00     0.251 C 
HETATM   17  N   UNL     1     -11.075   1.538 -32.690  1.00  0.00    -0.355 N 
HETATM   18  H   UNL     1     -11.562   1.901 -31.873  1.00  0.00     0.162 HD
HETATM   19  O   UNL     1      -9.197   1.874 -33.942  1.00  0.00    -0.268 OA
BRANCH  17  20
HETATM   20  C   UNL     1     -11.942   1.108 -33.786  1.00  0.00     0.150 C 
BRANCH  20  21
HETATM   21  C   UNL     1     -12.857   2.167 -34.438  1.00  0.00     0.253 C 
BRANCH  21  22
HETATM   22  N   UNL     1     -14.307   2.009 -34.029  1.00  0.00    -0.077 N 
HETATM   23  H   UNL     1     -14.806   2.683 -34.634  1.00  0.00     0.279 HD
HETATM   24  C   UNL     1     -14.865   0.643 -34.260  1.00  0.00     0.269 C 
HETATM   25  C   UNL     1     -14.547   2.492 -32.630  1.00  0.00     0.269 C 
ENDBRANCH  21  22
ENDBRANCH  20  21
ENDBRANCH  17  20
ENDBRANCH  12  16
ENDBRANCH   8  10
ENDBRANCH   2   8
BRANCH   1  26
HETATM   26  O   UNL     1      -5.070   0.449 -31.005  1.00  0.00    -0.307 OA
BRANCH  26  27
HETATM   27  C   UNL     1      -5.219  -0.410 -32.064  1.00  0.00     0.076 A 
HETATM   28  C   UNL     1      -4.283  -1.434 -32.186  1.00  0.00     0.039 A 
HETATM   29  C   UNL     1      -4.388  -2.345 -33.236  1.00  0.00     0.027 A 
HETATM   30  C   UNL     1      -5.422  -2.227 -34.169  1.00  0.00     0.040 A 
HETATM   31  C   UNL     1      -6.350  -1.176 -34.079  1.00  0.00    -0.038 A 
HETATM   32 CL   UNL     1      -5.513  -3.412 -35.421  1.00  0.00    -0.084 Cl
HETATM   33  C   UNL     1      -7.485  -1.036 -35.055  1.00  0.00     0.050 C 
HETATM   34  C   UNL     1      -6.228  -0.257 -33.022  1.00  0.00     0.045 A 
ENDBRANCH  26  27
ENDBRANCH   1  26
BRANCH   5  35
HETATM   35  C   UNL     1      -2.210   5.219 -31.736  1.00  0.00     0.084 A 
HETATM   36  C   UNL     1      -2.291   6.062 -32.862  1.00  0.00     0.063 A 
HETATM   37 CL   UNL     1      -3.586   5.991 -34.015  1.00  0.00    -0.082 Cl
HETATM   38  C   UNL     1      -1.403   7.138 -33.010  1.00  0.00     0.026 A 
HETATM   39  C   UNL     1      -0.450   7.412 -32.030  1.00  0.00     0.002 A 
HETATM   40  C   UNL     1      -0.396   6.627 -30.886  1.00  0.00     0.002 A 
HETATM   41  C   UNL     1      -1.272   5.548 -30.737  1.00  0.00     0.033 A 
ENDBRANCH   5  35
TORSDOF 9
ENDMDL
MODEL 7
REMARK VINA RESULT:      -9.1      2.923      7.374
REMARK  9 active torsions:
REMARK  status: ('A' for Active; 'I' for Inactive)
REMARK    1  A    between atoms: C_7  and  O_8 
REMARK    2  A    between atoms: O_8  and  C_9 
REMARK    3  A    between atoms: C_10  and  N_11 
REMARK    4  A    between atoms: N_11  and  C_12 
REMARK    5  A    between atoms: C_14  and  C_15 
REMARK       I    between atoms: C_15  and  N_16 
REMARK    6  A    between atoms: N_16  and  C_17 
REMARK    7  A    between atoms: C_17  and  C_18 
REMARK    8  A    between atoms: C_18  and  N_19 
REMARK    9  A    between atoms: N_29  and  C_30 
ROOT
HETATM    1  C   UNL     1      -4.454   1.968 -31.341  1.00  0.00     0.122 C 
HETATM    2  C   UNL     1      -5.522   1.224 -31.007  1.00  0.00     0.119 C 
HETATM    3  C   UNL     1      -5.684  -0.145 -31.632  1.00  0.00     0.293 C 
HETATM    4  O   UNL     1      -6.616  -0.837 -31.211  1.00  0.00    -0.264 OA
HETATM    5  N   UNL     1      -4.742  -0.517 -32.589  1.00  0.00    -0.195 N 
HETATM    6  N   UNL     1      -3.546   0.148 -32.745  1.00  0.00    -0.174 NA
HETATM    7  C   UNL     1      -3.427   1.289 -32.156  1.00  0.00     0.178 C 
ENDROOT
BRANCH   2   8
HETATM    8  N   UNL     1      -6.571   1.593 -30.149  1.00  0.00    -0.253 NA
HETATM    9  H   UNL     1      -6.153   1.973 -29.288  1.00  0.00     0.134 HD
BRANCH   8  10
HETATM   10  C   UNL     1      -7.646   2.446 -30.518  1.00  0.00     0.014 A 
HETATM   11  C   UNL     1      -8.448   2.065 -31.604  1.00  0.00     0.040 A 
HETATM   12  C   UNL     1      -9.521   2.865 -32.013  1.00  0.00     0.033 A 
HETATM   13  C   UNL     1      -9.827   4.043 -31.324  1.00  0.00     0.017 A 
HETATM   14  C   UNL     1      -9.046   4.421 -30.236  1.00  0.00     0.003 A 
HETATM   15  C   UNL     1      -7.961   3.633 -29.842  1.00  0.00     0.024 A 
BRANCH  12  16
HETATM   16  C   UNL     1     -10.335   2.433 -33.175  1.00  0.00     0.251 C 
HETATM   17  N   UNL     1     -11.259   1.434 -32.938  1.00  0.00    -0.355 N 
HETATM   18  H   UNL     1     -11.427   1.226 -31.956  1.00  0.00     0.162 HD
HETATM   19  O   UNL     1     -10.167   2.915 -34.287  1.00  0.00    -0.268 OA
BRANCH  17  20
HETATM   20  C   UNL     1     -12.400   1.199 -33.823  1.00  0.00     0.150 C 
BRANCH  20  21
HETATM   21  C   UNL     1     -13.608   2.153 -33.706  1.00  0.00     0.253 C 
BRANCH  21  22
HETATM   22  N   UNL     1     -13.952   2.480 -32.267  1.00  0.00    -0.077 N 
HETATM   23  H   UNL     1     -13.408   1.788 -31.724  1.00  0.00     0.279 HD
HETATM   24  C   UNL     1     -13.555   3.854 -31.838  1.00  0.00     0.269 C 
HETATM   25  C   UNL     1     -15.387   2.178 -31.955  1.00  0.00     0.269 C 
ENDBRANCH  21  22
ENDBRANCH  20  21
ENDBRANCH  17  20
ENDBRANCH  12  16
ENDBRANCH   8  10
ENDBRANCH   2   8
BRANCH   1  26
HETATM   26  O   UNL     1      -4.286   3.256 -30.841  1.00  0.00    -0.307 OA
BRANCH  26  27
HETATM   27  C   UNL     1      -3.553   4.170 -31.556  1.00  0.00     0.076 A 
HETATM   28  C   UNL     1      -4.177   4.767 -32.648  1.00  0.00     0.039 A 
HETATM   29  C   UNL     1      -3.488   5.712 -33.407  1.00  0.00     0.027 A 
HETATM   30  C   UNL     1      -2.172   6.052 -33.080  1.00  0.00     0.040 A 
HETATM   31  C   UNL     1      -1.518   5.429 -32.004  1.00  0.00    -0.038 A 
HETATM   32 CL   UNL     1      -1.392   7.257 -34.040  1.00  0.00    -0.084 Cl
HETATM   33  C   UNL     1      -0.111   5.790 -31.615  1.00  0.00     0.050 C 
HETATM   34  C   UNL     1      -2.220   4.470 -31.252  1.00  0.00     0.045 A 
ENDBRANCH  26  27
ENDBRANCH   1  26
BRANCH   5  35
HETATM   35  C   UNL     1      -4.823  -1.751 -33.312  1.00  0.00     0.084 A 
HETATM   36  C   UNL     1      -3.951  -2.837 -33.109  1.00  0.00     0.063 A 
HETATM   37 CL   UNL     1      -2.855  -2.942 -31.768  1.00  0.00    -0.082 Cl
HETATM   38  C   UNL     1      -4.054  -3.991 -33.902  1.00  0.00     0.026 A 
HETATM   39  C   UNL     1      -5.043  -4.095 -34.879  1.00  0.00     0.002 A 
HETATM   40  C   UNL     1      -5.950  -3.056 -35.052  1.00  0.00     0.002 A 
HETATM   41  C   UNL     1      -5.846  -1.902 -34.272  1.00  0.00     0.033 A 
ENDBRANCH   5  35
TORSDOF 9
ENDMDL
MODEL 8
REMARK VINA RESULT:      -8.6      3.125      7.602
REMARK  9 active torsions:
REMARK  status: ('A' for Active; 'I' for Inactive)
REMARK    1  A    between atoms: C_7  and  O_8 
REMARK    2  A    between atoms: O_8  and  C_9 
REMARK    3  A    between atoms: C_10  and  N_11 
REMARK    4  A    between atoms: N_11  and  C_12 
REMARK    5  A    between atoms: C_14  and  C_15 
REMARK       I    between atoms: C_15  and  N_16 
REMARK    6  A    between atoms: N_16  and  C_17 
REMARK    7  A    between atoms: C_17  and  C_18 
REMARK    8  A    between atoms: C_18  and  N_19 
REMARK    9  A    between atoms: N_29  and  C_30 
ROOT
HETATM    1  C   UNL     1      -4.792   1.771 -32.066  1.00  0.00     0.122 C 
HETATM    2  C   UNL     1      -5.272   2.570 -33.034  1.00  0.00     0.119 C 
HETATM    3  C   UNL     1      -4.590   3.895 -33.292  1.00  0.00     0.293 C 
HETATM    4  O   UNL     1      -4.993   4.543 -34.263  1.00  0.00    -0.264 OA
HETATM    5  N   UNL     1      -3.542   4.242 -32.441  1.00  0.00    -0.195 N 
HETATM    6  N   UNL     1      -2.924   3.326 -31.619  1.00  0.00    -0.174 NA
HETATM    7  C   UNL     1      -3.510   2.188 -31.463  1.00  0.00     0.178 C 
ENDROOT
BRANCH   2   8
HETATM    8  N   UNL     1      -6.399   2.335 -33.838  1.00  0.00    -0.253 NA
HETATM    9  H   UNL     1      -6.251   1.444 -34.334  1.00  0.00     0.134 HD
BRANCH   8  10
HETATM   10  C   UNL     1      -7.739   2.344 -33.362  1.00  0.00     0.014 A 
HETATM   11  C   UNL     1      -8.070   3.246 -32.340  1.00  0.00     0.040 A 
HETATM   12  C   UNL     1      -9.373   3.300 -31.833  1.00  0.00     0.033 A 
HETATM   13  C   UNL     1     -10.372   2.476 -32.360  1.00  0.00     0.017 A 
HETATM   14  C   UNL     1     -10.056   1.589 -33.384  1.00  0.00     0.003 A 
HETATM   15  C   UNL     1      -8.749   1.519 -33.875  1.00  0.00     0.024 A 
BRANCH  12  16
HETATM   16  C   UNL     1      -9.677   4.258 -30.742  1.00  0.00     0.251 C 
HETATM   17  N   UNL     1      -8.600   4.708 -30.003  1.00  0.00    -0.355 N 
HETATM   18  H   UNL     1      -7.687   4.491 -30.397  1.00  0.00     0.162 HD
HETATM   19  O   UNL     1     -10.826   4.600 -30.493  1.00  0.00    -0.268 OA
BRANCH  17  20
HETATM   20  C   UNL     1      -8.655   5.935 -29.209  1.00  0.00     0.150 C 
BRANCH  20  21
HETATM   21  C   UNL     1      -7.450   6.898 -29.290  1.00  0.00     0.253 C 
BRANCH  21  22
HETATM   22  N   UNL     1      -6.669   6.957 -27.994  1.00  0.00    -0.077 N 
HETATM   23  H   UNL     1      -7.404   6.985 -27.267  1.00  0.00     0.279 HD
HETATM   24  C   UNL     1      -5.790   5.774 -27.751  1.00  0.00     0.269 C 
HETATM   25  C   UNL     1      -5.930   8.254 -27.848  1.00  0.00     0.269 C 
ENDBRANCH  21  22
ENDBRANCH  20  21
ENDBRANCH  17  20
ENDBRANCH  12  16
ENDBRANCH   8  10
ENDBRANCH   2   8
BRANCH   1  26
HETATM   26  O   UNL     1      -5.414   0.567 -31.747  1.00  0.00    -0.307 OA
BRANCH  26  27
HETATM   27  C   UNL     1      -4.959  -0.601 -32.306  1.00  0.00     0.076 A 
HETATM   28  C   UNL     1      -3.870  -1.214 -31.693  1.00  0.00     0.039 A 
HETATM   29  C   UNL     1      -3.368  -2.408 -32.208  1.00  0.00     0.027 A 
HETATM   30  C   UNL     1      -3.950  -2.984 -33.342  1.00  0.00     0.040 A 
HETATM   31  C   UNL     1      -5.024  -2.355 -33.993  1.00  0.00    -0.038 A 
HETATM   32 CL   UNL     1      -3.302  -4.483 -33.904  1.00  0.00    -0.084 Cl
HETATM   33  C   UNL     1      -5.684  -2.961 -35.200  1.00  0.00     0.050 C 
HETATM   34  C   UNL     1      -5.515  -1.146 -33.469  1.00  0.00     0.045 A 
ENDBRANCH  26  27
ENDBRANCH   1  26
BRANCH   5  35
HETATM   35  C   UNL     1      -2.865   5.502 -32.527  1.00  0.00     0.084 A 
HETATM   36  C   UNL     1      -1.926   5.820 -33.527  1.00  0.00     0.063 A 
HETATM   37 CL   UNL     1      -1.680   4.853 -34.947  1.00  0.00    -0.082 Cl
HETATM   38  C   UNL     1      -1.256   7.054 -33.508  1.00  0.00     0.026 A 
HETATM   39  C   UNL     1      -1.534   7.997 -32.520  1.00  0.00     0.002 A 
HETATM   40  C   UNL     1      -2.500   7.723 -31.560  1.00  0.00     0.002 A 
HETATM   41  C   UNL     1      -3.164   6.493 -31.569  1.00  0.00     0.033 A 
ENDBRANCH   5  35
TORSDOF 9
ENDMDL
MODEL 9
REMARK VINA RESULT:      -8.6      3.542      5.317
REMARK  9 active torsions:
REMARK  status: ('A' for Active; 'I' for Inactive)
REMARK    1  A    between atoms: C_7  and  O_8 
REMARK    2  A    between atoms: O_8  and  C_9 
REMARK    3  A    between atoms: C_10  and  N_11 
REMARK    4  A    between atoms: N_11  and  C_12 
REMARK    5  A    between atoms: C_14  and  C_15 
REMARK       I    between atoms: C_15  and  N_16 
REMARK    6  A    between atoms: N_16  and  C_17 
REMARK    7  A    between atoms: C_17  and  C_18 
REMARK    8  A    between atoms: C_18  and  N_19 
REMARK    9  A    between atoms: N_29  and  C_30 
ROOT
HETATM    1  C   UNL     1      -5.135   1.599 -30.600  1.00  0.00     0.122 C 
HETATM    2  C   UNL     1      -3.960   1.539 -31.250  1.00  0.00     0.119 C 
HETATM    3  C   UNL     1      -3.645   0.314 -32.080  1.00  0.00     0.293 C 
HETATM    4  O   UNL     1      -2.608   0.352 -32.748  1.00  0.00    -0.264 OA
HETATM    5  N   UNL     1      -4.574  -0.724 -32.050  1.00  0.00    -0.195 N 
HETATM    6  N   UNL     1      -5.856  -0.555 -31.575  1.00  0.00    -0.174 NA
HETATM    7  C   UNL     1      -6.100   0.526 -30.915  1.00  0.00     0.178 C 
ENDROOT
BRANCH   2   8
HETATM    8  N   UNL     1      -2.930   2.494 -31.217  1.00  0.00    -0.253 NA
HETATM    9  H   UNL     1      -2.048   2.012 -31.443  1.00  0.00     0.134 HD
BRANCH   8  10
HETATM   10  C   UNL     1      -2.949   3.717 -31.941  1.00  0.00     0.014 A 
HETATM   11  C   UNL     1      -2.569   4.888 -31.267  1.00  0.00     0.040 A 
HETATM   12  C   UNL     1      -2.568   6.122 -31.929  1.00  0.00     0.033 A 
HETATM   13  C   UNL     1      -2.918   6.199 -33.280  1.00  0.00     0.017 A 
HETATM   14  C   UNL     1      -3.282   5.041 -33.960  1.00  0.00     0.003 A 
HETATM   15  C   UNL     1      -3.304   3.812 -33.293  1.00  0.00     0.024 A 
BRANCH  12  16
HETATM   16  C   UNL     1      -2.174   7.337 -31.176  1.00  0.00     0.251 C 
HETATM   17  N   UNL     1      -2.884   7.600 -30.020  1.00  0.00    -0.355 N 
HETATM   18  H   UNL     1      -3.475   6.838 -29.696  1.00  0.00     0.162 HD
HETATM   19  O   UNL     1      -1.290   8.081 -31.582  1.00  0.00    -0.268 OA
BRANCH  17  20
HETATM   20  C   UNL     1      -2.366   8.472 -28.967  1.00  0.00     0.150 C 
BRANCH  20  21
HETATM   21  C   UNL     1      -1.215   7.935 -28.089  1.00  0.00     0.253 C 
BRANCH  21  22
HETATM   22  N   UNL     1      -1.624   6.723 -27.278  1.00  0.00    -0.077 N 
HETATM   23  H   UNL     1      -1.910   6.035 -27.994  1.00  0.00     0.279 HD
HETATM   24  C   UNL     1      -0.525   6.137 -26.453  1.00  0.00     0.269 C 
HETATM   25  C   UNL     1      -2.862   6.984 -26.472  1.00  0.00     0.269 C 
ENDBRANCH  21  22
ENDBRANCH  20  21
ENDBRANCH  17  20
ENDBRANCH  12  16
ENDBRANCH   8  10
ENDBRANCH   2   8
BRANCH   1  26
HETATM   26  O   UNL     1      -5.453   2.676 -29.777  1.00  0.00    -0.307 OA
BRANCH  26  27
HETATM   27  C   UNL     1      -6.391   3.589 -30.187  1.00  0.00     0.076 A 
HETATM   28  C   UNL     1      -7.691   3.414 -29.720  1.00  0.00     0.039 A 
HETATM   29  C   UNL     1      -8.687   4.316 -30.093  1.00  0.00     0.027 A 
HETATM   30  C   UNL     1      -8.385   5.386 -30.941  1.00  0.00     0.040 A 
HETATM   31  C   UNL     1      -7.086   5.551 -31.450  1.00  0.00    -0.038 A 
HETATM   32 CL   UNL     1      -9.658   6.485 -31.332  1.00  0.00    -0.084 Cl
HETATM   33  C   UNL     1      -6.726   6.704 -32.345  1.00  0.00     0.050 C 
HETATM   34  C   UNL     1      -6.093   4.630 -31.074  1.00  0.00     0.045 A 
ENDBRANCH  26  27
ENDBRANCH   1  26
BRANCH   5  35
HETATM   35  C   UNL     1      -4.361  -1.969 -32.726  1.00  0.00     0.084 A 
HETATM   36  C   UNL     1      -5.028  -2.342 -33.909  1.00  0.00     0.063 A 
HETATM   37 CL   UNL     1      -5.970  -1.239 -34.861  1.00  0.00    -0.082 Cl
HETATM   38  C   UNL     1      -4.813  -3.606 -34.480  1.00  0.00     0.026 A 
HETATM   39  C   UNL     1      -3.910  -4.500 -33.905  1.00  0.00     0.002 A 
HETATM   40  C   UNL     1      -3.200  -4.125 -32.771  1.00  0.00     0.002 A 
HETATM   41  C   UNL     1      -3.417  -2.871 -32.195  1.00  0.00     0.033 A 
ENDBRANCH   5  35
TORSDOF 9
ENDMDL
MODEL 10
REMARK VINA RESULT:      -8.5      2.796      7.121
REMARK  9 active torsions:
REMARK  status: ('A' for Active; 'I' for Inactive)
REMARK    1  A    between atoms: C_7  and  O_8 
REMARK    2  A    between atoms: O_8  and  C_9 
REMARK    3  A    between atoms: C_10  and  N_11 
REMARK    4  A    between atoms: N_11  and  C_12 
REMARK    5  A    between atoms: C_14  and  C_15 
REMARK       I    between atoms: C_15  and  N_16 
REMARK    6  A    between atoms: N_16  and  C_17 
REMARK    7  A    between atoms: C_17  and  C_18 
REMARK    8  A    between atoms: C_18  and  N_19 
REMARK    9  A    between atoms: N_29  and  C_30 
ROOT
HETATM    1  C   UNL     1      -5.937   2.421 -32.631  1.00  0.00     0.122 C 
HETATM    2  C   UNL     1      -6.415   3.426 -33.384  1.00  0.00     0.119 C 
HETATM    3  C   UNL     1      -7.878   3.791 -33.273  1.00  0.00     0.293 C 
HETATM    4  O   UNL     1      -8.247   4.791 -33.896  1.00  0.00    -0.264 OA
HETATM    5  N   UNL     1      -8.666   2.995 -32.444  1.00  0.00    -0.195 N 
HETATM    6  N   UNL     1      -8.125   2.131 -31.519  1.00  0.00    -0.174 NA
HETATM    7  C   UNL     1      -6.863   1.883 -31.614  1.00  0.00     0.178 C 
ENDROOT
BRANCH   2   8
HETATM    8  N   UNL     1      -5.702   4.182 -34.330  1.00  0.00    -0.253 NA
HETATM    9  H   UNL     1      -6.382   4.751 -34.854  1.00  0.00     0.134 HD
BRANCH   8  10
HETATM   10  C   UNL     1      -4.593   5.015 -34.018  1.00  0.00     0.014 A 
HETATM   11  C   UNL     1      -4.542   5.596 -32.742  1.00  0.00     0.040 A 
HETATM   12  C   UNL     1      -3.474   6.425 -32.380  1.00  0.00     0.033 A 
HETATM   13  C   UNL     1      -2.426   6.661 -33.276  1.00  0.00     0.017 A 
HETATM   14  C   UNL     1      -2.461   6.076 -34.538  1.00  0.00     0.003 A 
HETATM   15  C   UNL     1      -3.540   5.266 -34.907  1.00  0.00     0.024 A 
BRANCH  12  16
HETATM   16  C   UNL     1      -3.466   7.030 -31.026  1.00  0.00     0.251 C 
HETATM   17  N   UNL     1      -2.583   6.483 -30.115  1.00  0.00    -0.355 N 
HETATM   18  H   UNL     1      -1.893   5.850 -30.511  1.00  0.00     0.162 HD
HETATM   19  O   UNL     1      -4.227   7.942 -30.730  1.00  0.00    -0.268 OA
BRANCH  17  20
HETATM   20  C   UNL     1      -2.146   7.205 -28.921  1.00  0.00     0.150 C 
BRANCH  20  21
HETATM   21  C   UNL     1      -0.662   7.626 -28.837  1.00  0.00     0.253 C 
BRANCH  21  22
HETATM   22  N   UNL     1       0.164   6.670 -28.002  1.00  0.00    -0.077 N 
HETATM   23  H   UNL     1       1.019   7.210 -27.788  1.00  0.00     0.279 HD
HETATM   24  C   UNL     1      -0.483   6.258 -26.720  1.00  0.00     0.269 C 
HETATM   25  C   UNL     1       0.637   5.495 -28.804  1.00  0.00     0.269 C 
ENDBRANCH  21  22
ENDBRANCH  20  21
ENDBRANCH  17  20
ENDBRANCH  12  16
ENDBRANCH   8  10
ENDBRANCH   2   8
BRANCH   1  26
HETATM   26  O   UNL     1      -4.613   2.005 -32.735  1.00  0.00    -0.307 OA
BRANCH  26  27
HETATM   27  C   UNL     1      -4.316   0.666 -32.683  1.00  0.00     0.076 A 
HETATM   28  C   UNL     1      -3.366   0.264 -31.748  1.00  0.00     0.039 A 
HETATM   29  C   UNL     1      -3.030  -1.085 -31.640  1.00  0.00     0.027 A 
HETATM   30  C   UNL     1      -3.635  -2.029 -32.475  1.00  0.00     0.040 A 
HETATM   31  C   UNL     1      -4.566  -1.631 -33.449  1.00  0.00    -0.038 A 
HETATM   32 CL   UNL     1      -3.200  -3.686 -32.262  1.00  0.00    -0.084 Cl
HETATM   33  C   UNL     1      -5.250  -2.626 -34.345  1.00  0.00     0.050 C 
HETATM   34  C   UNL     1      -4.890  -0.267 -33.554  1.00  0.00     0.045 A 
ENDBRANCH  26  27
ENDBRANCH   1  26
BRANCH   5  35
HETATM   35  C   UNL     1     -10.081   3.182 -32.312  1.00  0.00     0.084 A 
HETATM   36  C   UNL     1     -11.031   2.612 -33.180  1.00  0.00     0.063 A 
HETATM   37 CL   UNL     1     -10.645   1.381 -34.340  1.00  0.00    -0.082 Cl
HETATM   38  C   UNL     1     -12.397   2.893 -33.023  1.00  0.00     0.026 A 
HETATM   39  C   UNL     1     -12.839   3.712 -31.985  1.00  0.00     0.002 A 
HETATM   40  C   UNL     1     -11.920   4.235 -31.084  1.00  0.00     0.002 A 
HETATM   41  C   UNL     1     -10.558   3.966 -31.241  1.00  0.00     0.033 A 
ENDBRANCH   5  35
TORSDOF 9
ENDMDL
