MODEL 1
REMARK VINA RESULT:      -8.3      0.000      0.000
REMARK  4 active torsions:
REMARK  status: ('A' for Active; 'I' for Inactive)
REMARK    1  A    between atoms: C_9  and  C_10 
REMARK       I    between atoms: C_10  and  N_11 
REMARK    2  A    between atoms: N_11  and  C_12 
REMARK    3  A    between atoms: C_12  and  C_13 
REMARK    4  A    between atoms: C_14  and  O_15 
ROOT
HETATM    1  C   UNL     1      -5.197   2.740 -32.173  1.00  0.00     0.273 C 
HETATM    2  N   UNL     1      -5.820   1.691 -32.812  1.00  0.00    -0.347 N 
HETATM    3  O   UNL     1      -5.091   2.835 -30.954  1.00  0.00    -0.266 OA
HETATM    4  H   UNL     1      -5.681   1.679 -33.819  1.00  0.00     0.163 HD
ENDROOT
BRANCH   1   5
HETATM    5  C   UNL     1      -4.654   3.741 -33.107  1.00  0.00     0.157 A 
HETATM    6  C   UNL     1      -3.395   4.408 -33.023  1.00  0.00     0.029 A 
HETATM    7  C   UNL     1      -2.305   4.412 -32.130  1.00  0.00     0.023 A 
HETATM    8  C   UNL     1      -3.347   5.230 -34.142  1.00  0.00     0.063 A 
HETATM    9  C   UNL     1      -1.203   5.246 -32.387  1.00  0.00    -0.061 A 
HETATM   10  C   UNL     1      -0.041   5.282 -31.437  1.00  0.00     0.048 C 
HETATM   11  C   UNL     1      -1.193   6.055 -33.529  1.00  0.00     0.009 A 
HETATM   12  C   UNL     1      -2.264   6.063 -34.432  1.00  0.00     0.032 A 
HETATM   13  N   UNL     1      -4.527   5.016 -34.798  1.00  0.00    -0.277 N 
HETATM   14  H   UNL     1      -4.834   5.447 -35.662  1.00  0.00     0.189 HD
HETATM   15  N   UNL     1      -5.347   4.135 -34.199  1.00  0.00    -0.168 NA
ENDBRANCH   1   5
BRANCH   2  16
HETATM   16  C   UNL     1      -6.195   0.459 -32.143  1.00  0.00     0.116 C 
HETATM   17  C   UNL     1      -7.641   0.496 -31.628  1.00  0.00     0.037 C 
BRANCH  16  18
HETATM   18  C   UNL     1      -5.938  -0.717 -33.081  1.00  0.00    -0.003 A 
HETATM   19  C   UNL     1      -4.622  -1.141 -33.367  1.00  0.00     0.076 A 
HETATM   20  C   UNL     1      -4.411  -2.220 -34.235  1.00  0.00     0.037 A 
HETATM   21  C   UNL     1      -5.490  -2.864 -34.844  1.00  0.00     0.003 A 
HETATM   22  C   UNL     1      -6.787  -2.431 -34.598  1.00  0.00     0.001 A 
HETATM   23  C   UNL     1      -7.008  -1.362 -33.730  1.00  0.00     0.012 A 
BRANCH  19  24
HETATM   24  O   UNL     1      -3.614  -0.451 -32.746  1.00  0.00    -0.355 OA
HETATM   25  C   UNL     1      -2.784  -1.177 -31.848  1.00  0.00     0.210 C 
ENDBRANCH  19  24
ENDBRANCH  16  18
ENDBRANCH   2  16
TORSDOF 4
ENDMDL
MODEL 2
REMARK VINA RESULT:      -7.9      3.924      6.359
REMARK  4 active torsions:
REMARK  status: ('A' for Active; 'I' for Inactive)
REMARK    1  A    between atoms: C_9  and  C_10 
REMARK       I    between atoms: C_10  and  N_11 
REMARK    2  A    between atoms: N_11  and  C_12 
REMARK    3  A    between atoms: C_12  and  C_13 
REMARK    4  A    between atoms: C_14  and  O_15 
ROOT
HETATM    1  C   UNL     1      -8.128   2.312 -32.652  1.00  0.00     0.273 C 
HETATM    2  N   UNL     1      -7.750   1.016 -32.925  1.00  0.00    -0.347 N 
HETATM    3  O   UNL     1      -7.641   2.993 -31.755  1.00  0.00    -0.266 OA
HETATM    4  H   UNL     1      -8.127   0.650 -33.795  1.00  0.00     0.163 HD
ENDROOT
BRANCH   1   5
HETATM    5  C   UNL     1      -9.175   2.809 -33.561  1.00  0.00     0.157 A 
HETATM    6  C   UNL     1     -10.436   2.204 -33.840  1.00  0.00     0.029 A 
HETATM    7  C   UNL     1     -11.110   1.031 -33.443  1.00  0.00     0.023 A 
HETATM    8  C   UNL     1     -11.060   3.064 -34.735  1.00  0.00     0.063 A 
HETATM    9  C   UNL     1     -12.387   0.758 -33.963  1.00  0.00    -0.061 A 
HETATM   10  C   UNL     1     -13.114  -0.497 -33.570  1.00  0.00     0.048 C 
HETATM   11  C   UNL     1     -12.981   1.655 -34.858  1.00  0.00     0.009 A 
HETATM   12  C   UNL     1     -12.332   2.827 -35.262  1.00  0.00     0.032 A 
HETATM   13  N   UNL     1     -10.173   4.087 -34.929  1.00  0.00    -0.277 N 
HETATM   14  H   UNL     1     -10.297   4.899 -35.521  1.00  0.00     0.189 HD
HETATM   15  N   UNL     1      -9.021   3.963 -34.249  1.00  0.00    -0.168 NA
ENDBRANCH   1   5
BRANCH   2  16
HETATM   16  C   UNL     1      -6.566   0.395 -32.360  1.00  0.00     0.116 C 
HETATM   17  C   UNL     1      -6.756   0.028 -30.881  1.00  0.00     0.037 C 
BRANCH  16  18
HETATM   18  C   UNL     1      -6.176  -0.807 -33.215  1.00  0.00    -0.003 A 
HETATM   19  C   UNL     1      -4.819  -1.123 -33.446  1.00  0.00     0.076 A 
HETATM   20  C   UNL     1      -4.486  -2.229 -34.238  1.00  0.00     0.037 A 
HETATM   21  C   UNL     1      -5.483  -3.007 -34.828  1.00  0.00     0.003 A 
HETATM   22  C   UNL     1      -6.821  -2.683 -34.639  1.00  0.00     0.001 A 
HETATM   23  C   UNL     1      -7.164  -1.589 -33.846  1.00  0.00     0.012 A 
BRANCH  19  24
HETATM   24  O   UNL     1      -3.897  -0.304 -32.848  1.00  0.00    -0.355 OA
HETATM   25  C   UNL     1      -3.098  -0.867 -31.814  1.00  0.00     0.210 C 
ENDBRANCH  19  24
ENDBRANCH  16  18
ENDBRANCH   2  16
TORSDOF 4
ENDMDL
MODEL 3
REMARK VINA RESULT:      -7.9      1.394      2.173
REMARK  4 active torsions:
REMARK  status: ('A' for Active; 'I' for Inactive)
REMARK    1  A    between atoms: C_9  and  C_10 
REMARK       I    between atoms: C_10  and  N_11 
REMARK    2  A    between atoms: N_11  and  C_12 
REMARK    3  A    between atoms: C_12  and  C_13 
REMARK    4  A    between atoms: C_14  and  O_15 
ROOT
HETATM    1  C   UNL     1      -3.600   2.589 -31.882  1.00  0.00     0.273 C 
HETATM    2  N   UNL     1      -4.778   1.895 -32.049  1.00  0.00    -0.347 N 
HETATM    3  O   UNL     1      -2.693   2.231 -31.136  1.00  0.00    -0.266 OA
HETATM    4  H   UNL     1      -5.351   2.233 -32.818  1.00  0.00     0.163 HD
ENDROOT
BRANCH   1   5
HETATM    5  C   UNL     1      -3.529   3.809 -32.703  1.00  0.00     0.157 A 
HETATM    6  C   UNL     1      -2.550   4.844 -32.633  1.00  0.00     0.029 A 
HETATM    7  C   UNL     1      -1.412   5.112 -31.846  1.00  0.00     0.023 A 
HETATM    8  C   UNL     1      -2.911   5.751 -33.621  1.00  0.00     0.063 A 
HETATM    9  C   UNL     1      -0.676   6.289 -32.073  1.00  0.00    -0.061 A 
HETATM   10  C   UNL     1       0.527   6.606 -31.232  1.00  0.00     0.048 C 
HETATM   11  C   UNL     1      -1.072   7.174 -33.083  1.00  0.00     0.009 A 
HETATM   12  C   UNL     1      -2.196   6.923 -33.879  1.00  0.00     0.032 A 
HETATM   13  N   UNL     1      -4.035   5.229 -34.197  1.00  0.00    -0.277 N 
HETATM   14  H   UNL     1      -4.572   5.624 -34.959  1.00  0.00     0.189 HD
HETATM   15  N   UNL     1      -4.447   4.066 -33.664  1.00  0.00    -0.168 NA
ENDBRANCH   1   5
BRANCH   2  16
HETATM   16  C   UNL     1      -4.981   0.541 -31.568  1.00  0.00     0.116 C 
HETATM   17  C   UNL     1      -5.978   0.484 -30.401  1.00  0.00     0.037 C 
BRANCH  16  18
HETATM   18  C   UNL     1      -5.397  -0.347 -32.737  1.00  0.00    -0.003 A 
HETATM   19  C   UNL     1      -6.538  -0.040 -33.509  1.00  0.00     0.076 A 
HETATM   20  C   UNL     1      -6.903  -0.873 -34.575  1.00  0.00     0.037 A 
HETATM   21  C   UNL     1      -6.166  -2.022 -34.864  1.00  0.00     0.003 A 
HETATM   22  C   UNL     1      -5.063  -2.354 -34.087  1.00  0.00     0.001 A 
HETATM   23  C   UNL     1      -4.687  -1.528 -33.028  1.00  0.00     0.012 A 
BRANCH  19  24
HETATM   24  O   UNL     1      -7.222   1.094 -33.156  1.00  0.00    -0.355 OA
HETATM   25  C   UNL     1      -8.629   0.982 -32.988  1.00  0.00     0.210 C 
ENDBRANCH  19  24
ENDBRANCH  16  18
ENDBRANCH   2  16
TORSDOF 4
ENDMDL
MODEL 4
REMARK VINA RESULT:      -7.8      2.208      7.359
REMARK  4 active torsions:
REMARK  status: ('A' for Active; 'I' for Inactive)
REMARK    1  A    between atoms: C_9  and  C_10 
REMARK       I    between atoms: C_10  and  N_11 
REMARK    2  A    between atoms: N_11  and  C_12 
REMARK    3  A    between atoms: C_12  and  C_13 
REMARK    4  A    between atoms: C_14  and  O_15 
ROOT
HETATM    1  C   UNL     1      -4.277   2.633 -31.921  1.00  0.00     0.273 C 
HETATM    2  N   UNL     1      -3.619   3.549 -31.129  1.00  0.00    -0.347 N 
HETATM    3  O   UNL     1      -5.201   2.919 -32.676  1.00  0.00    -0.266 OA
HETATM    4  H   UNL     1      -2.779   3.185 -30.689  1.00  0.00     0.163 HD
ENDROOT
BRANCH   1   5
HETATM    5  C   UNL     1      -3.750   1.265 -31.778  1.00  0.00     0.157 A 
HETATM    6  C   UNL     1      -4.187   0.094 -32.465  1.00  0.00     0.029 A 
HETATM    7  C   UNL     1      -5.182  -0.214 -33.415  1.00  0.00     0.023 A 
HETATM    8  C   UNL     1      -3.367  -0.926 -31.999  1.00  0.00     0.063 A 
HETATM    9  C   UNL     1      -5.323  -1.539 -33.863  1.00  0.00    -0.061 A 
HETATM   10  C   UNL     1      -6.390  -1.894 -34.858  1.00  0.00     0.048 C 
HETATM   11  C   UNL     1      -4.472  -2.535 -33.371  1.00  0.00     0.009 A 
HETATM   12  C   UNL     1      -3.474  -2.250 -32.431  1.00  0.00     0.032 A 
HETATM   13  N   UNL     1      -2.525  -0.329 -31.102  1.00  0.00    -0.277 N 
HETATM   14  H   UNL     1      -1.788  -0.773 -30.567  1.00  0.00     0.189 HD
HETATM   15  N   UNL     1      -2.733   0.987 -30.931  1.00  0.00    -0.168 NA
ENDBRANCH   1   5
BRANCH   2  16
HETATM   16  C   UNL     1      -3.764   4.985 -31.283  1.00  0.00     0.116 C 
HETATM   17  C   UNL     1      -4.764   5.577 -30.279  1.00  0.00     0.037 C 
BRANCH  16  18
HETATM   18  C   UNL     1      -2.387   5.638 -31.192  1.00  0.00    -0.003 A 
HETATM   19  C   UNL     1      -1.401   5.387 -32.170  1.00  0.00     0.076 A 
HETATM   20  C   UNL     1      -0.143   5.995 -32.063  1.00  0.00     0.037 A 
HETATM   21  C   UNL     1       0.155   6.824 -30.980  1.00  0.00     0.003 A 
HETATM   22  C   UNL     1      -0.796   7.048 -29.992  1.00  0.00     0.001 A 
HETATM   23  C   UNL     1      -2.053   6.454 -30.094  1.00  0.00     0.012 A 
BRANCH  19  24
HETATM   24  O   UNL     1      -1.761   4.550 -33.194  1.00  0.00    -0.355 OA
HETATM   25  C   UNL     1      -1.818   5.106 -34.502  1.00  0.00     0.210 C 
ENDBRANCH  19  24
ENDBRANCH  16  18
ENDBRANCH   2  16
TORSDOF 4
ENDMDL
MODEL 5
REMARK VINA RESULT:      -7.5      1.960      2.385
REMARK  4 active torsions:
REMARK  status: ('A' for Active; 'I' for Inactive)
REMARK    1  A    between atoms: C_9  and  C_10 
REMARK       I    between atoms: C_10  and  N_11 
REMARK    2  A    between atoms: N_11  and  C_12 
REMARK    3  A    between atoms: C_12  and  C_13 
REMARK    4  A    between atoms: C_14  and  O_15 
ROOT
HETATM    1  C   UNL     1      -5.621   4.898 -33.272  1.00  0.00     0.273 C 
HETATM    2  N   UNL     1      -6.023   3.737 -33.895  1.00  0.00    -0.347 N 
HETATM    3  O   UNL     1      -6.253   5.449 -32.375  1.00  0.00    -0.266 OA
HETATM    4  H   UNL     1      -5.314   3.325 -34.496  1.00  0.00     0.163 HD
ENDROOT
BRANCH   1   5
HETATM    5  C   UNL     1      -4.340   5.413 -33.784  1.00  0.00     0.157 A 
HETATM    6  C   UNL     1      -3.320   6.083 -33.046  1.00  0.00     0.029 A 
HETATM    7  C   UNL     1      -3.139   6.498 -31.711  1.00  0.00     0.023 A 
HETATM    8  C   UNL     1      -2.316   6.343 -33.970  1.00  0.00     0.063 A 
HETATM    9  C   UNL     1      -1.957   7.168 -31.349  1.00  0.00    -0.061 A 
HETATM   10  C   UNL     1      -1.754   7.640 -29.938  1.00  0.00     0.048 C 
HETATM   11  C   UNL     1      -0.969   7.406 -32.311  1.00  0.00     0.009 A 
HETATM   12  C   UNL     1      -1.126   6.997 -33.641  1.00  0.00     0.032 A 
HETATM   13  N   UNL     1      -2.776   5.836 -35.154  1.00  0.00    -0.277 N 
HETATM   14  H   UNL     1      -2.301   5.845 -36.048  1.00  0.00     0.189 HD
HETATM   15  N   UNL     1      -3.997   5.279 -35.085  1.00  0.00    -0.168 NA
ENDBRANCH   1   5
BRANCH   2  16
HETATM   16  C   UNL     1      -7.095   2.895 -33.397  1.00  0.00     0.116 C 
HETATM   17  C   UNL     1      -8.472   3.358 -33.894  1.00  0.00     0.037 C 
BRANCH  16  18
HETATM   18  C   UNL     1      -6.799   1.443 -33.761  1.00  0.00    -0.003 A 
HETATM   19  C   UNL     1      -5.781   0.723 -33.100  1.00  0.00     0.076 A 
HETATM   20  C   UNL     1      -5.525  -0.608 -33.455  1.00  0.00     0.037 A 
HETATM   21  C   UNL     1      -6.249  -1.222 -34.479  1.00  0.00     0.003 A 
HETATM   22  C   UNL     1      -7.228  -0.511 -35.162  1.00  0.00     0.001 A 
HETATM   23  C   UNL     1      -7.495   0.812 -34.811  1.00  0.00     0.012 A 
BRANCH  19  24
HETATM   24  O   UNL     1      -5.102   1.396 -32.118  1.00  0.00    -0.355 OA
HETATM   25  C   UNL     1      -3.690   1.503 -32.258  1.00  0.00     0.210 C 
ENDBRANCH  19  24
ENDBRANCH  16  18
ENDBRANCH   2  16
TORSDOF 4
ENDMDL
MODEL 6
REMARK VINA RESULT:      -7.4      4.501      7.346
REMARK  4 active torsions:
REMARK  status: ('A' for Active; 'I' for Inactive)
REMARK    1  A    between atoms: C_9  and  C_10 
REMARK       I    between atoms: C_10  and  N_11 
REMARK    2  A    between atoms: N_11  and  C_12 
REMARK    3  A    between atoms: C_12  and  C_13 
REMARK    4  A    between atoms: C_14  and  O_15 
ROOT
HETATM    1  C   UNL     1      -8.376   0.658 -32.618  1.00  0.00     0.273 C 
HETATM    2  N   UNL     1      -8.534   1.880 -32.002  1.00  0.00    -0.347 N 
HETATM    3  O   UNL     1      -9.309  -0.062 -32.962  1.00  0.00    -0.266 OA
HETATM    4  H   UNL     1      -7.677   2.420 -31.931  1.00  0.00     0.163 HD
ENDROOT
BRANCH   1   5
HETATM    5  C   UNL     1      -6.964   0.302 -32.836  1.00  0.00     0.157 A 
HETATM    6  C   UNL     1      -6.456  -0.869 -33.473  1.00  0.00     0.029 A 
HETATM    7  C   UNL     1      -7.006  -2.027 -34.057  1.00  0.00     0.023 A 
HETATM    8  C   UNL     1      -5.074  -0.724 -33.446  1.00  0.00     0.063 A 
HETATM    9  C   UNL     1      -6.151  -3.006 -34.592  1.00  0.00    -0.061 A 
HETATM   10  C   UNL     1      -6.715  -4.258 -35.200  1.00  0.00     0.048 C 
HETATM   11  C   UNL     1      -4.764  -2.818 -34.549  1.00  0.00     0.009 A 
HETATM   12  C   UNL     1      -4.197  -1.673 -33.977  1.00  0.00     0.032 A 
HETATM   13  N   UNL     1      -4.849   0.471 -32.822  1.00  0.00    -0.277 N 
HETATM   14  H   UNL     1      -3.953   0.902 -32.631  1.00  0.00     0.189 HD
HETATM   15  N   UNL     1      -5.962   1.114 -32.429  1.00  0.00    -0.168 NA
ENDBRANCH   1   5
BRANCH   2  16
HETATM   16  C   UNL     1      -9.807   2.572 -31.921  1.00  0.00     0.116 C 
HETATM   17  C   UNL     1      -9.975   3.320 -30.590  1.00  0.00     0.037 C 
BRANCH  16  18
HETATM   18  C   UNL     1      -9.954   3.491 -33.130  1.00  0.00    -0.003 A 
HETATM   19  C   UNL     1     -10.825   3.159 -34.191  1.00  0.00     0.076 A 
HETATM   20  C   UNL     1     -10.940   4.016 -35.292  1.00  0.00     0.037 A 
HETATM   21  C   UNL     1     -10.178   5.184 -35.367  1.00  0.00     0.003 A 
HETATM   22  C   UNL     1      -9.291   5.502 -34.346  1.00  0.00     0.001 A 
HETATM   23  C   UNL     1      -9.174   4.659 -33.242  1.00  0.00     0.012 A 
BRANCH  19  24
HETATM   24  O   UNL     1     -11.527   1.990 -34.055  1.00  0.00    -0.355 OA
HETATM   25  C   UNL     1     -12.493   1.690 -35.055  1.00  0.00     0.210 C 
ENDBRANCH  19  24
ENDBRANCH  16  18
ENDBRANCH   2  16
TORSDOF 4
ENDMDL
MODEL 7
REMARK VINA RESULT:      -7.4      2.837      6.290
REMARK  4 active torsions:
REMARK  status: ('A' for Active; 'I' for Inactive)
REMARK    1  A    between atoms: C_9  and  C_10 
REMARK       I    between atoms: C_10  and  N_11 
REMARK    2  A    between atoms: N_11  and  C_12 
REMARK    3  A    between atoms: C_12  and  C_13 
REMARK    4  A    between atoms: C_14  and  O_15 
ROOT
HETATM    1  C   UNL     1      -4.706   1.525 -31.693  1.00  0.00     0.273 C 
HETATM    2  N   UNL     1      -5.148   1.978 -32.917  1.00  0.00    -0.347 N 
HETATM    3  O   UNL     1      -4.903   2.112 -30.633  1.00  0.00    -0.266 OA
HETATM    4  H   UNL     1      -5.046   1.301 -33.668  1.00  0.00     0.163 HD
ENDROOT
BRANCH   1   5
HETATM    5  C   UNL     1      -3.977   0.248 -31.781  1.00  0.00     0.157 A 
HETATM    6  C   UNL     1      -4.343  -0.906 -32.534  1.00  0.00     0.029 A 
HETATM    7  C   UNL     1      -5.414  -1.273 -33.374  1.00  0.00     0.023 A 
HETATM    8  C   UNL     1      -3.329  -1.826 -32.302  1.00  0.00     0.063 A 
HETATM    9  C   UNL     1      -5.434  -2.555 -33.950  1.00  0.00    -0.061 A 
HETATM   10  C   UNL     1      -6.577  -2.975 -34.830  1.00  0.00     0.048 C 
HETATM   11  C   UNL     1      -4.388  -3.450 -33.693  1.00  0.00     0.009 A 
HETATM   12  C   UNL     1      -3.313  -3.104 -32.866  1.00  0.00     0.032 A 
HETATM   13  N   UNL     1      -2.455  -1.195 -31.461  1.00  0.00    -0.277 N 
HETATM   14  H   UNL     1      -1.592  -1.567 -31.083  1.00  0.00     0.189 HD
HETATM   15  N   UNL     1      -2.817   0.052 -31.114  1.00  0.00    -0.168 NA
ENDBRANCH   1   5
BRANCH   2  16
HETATM   16  C   UNL     1      -6.108   3.055 -33.069  1.00  0.00     0.116 C 
HETATM   17  C   UNL     1      -5.709   4.035 -34.182  1.00  0.00     0.037 C 
BRANCH  16  18
HETATM   18  C   UNL     1      -7.496   2.458 -33.286  1.00  0.00    -0.003 A 
HETATM   19  C   UNL     1      -8.591   2.861 -32.490  1.00  0.00     0.076 A 
HETATM   20  C   UNL     1      -9.854   2.296 -32.706  1.00  0.00     0.037 A 
HETATM   21  C   UNL     1     -10.037   1.315 -33.681  1.00  0.00     0.003 A 
HETATM   22  C   UNL     1      -8.959   0.885 -34.445  1.00  0.00     0.001 A 
HETATM   23  C   UNL     1      -7.699   1.446 -34.244  1.00  0.00     0.012 A 
BRANCH  19  24
HETATM   24  O   UNL     1      -8.331   3.816 -31.541  1.00  0.00    -0.355 OA
HETATM   25  C   UNL     1      -8.323   3.398 -30.182  1.00  0.00     0.210 C 
ENDBRANCH  19  24
ENDBRANCH  16  18
ENDBRANCH   2  16
TORSDOF 4
ENDMDL
MODEL 8
REMARK VINA RESULT:      -7.3     16.006     17.782
REMARK  4 active torsions:
REMARK  status: ('A' for Active; 'I' for Inactive)
REMARK    1  A    between atoms: C_9  and  C_10 
REMARK       I    between atoms: C_10  and  N_11 
REMARK    2  A    between atoms: N_11  and  C_12 
REMARK    3  A    between atoms: C_12  and  C_13 
REMARK    4  A    between atoms: C_14  and  O_15 
ROOT
HETATM    1  C   UNL     1      -7.148 -14.077 -36.449  1.00  0.00     0.273 C 
HETATM    2  N   UNL     1      -5.809 -14.400 -36.412  1.00  0.00    -0.347 N 
HETATM    3  O   UNL     1      -7.670 -13.235 -35.725  1.00  0.00    -0.266 OA
HETATM    4  H   UNL     1      -5.506 -14.993 -37.180  1.00  0.00     0.163 HD
ENDROOT
BRANCH   1   5
HETATM    5  C   UNL     1      -7.896 -14.840 -37.462  1.00  0.00     0.157 A 
HETATM    6  C   UNL     1      -8.759 -14.322 -38.473  1.00  0.00     0.029 A 
HETATM    7  C   UNL     1      -9.216 -13.046 -38.860  1.00  0.00     0.023 A 
HETATM    8  C   UNL     1      -9.199 -15.434 -39.178  1.00  0.00     0.063 A 
HETATM    9  C   UNL     1     -10.107 -12.930 -39.942  1.00  0.00    -0.061 A 
HETATM   10  C   UNL     1     -10.624 -11.583 -40.358  1.00  0.00     0.048 C 
HETATM   11  C   UNL     1     -10.522 -14.077 -40.629  1.00  0.00     0.009 A 
HETATM   12  C   UNL     1     -10.076 -15.353 -40.263  1.00  0.00     0.032 A 
HETATM   13  N   UNL     1      -8.600 -16.505 -38.574  1.00  0.00    -0.277 N 
HETATM   14  H   UNL     1      -8.691 -17.481 -38.828  1.00  0.00     0.189 HD
HETATM   15  N   UNL     1      -7.817 -16.189 -37.528  1.00  0.00    -0.168 NA
ENDBRANCH   1   5
BRANCH   2  16
HETATM   16  C   UNL     1      -4.818 -13.612 -35.702  1.00  0.00     0.116 C 
HETATM   17  C   UNL     1      -4.585 -14.126 -34.273  1.00  0.00     0.037 C 
BRANCH  16  18
HETATM   18  C   UNL     1      -3.533 -13.568 -36.524  1.00  0.00    -0.003 A 
HETATM   19  C   UNL     1      -3.438 -12.756 -37.675  1.00  0.00     0.076 A 
HETATM   20  C   UNL     1      -2.249 -12.735 -38.416  1.00  0.00     0.037 A 
HETATM   21  C   UNL     1      -1.166 -13.533 -38.044  1.00  0.00     0.003 A 
HETATM   22  C   UNL     1      -1.262 -14.363 -36.934  1.00  0.00     0.001 A 
HETATM   23  C   UNL     1      -2.438 -14.386 -36.186  1.00  0.00     0.012 A 
BRANCH  19  24
HETATM   24  O   UNL     1      -4.547 -12.014 -37.988  1.00  0.00    -0.355 OA
HETATM   25  C   UNL     1      -5.173 -12.273 -39.238  1.00  0.00     0.210 C 
ENDBRANCH  19  24
ENDBRANCH  16  18
ENDBRANCH   2  16
TORSDOF 4
ENDMDL
MODEL 9
REMARK VINA RESULT:      -7.3      2.007      7.198
REMARK  4 active torsions:
REMARK  status: ('A' for Active; 'I' for Inactive)
REMARK    1  A    between atoms: C_9  and  C_10 
REMARK       I    between atoms: C_10  and  N_11 
REMARK    2  A    between atoms: N_11  and  C_12 
REMARK    3  A    between atoms: C_12  and  C_13 
REMARK    4  A    between atoms: C_14  and  O_15 
ROOT
HETATM    1  C   UNL     1      -3.739   2.606 -32.277  1.00  0.00     0.273 C 
HETATM    2  N   UNL     1      -3.456   3.616 -33.170  1.00  0.00    -0.347 N 
HETATM    3  O   UNL     1      -2.924   2.144 -31.484  1.00  0.00    -0.266 OA
HETATM    4  H   UNL     1      -4.275   3.994 -33.638  1.00  0.00     0.163 HD
ENDROOT
BRANCH   1   5
HETATM    5  C   UNL     1      -5.133   2.139 -32.359  1.00  0.00     0.157 A 
HETATM    6  C   UNL     1      -5.600   0.897 -32.882  1.00  0.00     0.029 A 
HETATM    7  C   UNL     1      -5.015  -0.238 -33.478  1.00  0.00     0.023 A 
HETATM    8  C   UNL     1      -6.979   0.929 -32.714  1.00  0.00     0.063 A 
HETATM    9  C   UNL     1      -5.834  -1.303 -33.892  1.00  0.00    -0.061 A 
HETATM   10  C   UNL     1      -5.233  -2.512 -34.549  1.00  0.00     0.048 C 
HETATM   11  C   UNL     1      -7.219  -1.231 -33.700  1.00  0.00     0.009 A 
HETATM   12  C   UNL     1      -7.821  -0.115 -33.105  1.00  0.00     0.032 A 
HETATM   13  N   UNL     1      -7.242   2.136 -32.128  1.00  0.00    -0.277 N 
HETATM   14  H   UNL     1      -8.148   2.499 -31.856  1.00  0.00     0.189 HD
HETATM   15  N   UNL     1      -6.158   2.899 -31.909  1.00  0.00    -0.168 NA
ENDBRANCH   1   5
BRANCH   2  16
HETATM   16  C   UNL     1      -2.251   4.422 -33.106  1.00  0.00     0.116 C 
HETATM   17  C   UNL     1      -1.826   4.939 -34.489  1.00  0.00     0.037 C 
BRANCH  16  18
HETATM   18  C   UNL     1      -2.457   5.549 -32.099  1.00  0.00    -0.003 A 
HETATM   19  C   UNL     1      -1.648   5.649 -30.947  1.00  0.00     0.076 A 
HETATM   20  C   UNL     1      -1.859   6.690 -30.034  1.00  0.00     0.037 A 
HETATM   21  C   UNL     1      -2.884   7.616 -30.237  1.00  0.00     0.003 A 
HETATM   22  C   UNL     1      -3.711   7.506 -31.348  1.00  0.00     0.001 A 
HETATM   23  C   UNL     1      -3.504   6.478 -32.266  1.00  0.00     0.012 A 
BRANCH  19  24
HETATM   24  O   UNL     1      -0.674   4.694 -30.806  1.00  0.00    -0.355 OA
HETATM   25  C   UNL     1       0.675   5.142 -30.752  1.00  0.00     0.210 C 
ENDBRANCH  19  24
ENDBRANCH  16  18
ENDBRANCH   2  16
TORSDOF 4
ENDMDL
MODEL 10
REMARK VINA RESULT:      -7.0      1.997      7.433
REMARK  4 active torsions:
REMARK  status: ('A' for Active; 'I' for Inactive)
REMARK    1  A    between atoms: C_9  and  C_10 
REMARK       I    between atoms: C_10  and  N_11 
REMARK    2  A    between atoms: N_11  and  C_12 
REMARK    3  A    between atoms: C_12  and  C_13 
REMARK    4  A    between atoms: C_14  and  O_15 
ROOT
HETATM    1  C   UNL     1      -3.612   3.013 -32.007  1.00  0.00     0.273 C 
HETATM    2  N   UNL     1      -3.403   3.946 -32.998  1.00  0.00    -0.347 N 
HETATM    3  O   UNL     1      -2.715   2.362 -31.478  1.00  0.00    -0.266 OA
HETATM    4  H   UNL     1      -4.220   4.511 -33.212  1.00  0.00     0.163 HD
ENDROOT
BRANCH   1   5
HETATM    5  C   UNL     1      -5.029   2.880 -31.632  1.00  0.00     0.157 A 
HETATM    6  C   UNL     1      -5.947   1.875 -32.061  1.00  0.00     0.029 A 
HETATM    7  C   UNL     1      -5.902   0.760 -32.921  1.00  0.00     0.023 A 
HETATM    8  C   UNL     1      -7.140   2.176 -31.416  1.00  0.00     0.063 A 
HETATM    9  C   UNL     1      -7.060  -0.016 -33.109  1.00  0.00    -0.061 A 
HETATM   10  C   UNL     1      -7.040  -1.196 -34.038  1.00  0.00     0.048 C 
HETATM   11  C   UNL     1      -8.240   0.320 -32.435  1.00  0.00     0.009 A 
HETATM   12  C   UNL     1      -8.305   1.421 -31.573  1.00  0.00     0.032 A 
HETATM   13  N   UNL     1      -6.876   3.293 -30.673  1.00  0.00    -0.277 N 
HETATM   14  H   UNL     1      -7.519   3.792 -30.069  1.00  0.00     0.189 HD
HETATM   15  N   UNL     1      -5.619   3.755 -30.786  1.00  0.00    -0.168 NA
ENDBRANCH   1   5
BRANCH   2  16
HETATM   16  C   UNL     1      -2.089   4.453 -33.351  1.00  0.00     0.116 C 
HETATM   17  C   UNL     1      -2.056   5.035 -34.772  1.00  0.00     0.037 C 
BRANCH  16  18
HETATM   18  C   UNL     1      -1.643   5.462 -32.296  1.00  0.00    -0.003 A 
HETATM   19  C   UNL     1      -2.466   6.554 -31.944  1.00  0.00     0.076 A 
HETATM   20  C   UNL     1      -2.033   7.469 -30.976  1.00  0.00     0.037 A 
HETATM   21  C   UNL     1      -0.781   7.328 -30.374  1.00  0.00     0.003 A 
HETATM   22  C   UNL     1       0.052   6.278 -30.740  1.00  0.00     0.001 A 
HETATM   23  C   UNL     1      -0.372   5.358 -31.697  1.00  0.00     0.012 A 
BRANCH  19  24
HETATM   24  O   UNL     1      -3.673   6.636 -32.589  1.00  0.00    -0.355 OA
HETATM   25  C   UNL     1      -4.792   7.069 -31.825  1.00  0.00     0.210 C 
ENDBRANCH  19  24
ENDBRANCH  16  18
ENDBRANCH   2  16
TORSDOF 4
ENDMDL
