MODEL 1
REMARK VINA RESULT:      -8.2      0.000      0.000
REMARK  7 active torsions:
REMARK  status: ('A' for Active; 'I' for Inactive)
REMARK    1  A    between atoms: C_3  and  N_4 
REMARK       I    between atoms: N_4  and  C_5 
REMARK       I    between atoms: C_5  and  N_6 
REMARK    2  A    between atoms: N_6  and  C_7 
REMARK    3  A    between atoms: C_7  and  C_8 
REMARK    4  A    between atoms: C_8  and  N_9 
REMARK    5  A    between atoms: C_23  and  N_24 
REMARK       I    between atoms: N_24  and  C_25 
REMARK    6  A    between atoms: C_25  and  C_26 
REMARK    7  A    between atoms: C_26  and  O_27 
ROOT
HETATM    1  N   UNL     1      -5.438   5.218 -33.947  1.00  0.00    -0.308 N 
HETATM    2  C   UNL     1      -6.234   4.152 -33.672  1.00  0.00     0.320 C 
HETATM    3  N   UNL     1      -5.648   2.941 -33.516  1.00  0.00    -0.340 N 
HETATM    4  O   UNL     1      -7.457   4.297 -33.672  1.00  0.00    -0.247 OA
HETATM    5  H   UNL     1      -5.977   6.017 -34.262  1.00  0.00     0.170 HD
HETATM    6  H   UNL     1      -4.688   2.909 -33.839  1.00  0.00     0.164 HD
ENDROOT
BRANCH   1   7
HETATM    7  C   UNL     1      -4.041   5.413 -33.864  1.00  0.00     0.044 A 
HETATM    8  C   UNL     1      -3.472   5.841 -32.634  1.00  0.00    -0.008 A 
HETATM    9  C   UNL     1      -4.355   6.170 -31.450  1.00  0.00     0.053 C 
HETATM   10  C   UNL     1      -2.062   5.980 -32.530  1.00  0.00     0.043 A 
HETATM   11  C   UNL     1      -1.266   5.729 -33.651  1.00  0.00     0.030 A 
HETATM   12  C   UNL     1      -1.831   5.301 -34.849  1.00  0.00     0.005 A 
HETATM   13  C   UNL     1      -3.207   5.127 -34.949  1.00  0.00     0.030 A 
BRANCH  10  14
HETATM   14  N   UNL     1      -1.490   6.340 -31.289  1.00  0.00    -0.325 N 
HETATM   15  C   UNL     1      -0.706   5.569 -30.442  1.00  0.00     0.245 C 
HETATM   16  O   UNL     1      -0.296   4.433 -30.646  1.00  0.00    -0.271 OA
HETATM   17  H   UNL     1      -1.674   7.270 -30.925  1.00  0.00     0.169 HD
BRANCH  15  18
HETATM   18  C   UNL     1      -0.310   6.349 -29.182  1.00  0.00     0.270 C 
BRANCH  18  19
HETATM   19  O   UNL     1       0.595   7.419 -29.463  1.00  0.00    -0.387 OA
HETATM   20  C   UNL     1       1.026   8.068 -28.268  1.00  0.00     0.202 C 
ENDBRANCH  18  19
ENDBRANCH  15  18
ENDBRANCH  10  14
ENDBRANCH   1   7
BRANCH   3  21
HETATM   21  C   UNL     1      -6.268   1.626 -33.329  1.00  0.00     0.163 C 
BRANCH  21  22
HETATM   22  C   UNL     1      -5.425   0.386 -32.863  1.00  0.00     0.143 C 
HETATM   23  C   UNL     1      -3.990   0.841 -32.484  1.00  0.00     0.041 C 
HETATM   24  C   UNL     1      -3.770   0.399 -31.040  1.00  0.00     0.003 C 
HETATM   25  C   UNL     1      -5.164   0.367 -30.445  1.00  0.00     0.003 C 
HETATM   26  C   UNL     1      -6.010  -0.222 -31.566  1.00  0.00     0.041 C 
BRANCH  22  27
HETATM   27  N   UNL     1      -5.365  -0.670 -33.966  1.00  0.00    -0.061 N 
HETATM   28  H   UNL     1      -4.831  -0.182 -34.718  1.00  0.00     0.281 HD
HETATM   29  C   UNL     1      -6.646  -1.106 -34.648  1.00  0.00     0.236 C 
HETATM   30  C   UNL     1      -6.565  -2.622 -34.708  1.00  0.00     0.029 C 
HETATM   31  C   UNL     1      -5.080  -2.911 -34.702  1.00  0.00     0.029 C 
HETATM   32  C   UNL     1      -4.555  -1.918 -33.688  1.00  0.00     0.236 C 
ENDBRANCH  22  27
ENDBRANCH  21  22
ENDBRANCH   3  21
TORSDOF 7
ENDMDL
MODEL 2
REMARK VINA RESULT:      -8.1      3.031      8.643
REMARK  7 active torsions:
REMARK  status: ('A' for Active; 'I' for Inactive)
REMARK    1  A    between atoms: C_3  and  N_4 
REMARK       I    between atoms: N_4  and  C_5 
REMARK       I    between atoms: C_5  and  N_6 
REMARK    2  A    between atoms: N_6  and  C_7 
REMARK    3  A    between atoms: C_7  and  C_8 
REMARK    4  A    between atoms: C_8  and  N_9 
REMARK    5  A    between atoms: C_23  and  N_24 
REMARK       I    between atoms: N_24  and  C_25 
REMARK    6  A    between atoms: C_25  and  C_26 
REMARK    7  A    between atoms: C_26  and  O_27 
ROOT
HETATM    1  N   UNL     1      -6.298   1.257 -31.534  1.00  0.00    -0.308 N 
HETATM    2  C   UNL     1      -5.317   2.085 -31.088  1.00  0.00     0.320 C 
HETATM    3  N   UNL     1      -4.258   2.316 -31.900  1.00  0.00    -0.340 N 
HETATM    4  O   UNL     1      -5.370   2.516 -29.936  1.00  0.00    -0.247 OA
HETATM    5  H   UNL     1      -6.920   0.976 -30.785  1.00  0.00     0.170 HD
HETATM    6  H   UNL     1      -4.194   1.671 -32.679  1.00  0.00     0.164 HD
ENDROOT
BRANCH   1   7
HETATM    7  C   UNL     1      -6.605   0.745 -32.814  1.00  0.00     0.044 A 
HETATM    8  C   UNL     1      -6.020  -0.482 -33.229  1.00  0.00    -0.008 A 
HETATM    9  C   UNL     1      -5.013  -1.192 -32.350  1.00  0.00     0.053 C 
HETATM   10  C   UNL     1      -6.373  -1.031 -34.491  1.00  0.00     0.043 A 
HETATM   11  C   UNL     1      -7.259  -0.332 -35.316  1.00  0.00     0.030 A 
HETATM   12  C   UNL     1      -7.835   0.864 -34.898  1.00  0.00     0.005 A 
HETATM   13  C   UNL     1      -7.524   1.389 -33.648  1.00  0.00     0.030 A 
BRANCH  10  14
HETATM   14  N   UNL     1      -5.845  -2.284 -34.875  1.00  0.00    -0.325 N 
HETATM   15  C   UNL     1      -6.386  -3.547 -34.682  1.00  0.00     0.245 C 
HETATM   16  O   UNL     1      -7.476  -3.815 -34.193  1.00  0.00    -0.271 OA
HETATM   17  H   UNL     1      -4.940  -2.304 -35.337  1.00  0.00     0.169 HD
BRANCH  15  18
HETATM   18  C   UNL     1      -5.468  -4.641 -35.241  1.00  0.00     0.270 C 
BRANCH  18  19
HETATM   19  O   UNL     1      -4.881  -5.441 -34.213  1.00  0.00    -0.387 OA
HETATM   20  C   UNL     1      -3.661  -4.875 -33.740  1.00  0.00     0.202 C 
ENDBRANCH  18  19
ENDBRANCH  15  18
ENDBRANCH  10  14
ENDBRANCH   1   7
BRANCH   3  21
HETATM   21  C   UNL     1      -3.027   3.064 -31.631  1.00  0.00     0.163 C 
BRANCH  21  22
HETATM   22  C   UNL     1      -2.862   4.557 -32.091  1.00  0.00     0.143 C 
HETATM   23  C   UNL     1      -2.125   4.605 -33.457  1.00  0.00     0.041 C 
HETATM   24  C   UNL     1      -3.049   5.356 -34.413  1.00  0.00     0.003 C 
HETATM   25  C   UNL     1      -4.438   5.104 -33.860  1.00  0.00     0.003 C 
HETATM   26  C   UNL     1      -4.241   5.208 -32.353  1.00  0.00     0.041 C 
BRANCH  22  27
HETATM   27  N   UNL     1      -2.084   5.359 -31.049  1.00  0.00    -0.061 N 
HETATM   28  H   UNL     1      -2.311   4.857 -30.162  1.00  0.00     0.281 HD
HETATM   29  C   UNL     1      -2.480   6.795 -30.770  1.00  0.00     0.236 C 
HETATM   30  C   UNL     1      -1.171   7.566 -30.735  1.00  0.00     0.029 C 
HETATM   31  C   UNL     1      -0.146   6.529 -30.330  1.00  0.00     0.029 C 
HETATM   32  C   UNL     1      -0.574   5.314 -31.123  1.00  0.00     0.236 C 
ENDBRANCH  22  27
ENDBRANCH  21  22
ENDBRANCH   3  21
TORSDOF 7
ENDMDL
MODEL 3
REMARK VINA RESULT:      -7.7      2.446      8.277
REMARK  7 active torsions:
REMARK  status: ('A' for Active; 'I' for Inactive)
REMARK    1  A    between atoms: C_3  and  N_4 
REMARK       I    between atoms: N_4  and  C_5 
REMARK       I    between atoms: C_5  and  N_6 
REMARK    2  A    between atoms: N_6  and  C_7 
REMARK    3  A    between atoms: C_7  and  C_8 
REMARK    4  A    between atoms: C_8  and  N_9 
REMARK    5  A    between atoms: C_23  and  N_24 
REMARK       I    between atoms: N_24  and  C_25 
REMARK    6  A    between atoms: C_25  and  C_26 
REMARK    7  A    between atoms: C_26  and  O_27 
ROOT
HETATM    1  N   UNL     1      -6.791   3.428 -32.660  1.00  0.00    -0.308 N 
HETATM    2  C   UNL     1      -6.047   4.564 -32.693  1.00  0.00     0.320 C 
HETATM    3  N   UNL     1      -5.011   4.674 -31.828  1.00  0.00    -0.340 N 
HETATM    4  O   UNL     1      -6.392   5.490 -33.429  1.00  0.00    -0.247 OA
HETATM    5  H   UNL     1      -7.657   3.533 -33.175  1.00  0.00     0.170 HD
HETATM    6  H   UNL     1      -5.026   3.985 -31.086  1.00  0.00     0.164 HD
ENDROOT
BRANCH   1   7
HETATM    7  C   UNL     1      -6.576   2.164 -32.067  1.00  0.00     0.044 A 
HETATM    8  C   UNL     1      -6.383   1.030 -32.902  1.00  0.00    -0.008 A 
HETATM    9  C   UNL     1      -6.492   1.153 -34.406  1.00  0.00     0.053 C 
HETATM   10  C   UNL     1      -6.108  -0.232 -32.310  1.00  0.00     0.043 A 
HETATM   11  C   UNL     1      -6.071  -0.340 -30.917  1.00  0.00     0.030 A 
HETATM   12  C   UNL     1      -6.251   0.778 -30.107  1.00  0.00     0.005 A 
HETATM   13  C   UNL     1      -6.485   2.024 -30.679  1.00  0.00     0.030 A 
BRANCH  10  14
HETATM   14  N   UNL     1      -5.849  -1.346 -33.140  1.00  0.00    -0.325 N 
HETATM   15  C   UNL     1      -4.624  -1.872 -33.524  1.00  0.00     0.245 C 
HETATM   16  O   UNL     1      -3.515  -1.505 -33.155  1.00  0.00    -0.271 OA
HETATM   17  H   UNL     1      -6.639  -1.839 -33.546  1.00  0.00     0.169 HD
BRANCH  15  18
HETATM   18  C   UNL     1      -4.799  -3.080 -34.453  1.00  0.00     0.270 C 
BRANCH  18  19
HETATM   19  O   UNL     1      -6.060  -3.074 -35.125  1.00  0.00    -0.387 OA
HETATM   20  C   UNL     1      -6.631  -4.380 -35.179  1.00  0.00     0.202 C 
ENDBRANCH  18  19
ENDBRANCH  15  18
ENDBRANCH  10  14
ENDBRANCH   1   7
BRANCH   3  21
HETATM   21  C   UNL     1      -4.128   5.817 -31.576  1.00  0.00     0.163 C 
BRANCH  21  22
HETATM   22  C   UNL     1      -2.598   5.760 -31.928  1.00  0.00     0.143 C 
HETATM   23  C   UNL     1      -2.315   4.528 -32.829  1.00  0.00     0.041 C 
HETATM   24  C   UNL     1      -1.667   5.069 -34.101  1.00  0.00     0.003 C 
HETATM   25  C   UNL     1      -2.203   6.483 -34.216  1.00  0.00     0.003 C 
HETATM   26  C   UNL     1      -2.183   6.985 -32.778  1.00  0.00     0.041 C 
BRANCH  22  27
HETATM   27  N   UNL     1      -1.754   5.684 -30.657  1.00  0.00    -0.061 N 
HETATM   28  H   UNL     1      -2.224   4.923 -30.119  1.00  0.00     0.281 HD
HETATM   29  C   UNL     1      -1.746   6.860 -29.700  1.00  0.00     0.236 C 
HETATM   30  C   UNL     1      -0.283   7.066 -29.343  1.00  0.00     0.029 C 
HETATM   31  C   UNL     1       0.338   5.699 -29.532  1.00  0.00     0.029 C 
HETATM   32  C   UNL     1      -0.326   5.208 -30.800  1.00  0.00     0.236 C 
ENDBRANCH  22  27
ENDBRANCH  21  22
ENDBRANCH   3  21
TORSDOF 7
ENDMDL
MODEL 4
REMARK VINA RESULT:      -7.6      1.738      2.950
REMARK  7 active torsions:
REMARK  status: ('A' for Active; 'I' for Inactive)
REMARK    1  A    between atoms: C_3  and  N_4 
REMARK       I    between atoms: N_4  and  C_5 
REMARK       I    between atoms: C_5  and  N_6 
REMARK    2  A    between atoms: N_6  and  C_7 
REMARK    3  A    between atoms: C_7  and  C_8 
REMARK    4  A    between atoms: C_8  and  N_9 
REMARK    5  A    between atoms: C_23  and  N_24 
REMARK       I    between atoms: N_24  and  C_25 
REMARK    6  A    between atoms: C_25  and  C_26 
REMARK    7  A    between atoms: C_26  and  O_27 
ROOT
HETATM    1  N   UNL     1      -5.382   5.451 -33.737  1.00  0.00    -0.308 N 
HETATM    2  C   UNL     1      -6.349   4.497 -33.764  1.00  0.00     0.320 C 
HETATM    3  N   UNL     1      -5.997   3.241 -34.128  1.00  0.00    -0.340 N 
HETATM    4  O   UNL     1      -7.520   4.820 -33.558  1.00  0.00    -0.247 OA
HETATM    5  H   UNL     1      -5.776   6.382 -33.674  1.00  0.00     0.170 HD
HETATM    6  H   UNL     1      -5.083   3.183 -34.559  1.00  0.00     0.164 HD
ENDROOT
BRANCH   1   7
HETATM    7  C   UNL     1      -3.971   5.380 -33.767  1.00  0.00     0.044 A 
HETATM    8  C   UNL     1      -3.255   5.288 -32.544  1.00  0.00    -0.008 A 
HETATM    9  C   UNL     1      -3.982   5.353 -31.218  1.00  0.00     0.053 C 
HETATM   10  C   UNL     1      -1.840   5.157 -32.573  1.00  0.00     0.043 A 
HETATM   11  C   UNL     1      -1.179   5.159 -33.804  1.00  0.00     0.030 A 
HETATM   12  C   UNL     1      -1.889   5.240 -34.998  1.00  0.00     0.005 A 
HETATM   13  C   UNL     1      -3.277   5.331 -34.981  1.00  0.00     0.030 A 
BRANCH  10  14
HETATM   14  N   UNL     1      -1.133   4.997 -31.359  1.00  0.00    -0.325 N 
HETATM   15  C   UNL     1      -0.083   5.757 -30.864  1.00  0.00     0.245 C 
HETATM   16  O   UNL     1       0.394   6.770 -31.362  1.00  0.00    -0.271 OA
HETATM   17  H   UNL     1      -1.383   4.221 -30.754  1.00  0.00     0.169 HD
BRANCH  15  18
HETATM   18  C   UNL     1       0.406   5.223 -29.513  1.00  0.00     0.270 C 
BRANCH  18  19
HETATM   19  O   UNL     1       0.724   6.270 -28.593  1.00  0.00    -0.387 OA
HETATM   20  C   UNL     1      -0.262   6.385 -27.569  1.00  0.00     0.202 C 
ENDBRANCH  18  19
ENDBRANCH  15  18
ENDBRANCH  10  14
ENDBRANCH   1   7
BRANCH   3  21
HETATM   21  C   UNL     1      -6.845   2.065 -34.348  1.00  0.00     0.163 C 
BRANCH  21  22
HETATM   22  C   UNL     1      -6.971   0.936 -33.264  1.00  0.00     0.143 C 
HETATM   23  C   UNL     1      -7.237  -0.427 -33.957  1.00  0.00     0.041 C 
HETATM   24  C   UNL     1      -6.118  -1.362 -33.503  1.00  0.00     0.003 C 
HETATM   25  C   UNL     1      -4.962  -0.432 -33.192  1.00  0.00     0.003 C 
HETATM   26  C   UNL     1      -5.635   0.749 -32.505  1.00  0.00     0.041 C 
BRANCH  22  27
HETATM   27  N   UNL     1      -8.099   1.252 -32.283  1.00  0.00    -0.061 N 
HETATM   28  H   UNL     1      -8.245   0.337 -31.804  1.00  0.00     0.281 HD
HETATM   29  C   UNL     1      -9.471   1.609 -32.820  1.00  0.00     0.236 C 
HETATM   30  C   UNL     1      -9.910   2.817 -32.008  1.00  0.00     0.029 C 
HETATM   31  C   UNL     1      -9.158   2.674 -30.702  1.00  0.00     0.029 C 
HETATM   32  C   UNL     1      -7.791   2.214 -31.157  1.00  0.00     0.236 C 
ENDBRANCH  22  27
ENDBRANCH  21  22
ENDBRANCH   3  21
TORSDOF 7
ENDMDL
MODEL 5
REMARK VINA RESULT:      -7.5      1.253      2.383
REMARK  7 active torsions:
REMARK  status: ('A' for Active; 'I' for Inactive)
REMARK    1  A    between atoms: C_3  and  N_4 
REMARK       I    between atoms: N_4  and  C_5 
REMARK       I    between atoms: C_5  and  N_6 
REMARK    2  A    between atoms: N_6  and  C_7 
REMARK    3  A    between atoms: C_7  and  C_8 
REMARK    4  A    between atoms: C_8  and  N_9 
REMARK    5  A    between atoms: C_23  and  N_24 
REMARK       I    between atoms: N_24  and  C_25 
REMARK    6  A    between atoms: C_25  and  C_26 
REMARK    7  A    between atoms: C_26  and  O_27 
ROOT
HETATM    1  N   UNL     1      -5.627   5.340 -33.718  1.00  0.00    -0.308 N 
HETATM    2  C   UNL     1      -6.428   4.452 -33.073  1.00  0.00     0.320 C 
HETATM    3  N   UNL     1      -5.861   3.328 -32.574  1.00  0.00    -0.340 N 
HETATM    4  O   UNL     1      -7.644   4.644 -33.048  1.00  0.00    -0.247 OA
HETATM    5  H   UNL     1      -6.167   6.022 -34.238  1.00  0.00     0.170 HD
HETATM    6  H   UNL     1      -4.927   3.153 -32.924  1.00  0.00     0.164 HD
ENDROOT
BRANCH   1   7
HETATM    7  C   UNL     1      -4.224   5.489 -33.782  1.00  0.00     0.044 A 
HETATM    8  C   UNL     1      -3.522   5.955 -32.637  1.00  0.00    -0.008 A 
HETATM    9  C   UNL     1      -4.272   6.371 -31.391  1.00  0.00     0.053 C 
HETATM   10  C   UNL     1      -2.105   6.048 -32.679  1.00  0.00     0.043 A 
HETATM   11  C   UNL     1      -1.433   5.716 -33.859  1.00  0.00     0.030 A 
HETATM   12  C   UNL     1      -2.127   5.251 -34.972  1.00  0.00     0.005 A 
HETATM   13  C   UNL     1      -3.511   5.121 -34.928  1.00  0.00     0.030 A 
BRANCH  10  14
HETATM   14  N   UNL     1      -1.401   6.446 -31.520  1.00  0.00    -0.325 N 
HETATM   15  C   UNL     1      -0.702   5.656 -30.619  1.00  0.00     0.245 C 
HETATM   16  O   UNL     1      -0.500   4.450 -30.696  1.00  0.00    -0.271 OA
HETATM   17  H   UNL     1      -1.405   7.430 -31.268  1.00  0.00     0.169 HD
BRANCH  15  18
HETATM   18  C   UNL     1      -0.101   6.498 -29.486  1.00  0.00     0.270 C 
BRANCH  18  19
HETATM   19  O   UNL     1      -1.073   7.328 -28.847  1.00  0.00    -0.387 OA
HETATM   20  C   UNL     1      -0.492   8.535 -28.359  1.00  0.00     0.202 C 
ENDBRANCH  18  19
ENDBRANCH  15  18
ENDBRANCH  10  14
ENDBRANCH   1   7
BRANCH   3  21
HETATM   21  C   UNL     1      -6.498   2.168 -31.942  1.00  0.00     0.163 C 
BRANCH  21  22
HETATM   22  C   UNL     1      -6.476   0.753 -32.624  1.00  0.00     0.143 C 
HETATM   23  C   UNL     1      -7.894   0.123 -32.567  1.00  0.00     0.041 C 
HETATM   24  C   UNL     1      -8.283  -0.182 -34.011  1.00  0.00     0.003 C 
HETATM   25  C   UNL     1      -7.503   0.830 -34.827  1.00  0.00     0.003 C 
HETATM   26  C   UNL     1      -6.148   0.873 -34.131  1.00  0.00     0.041 C 
BRANCH  22  27
HETATM   27  N   UNL     1      -5.468  -0.163 -31.932  1.00  0.00    -0.061 N 
HETATM   28  H   UNL     1      -6.085  -0.804 -31.385  1.00  0.00     0.281 HD
HETATM   29  C   UNL     1      -4.528   0.417 -30.895  1.00  0.00     0.236 C 
HETATM   30  C   UNL     1      -3.164  -0.164 -31.231  1.00  0.00     0.029 C 
HETATM   31  C   UNL     1      -3.482  -1.466 -31.932  1.00  0.00     0.029 C 
HETATM   32  C   UNL     1      -4.657  -1.091 -32.809  1.00  0.00     0.236 C 
ENDBRANCH  22  27
ENDBRANCH  21  22
ENDBRANCH   3  21
TORSDOF 7
ENDMDL
MODEL 6
REMARK VINA RESULT:      -7.5      3.567      8.966
REMARK  7 active torsions:
REMARK  status: ('A' for Active; 'I' for Inactive)
REMARK    1  A    between atoms: C_3  and  N_4 
REMARK       I    between atoms: N_4  and  C_5 
REMARK       I    between atoms: C_5  and  N_6 
REMARK    2  A    between atoms: N_6  and  C_7 
REMARK    3  A    between atoms: C_7  and  C_8 
REMARK    4  A    between atoms: C_8  and  N_9 
REMARK    5  A    between atoms: C_23  and  N_24 
REMARK       I    between atoms: N_24  and  C_25 
REMARK    6  A    between atoms: C_25  and  C_26 
REMARK    7  A    between atoms: C_26  and  O_27 
ROOT
HETATM    1  N   UNL     1      -6.678   1.925 -30.621  1.00  0.00    -0.308 N 
HETATM    2  C   UNL     1      -5.489   2.560 -30.786  1.00  0.00     0.320 C 
HETATM    3  N   UNL     1      -4.800   2.340 -31.931  1.00  0.00    -0.340 N 
HETATM    4  O   UNL     1      -5.030   3.229 -29.860  1.00  0.00    -0.247 OA
HETATM    5  H   UNL     1      -7.000   1.975 -29.662  1.00  0.00     0.170 HD
HETATM    6  H   UNL     1      -5.138   1.547 -32.463  1.00  0.00     0.164 HD
ENDROOT
BRANCH   1   7
HETATM    7  C   UNL     1      -7.526   1.240 -31.520  1.00  0.00     0.044 A 
HETATM    8  C   UNL     1      -8.870   1.675 -31.675  1.00  0.00    -0.008 A 
HETATM    9  C   UNL     1      -9.417   2.803 -30.827  1.00  0.00     0.053 C 
HETATM   10  C   UNL     1      -9.708   1.026 -32.621  1.00  0.00     0.043 A 
HETATM   11  C   UNL     1      -9.205  -0.053 -33.353  1.00  0.00     0.030 A 
HETATM   12  C   UNL     1      -7.884  -0.467 -33.202  1.00  0.00     0.005 A 
HETATM   13  C   UNL     1      -7.046   0.186 -32.305  1.00  0.00     0.030 A 
BRANCH  10  14
HETATM   14  N   UNL     1     -11.023   1.502 -32.825  1.00  0.00    -0.325 N 
HETATM   15  C   UNL     1     -11.486   2.376 -33.798  1.00  0.00     0.245 C 
HETATM   16  O   UNL     1     -10.843   2.856 -34.724  1.00  0.00    -0.271 OA
HETATM   17  H   UNL     1     -11.749   1.205 -32.179  1.00  0.00     0.169 HD
BRANCH  15  18
HETATM   18  C   UNL     1     -12.988   2.642 -33.643  1.00  0.00     0.270 C 
BRANCH  18  19
HETATM   19  O   UNL     1     -13.700   1.498 -33.166  1.00  0.00    -0.387 OA
HETATM   20  C   UNL     1     -14.559   0.960 -34.169  1.00  0.00     0.202 C 
ENDBRANCH  18  19
ENDBRANCH  15  18
ENDBRANCH  10  14
ENDBRANCH   1   7
BRANCH   3  21
HETATM   21  C   UNL     1      -3.462   2.799 -32.314  1.00  0.00     0.163 C 
BRANCH  21  22
HETATM   22  C   UNL     1      -3.156   4.323 -32.543  1.00  0.00     0.143 C 
HETATM   23  C   UNL     1      -2.082   4.480 -33.653  1.00  0.00     0.041 C 
HETATM   24  C   UNL     1      -2.705   5.367 -34.727  1.00  0.00     0.003 C 
HETATM   25  C   UNL     1      -4.196   5.123 -34.591  1.00  0.00     0.003 C 
HETATM   26  C   UNL     1      -4.405   5.060 -33.083  1.00  0.00     0.041 C 
BRANCH  22  27
HETATM   27  N   UNL     1      -2.671   4.976 -31.250  1.00  0.00    -0.061 N 
HETATM   28  H   UNL     1      -2.928   4.266 -30.528  1.00  0.00     0.281 HD
HETATM   29  C   UNL     1      -3.336   6.249 -30.767  1.00  0.00     0.236 C 
HETATM   30  C   UNL     1      -2.190   7.163 -30.364  1.00  0.00     0.029 C 
HETATM   31  C   UNL     1      -1.070   6.212 -30.004  1.00  0.00     0.029 C 
HETATM   32  C   UNL     1      -1.179   5.152 -31.079  1.00  0.00     0.236 C 
ENDBRANCH  22  27
ENDBRANCH  21  22
ENDBRANCH   3  21
TORSDOF 7
ENDMDL
MODEL 7
REMARK VINA RESULT:      -7.4      2.896      8.665
REMARK  7 active torsions:
REMARK  status: ('A' for Active; 'I' for Inactive)
REMARK    1  A    between atoms: C_3  and  N_4 
REMARK       I    between atoms: N_4  and  C_5 
REMARK       I    between atoms: C_5  and  N_6 
REMARK    2  A    between atoms: N_6  and  C_7 
REMARK    3  A    between atoms: C_7  and  C_8 
REMARK    4  A    between atoms: C_8  and  N_9 
REMARK    5  A    between atoms: C_23  and  N_24 
REMARK       I    between atoms: N_24  and  C_25 
REMARK    6  A    between atoms: C_25  and  C_26 
REMARK    7  A    between atoms: C_26  and  O_27 
ROOT
HETATM    1  N   UNL     1      -5.871   3.433 -29.437  1.00  0.00    -0.308 N 
HETATM    2  C   UNL     1      -5.358   4.636 -29.806  1.00  0.00     0.320 C 
HETATM    3  N   UNL     1      -4.821   4.749 -31.044  1.00  0.00    -0.340 N 
HETATM    4  O   UNL     1      -5.305   5.547 -28.979  1.00  0.00    -0.247 OA
HETATM    5  H   UNL     1      -6.040   3.388 -28.439  1.00  0.00     0.170 HD
HETATM    6  H   UNL     1      -4.657   3.858 -31.499  1.00  0.00     0.164 HD
ENDROOT
BRANCH   1   7
HETATM    7  C   UNL     1      -6.214   2.276 -30.172  1.00  0.00     0.044 A 
HETATM    8  C   UNL     1      -7.528   2.153 -30.699  1.00  0.00    -0.008 A 
HETATM    9  C   UNL     1      -8.577   3.203 -30.407  1.00  0.00     0.053 C 
HETATM   10  C   UNL     1      -7.858   1.019 -31.490  1.00  0.00     0.043 A 
HETATM   11  C   UNL     1      -6.894   0.029 -31.700  1.00  0.00     0.030 A 
HETATM   12  C   UNL     1      -5.607   0.162 -31.188  1.00  0.00     0.005 A 
HETATM   13  C   UNL     1      -5.264   1.287 -30.445  1.00  0.00     0.030 A 
BRANCH  10  14
HETATM   14  N   UNL     1      -9.143   0.928 -32.070  1.00  0.00    -0.325 N 
HETATM   15  C   UNL     1      -9.513   1.147 -33.390  1.00  0.00     0.245 C 
HETATM   16  O   UNL     1      -8.772   1.398 -34.332  1.00  0.00    -0.271 OA
HETATM   17  H   UNL     1      -9.928   0.697 -31.469  1.00  0.00     0.169 HD
BRANCH  15  18
HETATM   18  C   UNL     1     -11.022   0.958 -33.586  1.00  0.00     0.270 C 
BRANCH  18  19
HETATM   19  O   UNL     1     -11.664   2.142 -34.063  1.00  0.00    -0.387 OA
HETATM   20  C   UNL     1     -12.339   1.912 -35.298  1.00  0.00     0.202 C 
ENDBRANCH  18  19
ENDBRANCH  15  18
ENDBRANCH  10  14
ENDBRANCH   1   7
BRANCH   3  21
HETATM   21  C   UNL     1      -4.109   5.878 -31.649  1.00  0.00     0.163 C 
BRANCH  21  22
HETATM   22  C   UNL     1      -2.562   5.820 -31.912  1.00  0.00     0.143 C 
HETATM   23  C   UNL     1      -2.231   4.603 -32.818  1.00  0.00     0.041 C 
HETATM   24  C   UNL     1      -1.508   5.164 -34.039  1.00  0.00     0.003 C 
HETATM   25  C   UNL     1      -2.030   6.583 -34.160  1.00  0.00     0.003 C 
HETATM   26  C   UNL     1      -2.093   7.058 -32.714  1.00  0.00     0.041 C 
BRANCH  22  27
HETATM   27  N   UNL     1      -1.794   5.717 -30.596  1.00  0.00    -0.061 N 
HETATM   28  H   UNL     1      -2.339   4.997 -30.072  1.00  0.00     0.281 HD
HETATM   29  C   UNL     1      -1.762   6.908 -29.659  1.00  0.00     0.236 C 
HETATM   30  C   UNL     1      -0.311   7.030 -29.226  1.00  0.00     0.029 C 
HETATM   31  C   UNL     1       0.231   5.624 -29.358  1.00  0.00     0.029 C 
HETATM   32  C   UNL     1      -0.393   5.150 -30.652  1.00  0.00     0.236 C 
ENDBRANCH  22  27
ENDBRANCH  21  22
ENDBRANCH   3  21
TORSDOF 7
ENDMDL
MODEL 8
REMARK VINA RESULT:      -7.4      5.305      8.753
REMARK  7 active torsions:
REMARK  status: ('A' for Active; 'I' for Inactive)
REMARK    1  A    between atoms: C_3  and  N_4 
REMARK       I    between atoms: N_4  and  C_5 
REMARK       I    between atoms: C_5  and  N_6 
REMARK    2  A    between atoms: N_6  and  C_7 
REMARK    3  A    between atoms: C_7  and  C_8 
REMARK    4  A    between atoms: C_8  and  N_9 
REMARK    5  A    between atoms: C_23  and  N_24 
REMARK       I    between atoms: N_24  and  C_25 
REMARK    6  A    between atoms: C_25  and  C_26 
REMARK    7  A    between atoms: C_26  and  O_27 
ROOT
HETATM    1  N   UNL     1      -7.884   2.994 -33.676  1.00  0.00    -0.308 N 
HETATM    2  C   UNL     1      -9.145   3.440 -33.912  1.00  0.00     0.320 C 
HETATM    3  N   UNL     1     -10.181   2.640 -33.563  1.00  0.00    -0.340 N 
HETATM    4  O   UNL     1      -9.306   4.499 -34.520  1.00  0.00    -0.247 OA
HETATM    5  H   UNL     1      -7.192   3.550 -34.165  1.00  0.00     0.170 HD
HETATM    6  H   UNL     1      -9.908   1.687 -33.358  1.00  0.00     0.164 HD
ENDROOT
BRANCH   1   7
HETATM    7  C   UNL     1      -7.378   1.938 -32.886  1.00  0.00     0.044 A 
HETATM    8  C   UNL     1      -6.982   0.728 -33.517  1.00  0.00    -0.008 A 
HETATM    9  C   UNL     1      -7.178   0.534 -35.005  1.00  0.00     0.053 C 
HETATM   10  C   UNL     1      -6.417  -0.314 -32.733  1.00  0.00     0.043 A 
HETATM   11  C   UNL     1      -6.298  -0.142 -31.351  1.00  0.00     0.030 A 
HETATM   12  C   UNL     1      -6.679   1.050 -30.743  1.00  0.00     0.005 A 
HETATM   13  C   UNL     1      -7.199   2.090 -31.507  1.00  0.00     0.030 A 
BRANCH  10  14
HETATM   14  N   UNL     1      -5.961  -1.491 -33.368  1.00  0.00    -0.325 N 
HETATM   15  C   UNL     1      -4.679  -1.799 -33.802  1.00  0.00     0.245 C 
HETATM   16  O   UNL     1      -3.667  -1.124 -33.651  1.00  0.00    -0.271 OA
HETATM   17  H   UNL     1      -6.636  -2.222 -33.572  1.00  0.00     0.169 HD
BRANCH  15  18
HETATM   18  C   UNL     1      -4.628  -3.183 -34.460  1.00  0.00     0.270 C 
BRANCH  18  19
HETATM   19  O   UNL     1      -5.605  -3.335 -35.491  1.00  0.00    -0.387 OA
HETATM   20  C   UNL     1      -6.403  -4.499 -35.290  1.00  0.00     0.202 C 
ENDBRANCH  18  19
ENDBRANCH  15  18
ENDBRANCH  10  14
ENDBRANCH   1   7
BRANCH   3  21
HETATM   21  C   UNL     1     -11.616   2.821 -33.803  1.00  0.00     0.163 C 
BRANCH  21  22
HETATM   22  C   UNL     1     -12.528   3.571 -32.768  1.00  0.00     0.143 C 
HETATM   23  C   UNL     1     -11.686   3.981 -31.529  1.00  0.00     0.041 C 
HETATM   24  C   UNL     1     -11.832   5.494 -31.396  1.00  0.00     0.003 C 
HETATM   25  C   UNL     1     -12.107   5.966 -32.811  1.00  0.00     0.003 C 
HETATM   26  C   UNL     1     -13.050   4.903 -33.359  1.00  0.00     0.041 C 
BRANCH  22  27
HETATM   27  N   UNL     1     -13.697   2.686 -32.337  1.00  0.00    -0.061 N 
HETATM   28  H   UNL     1     -13.356   2.285 -31.436  1.00  0.00     0.281 HD
HETATM   29  C   UNL     1     -14.054   1.471 -33.170  1.00  0.00     0.236 C 
HETATM   30  C   UNL     1     -15.568   1.515 -33.301  1.00  0.00     0.029 C 
HETATM   31  C   UNL     1     -16.021   2.274 -32.073  1.00  0.00     0.029 C 
HETATM   32  C   UNL     1     -14.991   3.377 -31.968  1.00  0.00     0.236 C 
ENDBRANCH  22  27
ENDBRANCH  21  22
ENDBRANCH   3  21
TORSDOF 7
ENDMDL
MODEL 9
REMARK VINA RESULT:      -7.3      2.847      7.992
REMARK  7 active torsions:
REMARK  status: ('A' for Active; 'I' for Inactive)
REMARK    1  A    between atoms: C_3  and  N_4 
REMARK       I    between atoms: N_4  and  C_5 
REMARK       I    between atoms: C_5  and  N_6 
REMARK    2  A    between atoms: N_6  and  C_7 
REMARK    3  A    between atoms: C_7  and  C_8 
REMARK    4  A    between atoms: C_8  and  N_9 
REMARK    5  A    between atoms: C_23  and  N_24 
REMARK       I    between atoms: N_24  and  C_25 
REMARK    6  A    between atoms: C_25  and  C_26 
REMARK    7  A    between atoms: C_26  and  O_27 
ROOT
HETATM    1  N   UNL     1      -6.544   3.703 -29.105  1.00  0.00    -0.308 N 
HETATM    2  C   UNL     1      -5.751   4.801 -29.212  1.00  0.00     0.320 C 
HETATM    3  N   UNL     1      -5.341   5.175 -30.447  1.00  0.00    -0.340 N 
HETATM    4  O   UNL     1      -5.352   5.358 -28.189  1.00  0.00    -0.247 OA
HETATM    5  H   UNL     1      -6.610   3.381 -28.147  1.00  0.00     0.170 HD
HETATM    6  H   UNL     1      -5.487   4.466 -31.156  1.00  0.00     0.164 HD
ENDROOT
BRANCH   1   7
HETATM    7  C   UNL     1      -7.278   2.960 -30.056  1.00  0.00     0.044 A 
HETATM    8  C   UNL     1      -6.662   1.851 -30.697  1.00  0.00    -0.008 A 
HETATM    9  C   UNL     1      -5.210   1.517 -30.432  1.00  0.00     0.053 C 
HETATM   10  C   UNL     1      -7.418   1.066 -31.609  1.00  0.00     0.043 A 
HETATM   11  C   UNL     1      -8.740   1.425 -31.888  1.00  0.00     0.030 A 
HETATM   12  C   UNL     1      -9.338   2.507 -31.249  1.00  0.00     0.005 A 
HETATM   13  C   UNL     1      -8.618   3.258 -30.326  1.00  0.00     0.030 A 
BRANCH  10  14
HETATM   14  N   UNL     1      -6.828  -0.076 -32.195  1.00  0.00    -0.325 N 
HETATM   15  C   UNL     1      -6.304  -0.221 -33.472  1.00  0.00     0.245 C 
HETATM   16  O   UNL     1      -6.190   0.651 -34.326  1.00  0.00    -0.271 OA
HETATM   17  H   UNL     1      -6.784  -0.931 -31.648  1.00  0.00     0.169 HD
BRANCH  15  18
HETATM   18  C   UNL     1      -5.778  -1.642 -33.704  1.00  0.00     0.270 C 
BRANCH  18  19
HETATM   19  O   UNL     1      -4.355  -1.686 -33.827  1.00  0.00    -0.387 OA
HETATM   20  C   UNL     1      -3.720  -1.754 -32.552  1.00  0.00     0.202 C 
ENDBRANCH  18  19
ENDBRANCH  15  18
ENDBRANCH  10  14
ENDBRANCH   1   7
BRANCH   3  21
HETATM   21  C   UNL     1      -4.405   6.235 -30.835  1.00  0.00     0.163 C 
BRANCH  21  22
HETATM   22  C   UNL     1      -3.126   5.922 -31.690  1.00  0.00     0.143 C 
HETATM   23  C   UNL     1      -2.762   4.418 -31.555  1.00  0.00     0.041 C 
HETATM   24  C   UNL     1      -2.748   3.854 -32.973  1.00  0.00     0.003 C 
HETATM   25  C   UNL     1      -3.711   4.743 -33.735  1.00  0.00     0.003 C 
HETATM   26  C   UNL     1      -3.404   6.135 -33.197  1.00  0.00     0.041 C 
BRANCH  22  27
HETATM   27  N   UNL     1      -1.950   6.787 -31.238  1.00  0.00    -0.061 N 
HETATM   28  H   UNL     1      -2.373   7.740 -31.199  1.00  0.00     0.281 HD
HETATM   29  C   UNL     1      -0.755   6.952 -32.155  1.00  0.00     0.236 C 
HETATM   30  C   UNL     1       0.458   6.769 -31.258  1.00  0.00     0.029 C 
HETATM   31  C   UNL     1      -0.036   7.173 -29.886  1.00  0.00     0.029 C 
HETATM   32  C   UNL     1      -1.419   6.561 -29.840  1.00  0.00     0.236 C 
ENDBRANCH  22  27
ENDBRANCH  21  22
ENDBRANCH   3  21
TORSDOF 7
ENDMDL
MODEL 10
REMARK VINA RESULT:      -7.2      3.747      5.111
REMARK  7 active torsions:
REMARK  status: ('A' for Active; 'I' for Inactive)
REMARK    1  A    between atoms: C_3  and  N_4 
REMARK       I    between atoms: N_4  and  C_5 
REMARK       I    between atoms: C_5  and  N_6 
REMARK    2  A    between atoms: N_6  and  C_7 
REMARK    3  A    between atoms: C_7  and  C_8 
REMARK    4  A    between atoms: C_8  and  N_9 
REMARK    5  A    between atoms: C_23  and  N_24 
REMARK       I    between atoms: N_24  and  C_25 
REMARK    6  A    between atoms: C_25  and  C_26 
REMARK    7  A    between atoms: C_26  and  O_27 
ROOT
HETATM    1  N   UNL     1      -6.322   3.605 -30.248  1.00  0.00    -0.308 N 
HETATM    2  C   UNL     1      -7.656   3.348 -30.283  1.00  0.00     0.320 C 
HETATM    3  N   UNL     1      -8.164   2.756 -31.390  1.00  0.00    -0.340 N 
HETATM    4  O   UNL     1      -8.371   3.747 -29.362  1.00  0.00    -0.247 OA
HETATM    5  H   UNL     1      -6.082   4.237 -29.494  1.00  0.00     0.170 HD
HETATM    6  H   UNL     1      -7.530   2.761 -32.180  1.00  0.00     0.164 HD
ENDROOT
BRANCH   1   7
HETATM    7  C   UNL     1      -5.243   3.154 -31.040  1.00  0.00     0.044 A 
HETATM    8  C   UNL     1      -4.376   4.108 -31.639  1.00  0.00    -0.008 A 
HETATM    9  C   UNL     1      -4.650   5.590 -31.505  1.00  0.00     0.053 C 
HETATM   10  C   UNL     1      -3.255   3.656 -32.387  1.00  0.00     0.043 A 
HETATM   11  C   UNL     1      -3.050   2.284 -32.551  1.00  0.00     0.030 A 
HETATM   12  C   UNL     1      -3.899   1.357 -31.953  1.00  0.00     0.005 A 
HETATM   13  C   UNL     1      -4.977   1.789 -31.188  1.00  0.00     0.030 A 
BRANCH  10  14
HETATM   14  N   UNL     1      -2.354   4.603 -32.926  1.00  0.00    -0.325 N 
HETATM   15  C   UNL     1      -2.422   5.266 -34.142  1.00  0.00     0.245 C 
HETATM   16  O   UNL     1      -3.328   5.208 -34.965  1.00  0.00    -0.271 OA
HETATM   17  H   UNL     1      -1.523   4.836 -32.391  1.00  0.00     0.169 HD
BRANCH  15  18
HETATM   18  C   UNL     1      -1.220   6.197 -34.340  1.00  0.00     0.270 C 
BRANCH  18  19
HETATM   19  O   UNL     1      -1.556   7.573 -34.150  1.00  0.00    -0.387 OA
HETATM   20  C   UNL     1      -1.700   7.891 -32.767  1.00  0.00     0.202 C 
ENDBRANCH  18  19
ENDBRANCH  15  18
ENDBRANCH  10  14
ENDBRANCH   1   7
BRANCH   3  21
HETATM   21  C   UNL     1      -9.560   2.472 -31.734  1.00  0.00     0.163 C 
BRANCH  21  22
HETATM   22  C   UNL     1      -9.934   1.681 -33.039  1.00  0.00     0.143 C 
HETATM   23  C   UNL     1      -8.887   1.976 -34.147  1.00  0.00     0.041 C 
HETATM   24  C   UNL     1      -8.320   0.623 -34.568  1.00  0.00     0.003 C 
HETATM   25  C   UNL     1      -8.482  -0.247 -33.337  1.00  0.00     0.003 C 
HETATM   26  C   UNL     1      -9.850   0.155 -32.801  1.00  0.00     0.041 C 
BRANCH  22  27
HETATM   27  N   UNL     1     -11.331   2.068 -33.522  1.00  0.00    -0.061 N 
HETATM   28  H   UNL     1     -11.672   2.687 -32.754  1.00  0.00     0.281 HD
HETATM   29  C   UNL     1     -12.399   0.999 -33.637  1.00  0.00     0.236 C 
HETATM   30  C   UNL     1     -13.063   1.248 -34.981  1.00  0.00     0.029 C 
HETATM   31  C   UNL     1     -12.845   2.724 -35.231  1.00  0.00     0.029 C 
HETATM   32  C   UNL     1     -11.422   2.932 -34.761  1.00  0.00     0.236 C 
ENDBRANCH  22  27
ENDBRANCH  21  22
ENDBRANCH   3  21
TORSDOF 7
ENDMDL
