MODEL 1
REMARK VINA RESULT:      -8.5      0.000      0.000
REMARK  9 active torsions:
REMARK  status: ('A' for Active; 'I' for Inactive)
REMARK    1  A    between atoms: C_4  and  S_5 
REMARK    2  A    between atoms: S_5  and  C_6 
REMARK    3  A    between atoms: C_6  and  C_7 
REMARK       I    between atoms: C_7  and  N_8 
REMARK    4  A    between atoms: N_8  and  C_9 
REMARK    5  A    between atoms: N_11  and  C_12 
REMARK    6  A    between atoms: C_12  and  C_13 
REMARK       I    between atoms: C_13  and  N_14 
REMARK    7  A    between atoms: N_14  and  C_15 
REMARK    8  A    between atoms: C_15  and  C_16 
REMARK    9  A    between atoms: C_16  and  N_17 
ROOT
HETATM    1  C   UNL     1      -1.945   6.552 -32.984  1.00  0.00     0.253 C 
ENDROOT
BRANCH   1   2
HETATM    2  N   UNL     1      -2.730   5.413 -32.526  1.00  0.00    -0.270 N 
HETATM    3  C   UNL     1      -2.539   4.129 -32.951  1.00  0.00     0.144 A 
HETATM    4  C   UNL     1      -3.592   3.391 -32.474  1.00  0.00     0.071 A 
HETATM    5  C   UNL     1      -4.352   4.318 -31.727  1.00  0.00     0.169 A 
HETATM    6  N   UNL     1      -3.858   5.563 -31.784  1.00  0.00    -0.183 NA
BRANCH   4   7
HETATM    7  N   UNL     1      -3.881   2.060 -32.708  1.00  0.00    -0.324 N 
HETATM    8  C   UNL     1      -3.356   1.000 -31.988  1.00  0.00     0.231 C 
HETATM    9  O   UNL     1      -2.732   1.099 -30.932  1.00  0.00    -0.272 OA
HETATM   10  H   UNL     1      -4.373   1.834 -33.567  1.00  0.00     0.169 HD
BRANCH   8  11
HETATM   11  C   UNL     1      -3.628  -0.373 -32.585  1.00  0.00     0.182 C 
BRANCH  11  12
HETATM   12  S   UNL     1      -5.175  -0.448 -33.555  1.00  0.00    -0.121 SA
BRANCH  12  13
HETATM   13  C   UNL     1      -5.331  -2.170 -34.027  1.00  0.00     0.001 A 
HETATM   14  C   UNL     1      -4.332  -3.142 -33.919  1.00  0.00     0.018 A 
HETATM   15  C   UNL     1      -4.560  -4.454 -34.352  1.00  0.00     0.001 A 
HETATM   16  C   UNL     1      -5.794  -4.814 -34.886  1.00  0.00     0.000 A 
HETATM   17  C   UNL     1      -6.803  -3.862 -34.987  1.00  0.00     0.001 A 
HETATM   18  C   UNL     1      -6.571  -2.551 -34.563  1.00  0.00     0.018 A 
ENDBRANCH  12  13
ENDBRANCH  11  12
ENDBRANCH   8  11
ENDBRANCH   4   7
ENDBRANCH   1   2
BRANCH   1  19
HETATM   19  C   UNL     1      -1.839   7.740 -32.050  1.00  0.00     0.237 C 
HETATM   20  N   UNL     1      -1.938   7.500 -30.696  1.00  0.00    -0.357 N 
HETATM   21  H   UNL     1      -1.676   6.543 -30.423  1.00  0.00     0.162 HD
HETATM   22  O   UNL     1      -1.813   8.890 -32.486  1.00  0.00    -0.272 OA
BRANCH  20  23
HETATM   23  C   UNL     1      -1.800   8.565 -29.721  1.00  0.00     0.161 C 
BRANCH  23  24
HETATM   24  C   UNL     1      -1.251   8.136 -28.316  1.00  0.00     0.143 C 
HETATM   25  C   UNL     1      -0.250   9.170 -27.736  1.00  0.00     0.041 C 
HETATM   26  C   UNL     1       0.441   8.712 -26.451  1.00  0.00     0.002 C 
HETATM   27  C   UNL     1       1.158   7.381 -26.646  1.00  0.00     0.000 C 
HETATM   28  C   UNL     1       0.237   6.312 -27.226  1.00  0.00     0.002 C 
HETATM   29  C   UNL     1      -0.466   6.801 -28.493  1.00  0.00     0.041 C 
BRANCH  24  30
HETATM   30  N   UNL     1      -2.418   7.897 -27.286  1.00  0.00    -0.057 N 
HETATM   31  H   UNL     1      -2.012   7.328 -26.536  1.00  0.00     0.281 HD
HETATM   32  C   UNL     1      -2.971   9.143 -26.571  1.00  0.00     0.262 C 
HETATM   33  C   UNL     1      -3.945   8.706 -25.467  1.00  0.00     0.195 C 
HETATM   34  O   UNL     1      -5.025   7.940 -26.007  1.00  0.00    -0.388 OA
HETATM   35  C   UNL     1      -4.563   6.756 -26.661  1.00  0.00     0.195 C 
HETATM   36  C   UNL     1      -3.616   7.097 -27.819  1.00  0.00     0.262 C 
ENDBRANCH  24  30
ENDBRANCH  23  24
ENDBRANCH  20  23
ENDBRANCH   1  19
TORSDOF 9
ENDMDL
MODEL 2
REMARK VINA RESULT:      -8.4      3.153     10.581
REMARK  9 active torsions:
REMARK  status: ('A' for Active; 'I' for Inactive)
REMARK    1  A    between atoms: C_4  and  S_5 
REMARK    2  A    between atoms: S_5  and  C_6 
REMARK    3  A    between atoms: C_6  and  C_7 
REMARK       I    between atoms: C_7  and  N_8 
REMARK    4  A    between atoms: N_8  and  C_9 
REMARK    5  A    between atoms: N_11  and  C_12 
REMARK    6  A    between atoms: C_12  and  C_13 
REMARK       I    between atoms: C_13  and  N_14 
REMARK    7  A    between atoms: N_14  and  C_15 
REMARK    8  A    between atoms: C_15  and  C_16 
REMARK    9  A    between atoms: C_16  and  N_17 
ROOT
HETATM    1  C   UNL     1      -6.521   5.088 -33.860  1.00  0.00     0.253 C 
ENDROOT
BRANCH   1   2
HETATM    2  N   UNL     1      -5.070   5.208 -33.866  1.00  0.00    -0.270 N 
HETATM    3  C   UNL     1      -4.309   5.378 -32.743  1.00  0.00     0.144 A 
HETATM    4  C   UNL     1      -3.036   5.664 -33.165  1.00  0.00     0.071 A 
HETATM    5  C   UNL     1      -3.117   5.600 -34.574  1.00  0.00     0.169 A 
HETATM    6  N   UNL     1      -4.361   5.362 -35.014  1.00  0.00    -0.183 NA
BRANCH   4   7
HETATM    7  N   UNL     1      -1.934   5.992 -32.399  1.00  0.00    -0.324 N 
HETATM    8  C   UNL     1      -1.273   7.208 -32.447  1.00  0.00     0.231 C 
HETATM    9  O   UNL     1      -1.685   8.218 -33.017  1.00  0.00    -0.272 OA
HETATM   10  H   UNL     1      -1.476   5.240 -31.894  1.00  0.00     0.169 HD
BRANCH   8  11
HETATM   11  C   UNL     1       0.049   7.245 -31.695  1.00  0.00     0.182 C 
BRANCH  11  12
HETATM   12  S   UNL     1      -0.028   6.449 -30.052  1.00  0.00    -0.121 SA
BRANCH  12  13
HETATM   13  C   UNL     1      -0.021   7.811 -28.887  1.00  0.00     0.001 A 
HETATM   14  C   UNL     1      -1.083   8.687 -28.645  1.00  0.00     0.018 A 
HETATM   15  C   UNL     1      -0.949   9.739 -27.731  1.00  0.00     0.001 A 
HETATM   16  C   UNL     1       0.243   9.920 -27.037  1.00  0.00     0.000 A 
HETATM   17  C   UNL     1       1.305   9.050 -27.256  1.00  0.00     0.001 A 
HETATM   18  C   UNL     1       1.174   8.006 -28.176  1.00  0.00     0.018 A 
ENDBRANCH  12  13
ENDBRANCH  11  12
ENDBRANCH   8  11
ENDBRANCH   4   7
ENDBRANCH   1   2
BRANCH   1  19
HETATM   19  C   UNL     1      -7.101   3.689 -33.850  1.00  0.00     0.237 C 
HETATM   20  N   UNL     1      -6.287   2.657 -34.270  1.00  0.00    -0.357 N 
HETATM   21  H   UNL     1      -5.283   2.852 -34.169  1.00  0.00     0.162 HD
HETATM   22  O   UNL     1      -8.293   3.497 -33.616  1.00  0.00    -0.272 OA
BRANCH  20  23
HETATM   23  C   UNL     1      -6.736   1.278 -34.249  1.00  0.00     0.161 C 
BRANCH  23  24
HETATM   24  C   UNL     1      -6.242   0.420 -33.032  1.00  0.00     0.143 C 
HETATM   25  C   UNL     1      -7.227   0.480 -31.834  1.00  0.00     0.041 C 
HETATM   26  C   UNL     1      -6.705  -0.198 -30.567  1.00  0.00     0.002 C 
HETATM   27  C   UNL     1      -5.362   0.380 -30.136  1.00  0.00     0.000 C 
HETATM   28  C   UNL     1      -4.341   0.365 -31.268  1.00  0.00     0.002 C 
HETATM   29  C   UNL     1      -4.893   1.022 -32.535  1.00  0.00     0.041 C 
BRANCH  24  30
HETATM   30  N   UNL     1      -5.999  -1.082 -33.441  1.00  0.00    -0.057 N 
HETATM   31  H   UNL     1      -6.149  -1.628 -32.586  1.00  0.00     0.281 HD
HETATM   32  C   UNL     1      -6.981  -1.684 -34.463  1.00  0.00     0.262 C 
HETATM   33  C   UNL     1      -6.724  -3.193 -34.586  1.00  0.00     0.195 C 
HETATM   34  O   UNL     1      -5.380  -3.455 -34.995  1.00  0.00    -0.388 OA
HETATM   35  C   UNL     1      -4.429  -2.936 -34.063  1.00  0.00     0.195 C 
HETATM   36  C   UNL     1      -4.576  -1.416 -33.910  1.00  0.00     0.262 C 
ENDBRANCH  24  30
ENDBRANCH  23  24
ENDBRANCH  20  23
ENDBRANCH   1  19
TORSDOF 9
ENDMDL
MODEL 3
REMARK VINA RESULT:      -8.3      1.504      1.857
REMARK  9 active torsions:
REMARK  status: ('A' for Active; 'I' for Inactive)
REMARK    1  A    between atoms: C_4  and  S_5 
REMARK    2  A    between atoms: S_5  and  C_6 
REMARK    3  A    between atoms: C_6  and  C_7 
REMARK       I    between atoms: C_7  and  N_8 
REMARK    4  A    between atoms: N_8  and  C_9 
REMARK    5  A    between atoms: N_11  and  C_12 
REMARK    6  A    between atoms: C_12  and  C_13 
REMARK       I    between atoms: C_13  and  N_14 
REMARK    7  A    between atoms: N_14  and  C_15 
REMARK    8  A    between atoms: C_15  and  C_16 
REMARK    9  A    between atoms: C_16  and  N_17 
ROOT
HETATM    1  C   UNL     1      -1.279   6.157 -33.029  1.00  0.00     0.253 C 
ENDROOT
BRANCH   1   2
HETATM    2  N   UNL     1      -2.073   4.973 -32.731  1.00  0.00    -0.270 N 
HETATM    3  C   UNL     1      -3.211   4.622 -33.402  1.00  0.00     0.144 A 
HETATM    4  C   UNL     1      -3.783   3.590 -32.703  1.00  0.00     0.071 A 
HETATM    5  C   UNL     1      -2.885   3.355 -31.638  1.00  0.00     0.169 A 
HETATM    6  N   UNL     1      -1.858   4.218 -31.622  1.00  0.00    -0.183 NA
BRANCH   4   7
HETATM    7  N   UNL     1      -4.986   2.955 -32.946  1.00  0.00    -0.324 N 
HETATM    8  C   UNL     1      -6.155   3.183 -32.239  1.00  0.00     0.231 C 
HETATM    9  O   UNL     1      -6.338   4.107 -31.448  1.00  0.00    -0.272 OA
HETATM   10  H   UNL     1      -4.972   2.151 -33.565  1.00  0.00     0.169 HD
BRANCH   8  11
HETATM   11  C   UNL     1      -7.275   2.194 -32.527  1.00  0.00     0.182 C 
BRANCH  11  12
HETATM   12  S   UNL     1      -7.137   0.642 -31.572  1.00  0.00    -0.121 SA
BRANCH  12  13
HETATM   13  C   UNL     1      -6.399  -0.527 -32.712  1.00  0.00     0.001 A 
HETATM   14  C   UNL     1      -5.044  -0.869 -32.771  1.00  0.00     0.018 A 
HETATM   15  C   UNL     1      -4.577  -1.776 -33.730  1.00  0.00     0.001 A 
HETATM   16  C   UNL     1      -5.459  -2.363 -34.632  1.00  0.00     0.000 A 
HETATM   17  C   UNL     1      -6.811  -2.044 -34.578  1.00  0.00     0.001 A 
HETATM   18  C   UNL     1      -7.276  -1.132 -33.627  1.00  0.00     0.018 A 
ENDBRANCH  12  13
ENDBRANCH  11  12
ENDBRANCH   8  11
ENDBRANCH   4   7
ENDBRANCH   1   2
BRANCH   1  19
HETATM   19  C   UNL     1      -1.507   7.379 -32.164  1.00  0.00     0.237 C 
HETATM   20  N   UNL     1      -1.553   7.196 -30.798  1.00  0.00    -0.357 N 
HETATM   21  H   UNL     1      -1.048   6.362 -30.473  1.00  0.00     0.162 HD
HETATM   22  O   UNL     1      -1.785   8.468 -32.664  1.00  0.00    -0.272 OA
BRANCH  20  23
HETATM   23  C   UNL     1      -1.718   8.312 -29.886  1.00  0.00     0.161 C 
BRANCH  23  24
HETATM   24  C   UNL     1      -1.348   8.026 -28.388  1.00  0.00     0.143 C 
HETATM   25  C   UNL     1      -0.363   9.080 -27.816  1.00  0.00     0.041 C 
HETATM   26  C   UNL     1       0.159   8.747 -26.417  1.00  0.00     0.002 C 
HETATM   27  C   UNL     1       0.823   7.375 -26.381  1.00  0.00     0.000 C 
HETATM   28  C   UNL     1      -0.083   6.284 -26.941  1.00  0.00     0.002 C 
HETATM   29  C   UNL     1      -0.619   6.650 -28.327  1.00  0.00     0.041 C 
BRANCH  24  30
HETATM   30  N   UNL     1      -2.631   7.953 -27.477  1.00  0.00    -0.057 N 
HETATM   31  H   UNL     1      -2.299   7.643 -26.558  1.00  0.00     0.281 HD
HETATM   32  C   UNL     1      -3.354   9.284 -27.201  1.00  0.00     0.262 C 
HETATM   33  C   UNL     1      -4.445   9.059 -26.143  1.00  0.00     0.195 C 
HETATM   34  O   UNL     1      -5.389   8.078 -26.577  1.00  0.00    -0.388 OA
HETATM   35  C   UNL     1      -4.767   6.814 -26.823  1.00  0.00     0.195 C 
HETATM   36  C   UNL     1      -3.691   6.929 -27.910  1.00  0.00     0.262 C 
ENDBRANCH  24  30
ENDBRANCH  23  24
ENDBRANCH  20  23
ENDBRANCH   1  19
TORSDOF 9
ENDMDL
MODEL 4
REMARK VINA RESULT:      -8.1      1.410      3.423
REMARK  9 active torsions:
REMARK  status: ('A' for Active; 'I' for Inactive)
REMARK    1  A    between atoms: C_4  and  S_5 
REMARK    2  A    between atoms: S_5  and  C_6 
REMARK    3  A    between atoms: C_6  and  C_7 
REMARK       I    between atoms: C_7  and  N_8 
REMARK    4  A    between atoms: N_8  and  C_9 
REMARK    5  A    between atoms: N_11  and  C_12 
REMARK    6  A    between atoms: C_12  and  C_13 
REMARK       I    between atoms: C_13  and  N_14 
REMARK    7  A    between atoms: N_14  and  C_15 
REMARK    8  A    between atoms: C_15  and  C_16 
REMARK    9  A    between atoms: C_16  and  N_17 
ROOT
HETATM    1  C   UNL     1      -5.881   5.534 -27.829  1.00  0.00     0.253 C 
ENDROOT
BRANCH   1   2
HETATM    2  N   UNL     1      -5.552   5.011 -29.148  1.00  0.00    -0.270 N 
HETATM    3  C   UNL     1      -5.781   3.723 -29.542  1.00  0.00     0.144 A 
HETATM    4  C   UNL     1      -5.148   3.557 -30.747  1.00  0.00     0.071 A 
HETATM    5  C   UNL     1      -4.595   4.826 -31.024  1.00  0.00     0.169 A 
HETATM    6  N   UNL     1      -4.801   5.711 -30.038  1.00  0.00    -0.183 NA
BRANCH   4   7
HETATM    7  N   UNL     1      -5.029   2.404 -31.499  1.00  0.00    -0.324 N 
HETATM    8  C   UNL     1      -3.846   1.711 -31.699  1.00  0.00     0.231 C 
HETATM    9  O   UNL     1      -2.798   1.904 -31.084  1.00  0.00    -0.272 OA
HETATM   10  H   UNL     1      -5.819   2.142 -32.080  1.00  0.00     0.169 HD
BRANCH   8  11
HETATM   11  C   UNL     1      -3.919   0.619 -32.757  1.00  0.00     0.182 C 
BRANCH  11  12
HETATM   12  S   UNL     1      -5.626   0.218 -33.270  1.00  0.00    -0.121 SA
BRANCH  12  13
HETATM   13  C   UNL     1      -5.543  -1.481 -33.834  1.00  0.00     0.001 A 
HETATM   14  C   UNL     1      -4.394  -2.277 -33.868  1.00  0.00     0.018 A 
HETATM   15  C   UNL     1      -4.446  -3.586 -34.361  1.00  0.00     0.001 A 
HETATM   16  C   UNL     1      -5.648  -4.120 -34.814  1.00  0.00     0.000 A 
HETATM   17  C   UNL     1      -6.803  -3.347 -34.774  1.00  0.00     0.001 A 
HETATM   18  C   UNL     1      -6.749  -2.037 -34.290  1.00  0.00     0.018 A 
ENDBRANCH  12  13
ENDBRANCH  11  12
ENDBRANCH   8  11
ENDBRANCH   4   7
ENDBRANCH   1   2
BRANCH   1  19
HETATM   19  C   UNL     1      -5.128   6.763 -27.364  1.00  0.00     0.237 C 
HETATM   20  N   UNL     1      -3.753   6.684 -27.298  1.00  0.00    -0.357 N 
HETATM   21  H   UNL     1      -3.347   5.978 -27.926  1.00  0.00     0.162 HD
HETATM   22  O   UNL     1      -5.725   7.745 -26.924  1.00  0.00    -0.272 OA
BRANCH  20  23
HETATM   23  C   UNL     1      -2.942   7.823 -26.912  1.00  0.00     0.161 C 
BRANCH  23  24
HETATM   24  C   UNL     1      -1.522   7.903 -27.572  1.00  0.00     0.143 C 
HETATM   25  C   UNL     1      -0.776   6.543 -27.525  1.00  0.00     0.041 C 
HETATM   26  C   UNL     1       0.676   6.614 -28.000  1.00  0.00     0.002 C 
HETATM   27  C   UNL     1       1.473   7.646 -27.210  1.00  0.00     0.000 C 
HETATM   28  C   UNL     1       0.794   9.011 -27.201  1.00  0.00     0.002 C 
HETATM   29  C   UNL     1      -0.665   8.913 -26.752  1.00  0.00     0.041 C 
BRANCH  24  30
HETATM   30  N   UNL     1      -1.602   8.409 -29.062  1.00  0.00    -0.057 N 
HETATM   31  H   UNL     1      -0.688   8.827 -29.261  1.00  0.00     0.281 HD
HETATM   32  C   UNL     1      -1.780   7.330 -30.146  1.00  0.00     0.262 C 
HETATM   33  C   UNL     1      -1.632   7.974 -31.532  1.00  0.00     0.195 C 
HETATM   34  O   UNL     1      -2.595   9.013 -31.723  1.00  0.00    -0.388 OA
HETATM   35  C   UNL     1      -2.453  10.053 -30.753  1.00  0.00     0.195 C 
HETATM   36  C   UNL     1      -2.637   9.512 -29.330  1.00  0.00     0.262 C 
ENDBRANCH  24  30
ENDBRANCH  23  24
ENDBRANCH  20  23
ENDBRANCH   1  19
TORSDOF 9
ENDMDL
MODEL 5
REMARK VINA RESULT:      -8.1      1.556      1.721
REMARK  9 active torsions:
REMARK  status: ('A' for Active; 'I' for Inactive)
REMARK    1  A    between atoms: C_4  and  S_5 
REMARK    2  A    between atoms: S_5  and  C_6 
REMARK    3  A    between atoms: C_6  and  C_7 
REMARK       I    between atoms: C_7  and  N_8 
REMARK    4  A    between atoms: N_8  and  C_9 
REMARK    5  A    between atoms: N_11  and  C_12 
REMARK    6  A    between atoms: C_12  and  C_13 
REMARK       I    between atoms: C_13  and  N_14 
REMARK    7  A    between atoms: N_14  and  C_15 
REMARK    8  A    between atoms: C_15  and  C_16 
REMARK    9  A    between atoms: C_16  and  N_17 
ROOT
HETATM    1  C   UNL     1      -1.901   4.827 -31.328  1.00  0.00     0.253 C 
ENDROOT
BRANCH   1   2
HETATM    2  N   UNL     1      -3.230   4.272 -31.549  1.00  0.00    -0.270 N 
HETATM    3  C   UNL     1      -3.474   2.961 -31.845  1.00  0.00     0.144 A 
HETATM    4  C   UNL     1      -4.797   2.871 -32.193  1.00  0.00     0.071 A 
HETATM    5  C   UNL     1      -5.286   4.186 -32.032  1.00  0.00     0.169 A 
HETATM    6  N   UNL     1      -4.330   5.058 -31.678  1.00  0.00    -0.183 NA
BRANCH   4   7
HETATM    7  N   UNL     1      -5.489   1.765 -32.648  1.00  0.00    -0.324 N 
HETATM    8  C   UNL     1      -6.375   1.021 -31.887  1.00  0.00     0.231 C 
HETATM    9  O   UNL     1      -6.817   1.350 -30.787  1.00  0.00    -0.272 OA
HETATM   10  H   UNL     1      -5.205   1.371 -33.539  1.00  0.00     0.169 HD
BRANCH   8  11
HETATM   11  C   UNL     1      -6.823  -0.285 -32.527  1.00  0.00     0.182 C 
BRANCH  11  12
HETATM   12  S   UNL     1      -6.208  -0.505 -34.233  1.00  0.00    -0.121 SA
BRANCH  12  13
HETATM   13  C   UNL     1      -5.720  -2.228 -34.321  1.00  0.00     0.001 A 
HETATM   14  C   UNL     1      -4.457  -2.738 -34.005  1.00  0.00     0.018 A 
HETATM   15  C   UNL     1      -4.182  -4.103 -34.143  1.00  0.00     0.001 A 
HETATM   16  C   UNL     1      -5.169  -4.979 -34.586  1.00  0.00     0.000 A 
HETATM   17  C   UNL     1      -6.435  -4.490 -34.891  1.00  0.00     0.001 A 
HETATM   18  C   UNL     1      -6.705  -3.125 -34.761  1.00  0.00     0.018 A 
ENDBRANCH  12  13
ENDBRANCH  11  12
ENDBRANCH   8  11
ENDBRANCH   4   7
ENDBRANCH   1   2
BRANCH   1  19
HETATM   19  C   UNL     1      -1.822   6.260 -30.843  1.00  0.00     0.237 C 
HETATM   20  N   UNL     1      -2.331   6.541 -29.592  1.00  0.00    -0.357 N 
HETATM   21  H   UNL     1      -2.348   5.732 -28.958  1.00  0.00     0.162 HD
HETATM   22  O   UNL     1      -1.451   7.164 -31.590  1.00  0.00    -0.272 OA
BRANCH  20  23
HETATM   23  C   UNL     1      -2.257   7.873 -29.021  1.00  0.00     0.161 C 
BRANCH  23  24
HETATM   24  C   UNL     1      -1.261   8.044 -27.822  1.00  0.00     0.143 C 
HETATM   25  C   UNL     1      -0.025   8.901 -28.202  1.00  0.00     0.041 C 
HETATM   26  C   UNL     1       1.054   8.951 -27.119  1.00  0.00     0.002 C 
HETATM   27  C   UNL     1       1.520   7.553 -26.731  1.00  0.00     0.000 C 
HETATM   28  C   UNL     1       0.356   6.643 -26.353  1.00  0.00     0.002 C 
HETATM   29  C   UNL     1      -0.726   6.632 -27.435  1.00  0.00     0.041 C 
BRANCH  24  30
HETATM   30  N   UNL     1      -1.971   8.671 -26.563  1.00  0.00    -0.057 N 
HETATM   31  H   UNL     1      -1.253   8.710 -25.832  1.00  0.00     0.281 HD
HETATM   32  C   UNL     1      -2.462  10.123 -26.703  1.00  0.00     0.262 C 
HETATM   33  C   UNL     1      -2.935  10.633 -25.334  1.00  0.00     0.195 C 
HETATM   34  O   UNL     1      -3.987   9.816 -24.815  1.00  0.00    -0.388 OA
HETATM   35  C   UNL     1      -3.571   8.459 -24.643  1.00  0.00     0.195 C 
HETATM   36  C   UNL     1      -3.124   7.844 -25.976  1.00  0.00     0.262 C 
ENDBRANCH  24  30
ENDBRANCH  23  24
ENDBRANCH  20  23
ENDBRANCH   1  19
TORSDOF 9
ENDMDL
MODEL 6
REMARK VINA RESULT:      -8.0      1.708      3.073
REMARK  9 active torsions:
REMARK  status: ('A' for Active; 'I' for Inactive)
REMARK    1  A    between atoms: C_4  and  S_5 
REMARK    2  A    between atoms: S_5  and  C_6 
REMARK    3  A    between atoms: C_6  and  C_7 
REMARK       I    between atoms: C_7  and  N_8 
REMARK    4  A    between atoms: N_8  and  C_9 
REMARK    5  A    between atoms: N_11  and  C_12 
REMARK    6  A    between atoms: C_12  and  C_13 
REMARK       I    between atoms: C_13  and  N_14 
REMARK    7  A    between atoms: N_14  and  C_15 
REMARK    8  A    between atoms: C_15  and  C_16 
REMARK    9  A    between atoms: C_16  and  N_17 
ROOT
HETATM    1  C   UNL     1      -1.772   6.562 -32.680  1.00  0.00     0.253 C 
ENDROOT
BRANCH   1   2
HETATM    2  N   UNL     1      -2.530   5.425 -32.177  1.00  0.00    -0.270 N 
HETATM    3  C   UNL     1      -2.415   4.152 -32.660  1.00  0.00     0.144 A 
HETATM    4  C   UNL     1      -3.428   3.420 -32.094  1.00  0.00     0.071 A 
HETATM    5  C   UNL     1      -4.081   4.336 -31.241  1.00  0.00     0.169 A 
HETATM    6  N   UNL     1      -3.567   5.573 -31.312  1.00  0.00    -0.183 NA
BRANCH   4   7
HETATM    7  N   UNL     1      -3.771   2.104 -32.337  1.00  0.00    -0.324 N 
HETATM    8  C   UNL     1      -4.997   1.685 -32.826  1.00  0.00     0.231 C 
HETATM    9  O   UNL     1      -5.864   2.422 -33.295  1.00  0.00    -0.272 OA
HETATM   10  H   UNL     1      -3.150   1.386 -31.977  1.00  0.00     0.169 HD
BRANCH   8  11
HETATM   11  C   UNL     1      -5.222   0.181 -32.778  1.00  0.00     0.182 C 
BRANCH  11  12
HETATM   12  S   UNL     1      -6.353  -0.426 -34.079  1.00  0.00    -0.121 SA
BRANCH  12  13
HETATM   13  C   UNL     1      -5.911  -2.149 -34.297  1.00  0.00     0.001 A 
HETATM   14  C   UNL     1      -6.758  -3.158 -34.764  1.00  0.00     0.018 A 
HETATM   15  C   UNL     1      -6.308  -4.481 -34.863  1.00  0.00     0.001 A 
HETATM   16  C   UNL     1      -5.003  -4.808 -34.509  1.00  0.00     0.000 A 
HETATM   17  C   UNL     1      -4.143  -3.813 -34.056  1.00  0.00     0.001 A 
HETATM   18  C   UNL     1      -4.595  -2.496 -33.949  1.00  0.00     0.018 A 
ENDBRANCH  12  13
ENDBRANCH  11  12
ENDBRANCH   8  11
ENDBRANCH   4   7
ENDBRANCH   1   2
BRANCH   1  19
HETATM   19  C   UNL     1      -1.750   7.813 -31.827  1.00  0.00     0.237 C 
HETATM   20  N   UNL     1      -1.724   7.653 -30.457  1.00  0.00    -0.357 N 
HETATM   21  H   UNL     1      -1.327   6.755 -30.152  1.00  0.00     0.162 HD
HETATM   22  O   UNL     1      -1.898   8.927 -32.328  1.00  0.00    -0.272 OA
BRANCH  20  23
HETATM   23  C   UNL     1      -1.653   8.789 -29.558  1.00  0.00     0.161 C 
BRANCH  23  24
HETATM   24  C   UNL     1      -1.953   8.483 -28.050  1.00  0.00     0.143 C 
HETATM   25  C   UNL     1      -2.648   7.110 -27.856  1.00  0.00     0.041 C 
HETATM   26  C   UNL     1      -3.115   6.845 -26.424  1.00  0.00     0.002 C 
HETATM   27  C   UNL     1      -4.044   7.947 -25.927  1.00  0.00     0.000 C 
HETATM   28  C   UNL     1      -3.431   9.333 -26.095  1.00  0.00     0.002 C 
HETATM   29  C   UNL     1      -2.944   9.566 -27.527  1.00  0.00     0.041 C 
BRANCH  24  30
HETATM   30  N   UNL     1      -0.644   8.539 -27.175  1.00  0.00    -0.057 N 
HETATM   31  H   UNL     1      -0.943   8.328 -26.218  1.00  0.00     0.281 HD
HETATM   32  C   UNL     1       0.437   7.488 -27.486  1.00  0.00     0.262 C 
HETATM   33  C   UNL     1       1.537   7.559 -26.416  1.00  0.00     0.195 C 
HETATM   34  O   UNL     1       2.128   8.860 -26.370  1.00  0.00    -0.388 OA
HETATM   35  C   UNL     1       1.166   9.870 -26.059  1.00  0.00     0.195 C 
HETATM   36  C   UNL     1       0.046   9.910 -27.107  1.00  0.00     0.262 C 
ENDBRANCH  24  30
ENDBRANCH  23  24
ENDBRANCH  20  23
ENDBRANCH   1  19
TORSDOF 9
ENDMDL
MODEL 7
REMARK VINA RESULT:      -7.8      3.359      9.388
REMARK  9 active torsions:
REMARK  status: ('A' for Active; 'I' for Inactive)
REMARK    1  A    between atoms: C_4  and  S_5 
REMARK    2  A    between atoms: S_5  and  C_6 
REMARK    3  A    between atoms: C_6  and  C_7 
REMARK       I    between atoms: C_7  and  N_8 
REMARK    4  A    between atoms: N_8  and  C_9 
REMARK    5  A    between atoms: N_11  and  C_12 
REMARK    6  A    between atoms: C_12  and  C_13 
REMARK       I    between atoms: C_13  and  N_14 
REMARK    7  A    between atoms: N_14  and  C_15 
REMARK    8  A    between atoms: C_15  and  C_16 
REMARK    9  A    between atoms: C_16  and  N_17 
ROOT
HETATM    1  C   UNL     1      -8.598   4.659 -30.049  1.00  0.00     0.253 C 
ENDROOT
BRANCH   1   2
HETATM    2  N   UNL     1      -7.239   5.167 -29.924  1.00  0.00    -0.270 N 
HETATM    3  C   UNL     1      -6.702   6.129 -30.731  1.00  0.00     0.144 A 
HETATM    4  C   UNL     1      -5.361   6.181 -30.450  1.00  0.00     0.071 A 
HETATM    5  C   UNL     1      -5.188   5.234 -29.417  1.00  0.00     0.169 A 
HETATM    6  N   UNL     1      -6.319   4.581 -29.114  1.00  0.00    -0.183 NA
BRANCH   4   7
HETATM    7  N   UNL     1      -4.386   6.943 -31.066  1.00  0.00    -0.324 N 
HETATM    8  C   UNL     1      -3.871   6.695 -32.327  1.00  0.00     0.231 C 
HETATM    9  O   UNL     1      -4.341   5.903 -33.143  1.00  0.00    -0.272 OA
HETATM   10  H   UNL     1      -3.895   7.623 -30.494  1.00  0.00     0.169 HD
BRANCH   8  11
HETATM   11  C   UNL     1      -2.643   7.519 -32.687  1.00  0.00     0.182 C 
BRANCH  11  12
HETATM   12  S   UNL     1      -1.147   6.507 -32.966  1.00  0.00    -0.121 SA
BRANCH  12  13
HETATM   13  C   UNL     1      -0.448   6.271 -31.332  1.00  0.00     0.001 A 
HETATM   14  C   UNL     1       0.241   5.136 -30.893  1.00  0.00     0.018 A 
HETATM   15  C   UNL     1       0.716   5.052 -29.579  1.00  0.00     0.001 A 
HETATM   16  C   UNL     1       0.520   6.106 -28.691  1.00  0.00     0.000 A 
HETATM   17  C   UNL     1      -0.151   7.247 -29.116  1.00  0.00     0.001 A 
HETATM   18  C   UNL     1      -0.632   7.327 -30.425  1.00  0.00     0.018 A 
ENDBRANCH  12  13
ENDBRANCH  11  12
ENDBRANCH   8  11
ENDBRANCH   4   7
ENDBRANCH   1   2
BRANCH   1  19
HETATM   19  C   UNL     1      -8.767   3.266 -30.620  1.00  0.00     0.237 C 
HETATM   20  N   UNL     1      -7.663   2.439 -30.625  1.00  0.00    -0.357 N 
HETATM   21  H   UNL     1      -6.964   2.674 -29.908  1.00  0.00     0.162 HD
HETATM   22  O   UNL     1      -9.806   2.934 -31.189  1.00  0.00    -0.272 OA
BRANCH  20  23
HETATM   23  C   UNL     1      -7.738   1.072 -31.105  1.00  0.00     0.161 C 
BRANCH  23  24
HETATM   24  C   UNL     1      -6.948   0.771 -32.427  1.00  0.00     0.143 C 
HETATM   25  C   UNL     1      -7.494   1.579 -33.634  1.00  0.00     0.041 C 
HETATM   26  C   UNL     1      -6.871   1.190 -34.975  1.00  0.00     0.002 C 
HETATM   27  C   UNL     1      -7.036  -0.298 -35.258  1.00  0.00     0.000 C 
HETATM   28  C   UNL     1      -6.530  -1.161 -34.107  1.00  0.00     0.002 C 
HETATM   29  C   UNL     1      -7.143  -0.736 -32.771  1.00  0.00     0.041 C 
BRANCH  24  30
HETATM   30  N   UNL     1      -5.407   1.051 -32.259  1.00  0.00    -0.057 N 
HETATM   31  H   UNL     1      -4.967   0.688 -33.110  1.00  0.00     0.281 HD
HETATM   32  C   UNL     1      -4.979   2.528 -32.200  1.00  0.00     0.262 C 
HETATM   33  C   UNL     1      -3.446   2.615 -32.243  1.00  0.00     0.195 C 
HETATM   34  O   UNL     1      -2.859   1.898 -31.154  1.00  0.00    -0.388 OA
HETATM   35  C   UNL     1      -3.208   0.513 -31.180  1.00  0.00     0.195 C 
HETATM   36  C   UNL     1      -4.728   0.323 -31.090  1.00  0.00     0.262 C 
ENDBRANCH  24  30
ENDBRANCH  23  24
ENDBRANCH  20  23
ENDBRANCH   1  19
TORSDOF 9
ENDMDL
MODEL 8
REMARK VINA RESULT:      -7.7      2.682      4.384
REMARK  9 active torsions:
REMARK  status: ('A' for Active; 'I' for Inactive)
REMARK    1  A    between atoms: C_4  and  S_5 
REMARK    2  A    between atoms: S_5  and  C_6 
REMARK    3  A    between atoms: C_6  and  C_7 
REMARK       I    between atoms: C_7  and  N_8 
REMARK    4  A    between atoms: N_8  and  C_9 
REMARK    5  A    between atoms: N_11  and  C_12 
REMARK    6  A    between atoms: C_12  and  C_13 
REMARK       I    between atoms: C_13  and  N_14 
REMARK    7  A    between atoms: N_14  and  C_15 
REMARK    8  A    between atoms: C_15  and  C_16 
REMARK    9  A    between atoms: C_16  and  N_17 
ROOT
HETATM    1  C   UNL     1      -7.211   6.792 -30.963  1.00  0.00     0.253 C 
ENDROOT
BRANCH   1   2
HETATM    2  N   UNL     1      -7.073   5.346 -30.853  1.00  0.00    -0.270 N 
HETATM    3  C   UNL     1      -6.829   4.516 -31.910  1.00  0.00     0.144 A 
HETATM    4  C   UNL     1      -6.983   3.233 -31.451  1.00  0.00     0.071 A 
HETATM    5  C   UNL     1      -7.279   3.390 -30.079  1.00  0.00     0.169 A 
HETATM    6  N   UNL     1      -7.376   4.675 -29.711  1.00  0.00    -0.183 NA
BRANCH   4   7
HETATM    7  N   UNL     1      -6.917   2.054 -32.169  1.00  0.00    -0.324 N 
HETATM    8  C   UNL     1      -5.802   1.237 -32.245  1.00  0.00     0.231 C 
HETATM    9  O   UNL     1      -4.800   1.336 -31.537  1.00  0.00    -0.272 OA
HETATM   10  H   UNL     1      -7.674   1.860 -32.818  1.00  0.00     0.169 HD
BRANCH   8  11
HETATM   11  C   UNL     1      -5.892   0.131 -33.286  1.00  0.00     0.182 C 
BRANCH  11  12
HETATM   12  S   UNL     1      -4.357  -0.849 -33.439  1.00  0.00    -0.121 SA
BRANCH  12  13
HETATM   13  C   UNL     1      -4.903  -2.468 -33.978  1.00  0.00     0.001 A 
HETATM   14  C   UNL     1      -4.156  -3.648 -33.914  1.00  0.00     0.018 A 
HETATM   15  C   UNL     1      -4.678  -4.853 -34.397  1.00  0.00     0.001 A 
HETATM   16  C   UNL     1      -5.959  -4.898 -34.938  1.00  0.00     0.000 A 
HETATM   17  C   UNL     1      -6.722  -3.736 -34.997  1.00  0.00     0.001 A 
HETATM   18  C   UNL     1      -6.196  -2.532 -34.523  1.00  0.00     0.018 A 
ENDBRANCH  12  13
ENDBRANCH  11  12
ENDBRANCH   8  11
ENDBRANCH   4   7
ENDBRANCH   1   2
BRANCH   1  19
HETATM   19  C   UNL     1      -5.939   7.598 -31.124  1.00  0.00     0.237 C 
HETATM   20  N   UNL     1      -4.741   6.915 -31.099  1.00  0.00    -0.357 N 
HETATM   21  H   UNL     1      -4.821   5.927 -31.371  1.00  0.00     0.162 HD
HETATM   22  O   UNL     1      -5.963   8.829 -31.131  1.00  0.00    -0.272 OA
BRANCH  20  23
HETATM   23  C   UNL     1      -3.474   7.593 -31.293  1.00  0.00     0.161 C 
BRANCH  23  24
HETATM   24  C   UNL     1      -2.371   6.771 -32.047  1.00  0.00     0.143 C 
HETATM   25  C   UNL     1      -1.947   7.441 -33.380  1.00  0.00     0.041 C 
HETATM   26  C   UNL     1      -1.003   6.591 -34.231  1.00  0.00     0.002 C 
HETATM   27  C   UNL     1      -1.602   5.222 -34.532  1.00  0.00     0.000 C 
HETATM   28  C   UNL     1      -2.055   4.503 -33.266  1.00  0.00     0.002 C 
HETATM   29  C   UNL     1      -2.974   5.382 -32.415  1.00  0.00     0.041 C 
BRANCH  24  30
HETATM   30  N   UNL     1      -1.100   6.541 -31.145  1.00  0.00    -0.057 N 
HETATM   31  H   UNL     1      -0.295   6.671 -31.765  1.00  0.00     0.281 HD
HETATM   32  C   UNL     1      -0.877   7.548 -30.002  1.00  0.00     0.262 C 
HETATM   33  C   UNL     1       0.498   7.297 -29.365  1.00  0.00     0.195 C 
HETATM   34  O   UNL     1       0.596   5.963 -28.860  1.00  0.00    -0.388 OA
HETATM   35  C   UNL     1       0.420   4.990 -29.891  1.00  0.00     0.195 C 
HETATM   36  C   UNL     1      -0.955   5.130 -30.556  1.00  0.00     0.262 C 
ENDBRANCH  24  30
ENDBRANCH  23  24
ENDBRANCH  20  23
ENDBRANCH   1  19
TORSDOF 9
ENDMDL
MODEL 9
REMARK VINA RESULT:      -7.7      2.188      3.233
REMARK  9 active torsions:
REMARK  status: ('A' for Active; 'I' for Inactive)
REMARK    1  A    between atoms: C_4  and  S_5 
REMARK    2  A    between atoms: S_5  and  C_6 
REMARK    3  A    between atoms: C_6  and  C_7 
REMARK       I    between atoms: C_7  and  N_8 
REMARK    4  A    between atoms: N_8  and  C_9 
REMARK    5  A    between atoms: N_11  and  C_12 
REMARK    6  A    between atoms: C_12  and  C_13 
REMARK       I    between atoms: C_13  and  N_14 
REMARK    7  A    between atoms: N_14  and  C_15 
REMARK    8  A    between atoms: C_15  and  C_16 
REMARK    9  A    between atoms: C_16  and  N_17 
ROOT
HETATM    1  C   UNL     1      -1.279   4.981 -32.978  1.00  0.00     0.253 C 
ENDROOT
BRANCH   1   2
HETATM    2  N   UNL     1      -2.659   4.910 -33.438  1.00  0.00    -0.270 N 
HETATM    3  C   UNL     1      -3.603   4.077 -32.907  1.00  0.00     0.144 A 
HETATM    4  C   UNL     1      -4.697   4.138 -33.732  1.00  0.00     0.071 A 
HETATM    5  C   UNL     1      -4.331   5.077 -34.721  1.00  0.00     0.169 A 
HETATM    6  N   UNL     1      -3.076   5.525 -34.575  1.00  0.00    -0.183 NA
BRANCH   4   7
HETATM    7  N   UNL     1      -5.870   3.411 -33.653  1.00  0.00    -0.324 N 
HETATM    8  C   UNL     1      -6.645   3.286 -32.512  1.00  0.00     0.231 C 
HETATM    9  O   UNL     1      -6.512   3.952 -31.486  1.00  0.00    -0.272 OA
HETATM   10  H   UNL     1      -6.089   2.793 -34.428  1.00  0.00     0.169 HD
BRANCH   8  11
HETATM   11  C   UNL     1      -7.750   2.244 -32.604  1.00  0.00     0.182 C 
BRANCH  11  12
HETATM   12  S   UNL     1      -7.420   0.746 -31.610  1.00  0.00    -0.121 SA
BRANCH  12  13
HETATM   13  C   UNL     1      -6.719  -0.424 -32.772  1.00  0.00     0.001 A 
HETATM   14  C   UNL     1      -7.419  -1.105 -33.772  1.00  0.00     0.018 A 
HETATM   15  C   UNL     1      -6.768  -2.024 -34.603  1.00  0.00     0.001 A 
HETATM   16  C   UNL     1      -5.406  -2.265 -34.454  1.00  0.00     0.000 A 
HETATM   17  C   UNL     1      -4.691  -1.586 -33.473  1.00  0.00     0.001 A 
HETATM   18  C   UNL     1      -5.344  -0.676 -32.638  1.00  0.00     0.018 A 
ENDBRANCH  12  13
ENDBRANCH  11  12
ENDBRANCH   8  11
ENDBRANCH   4   7
ENDBRANCH   1   2
BRANCH   1  19
HETATM   19  C   UNL     1      -1.052   5.357 -31.528  1.00  0.00     0.237 C 
HETATM   20  N   UNL     1      -1.226   6.679 -31.175  1.00  0.00    -0.357 N 
HETATM   21  H   UNL     1      -1.859   7.196 -31.798  1.00  0.00     0.162 HD
HETATM   22  O   UNL     1      -0.590   4.546 -30.727  1.00  0.00    -0.272 OA
BRANCH  20  23
HETATM   23  C   UNL     1      -1.079   7.126 -29.803  1.00  0.00     0.161 C 
BRANCH  23  24
HETATM   24  C   UNL     1      -1.966   8.351 -29.388  1.00  0.00     0.143 C 
HETATM   25  C   UNL     1      -2.359   9.229 -30.605  1.00  0.00     0.041 C 
HETATM   26  C   UNL     1      -3.076  10.527 -30.229  1.00  0.00     0.002 C 
HETATM   27  C   UNL     1      -2.247  11.363 -29.261  1.00  0.00     0.000 C 
HETATM   28  C   UNL     1      -1.812  10.562 -28.039  1.00  0.00     0.002 C 
HETATM   29  C   UNL     1      -1.124   9.254 -28.437  1.00  0.00     0.041 C 
BRANCH  24  30
HETATM   30  N   UNL     1      -3.266   7.896 -28.624  1.00  0.00    -0.057 N 
HETATM   31  H   UNL     1      -3.794   8.755 -28.441  1.00  0.00     0.281 HD
HETATM   32  C   UNL     1      -4.243   6.998 -29.405  1.00  0.00     0.262 C 
HETATM   33  C   UNL     1      -5.533   6.824 -28.591  1.00  0.00     0.195 C 
HETATM   34  O   UNL     1      -5.262   6.244 -27.313  1.00  0.00    -0.388 OA
HETATM   35  C   UNL     1      -4.376   7.055 -26.538  1.00  0.00     0.195 C 
HETATM   36  C   UNL     1      -3.032   7.245 -27.253  1.00  0.00     0.262 C 
ENDBRANCH  24  30
ENDBRANCH  23  24
ENDBRANCH  20  23
ENDBRANCH   1  19
TORSDOF 9
ENDMDL
MODEL 10
REMARK VINA RESULT:      -7.6      3.866      8.731
REMARK  9 active torsions:
REMARK  status: ('A' for Active; 'I' for Inactive)
REMARK    1  A    between atoms: C_4  and  S_5 
REMARK    2  A    between atoms: S_5  and  C_6 
REMARK    3  A    between atoms: C_6  and  C_7 
REMARK       I    between atoms: C_7  and  N_8 
REMARK    4  A    between atoms: N_8  and  C_9 
REMARK    5  A    between atoms: N_11  and  C_12 
REMARK    6  A    between atoms: C_12  and  C_13 
REMARK       I    between atoms: C_13  and  N_14 
REMARK    7  A    between atoms: N_14  and  C_15 
REMARK    8  A    between atoms: C_15  and  C_16 
REMARK    9  A    between atoms: C_16  and  N_17 
ROOT
HETATM    1  C   UNL     1      -6.885   7.482 -29.591  1.00  0.00     0.253 C 
ENDROOT
BRANCH   1   2
HETATM    2  N   UNL     1      -5.952   7.112 -28.536  1.00  0.00    -0.270 N 
HETATM    3  C   UNL     1      -4.645   7.510 -28.494  1.00  0.00     0.144 A 
HETATM    4  C   UNL     1      -4.045   6.795 -27.489  1.00  0.00     0.071 A 
HETATM    5  C   UNL     1      -5.090   6.016 -26.947  1.00  0.00     0.169 A 
HETATM    6  N   UNL     1      -6.250   6.171 -27.602  1.00  0.00    -0.183 NA
BRANCH   4   7
HETATM    7  N   UNL     1      -2.713   6.791 -27.120  1.00  0.00    -0.324 N 
HETATM    8  C   UNL     1      -2.141   7.676 -26.220  1.00  0.00     0.231 C 
HETATM    9  O   UNL     1      -2.762   8.442 -25.485  1.00  0.00    -0.272 OA
HETATM   10  H   UNL     1      -2.079   6.218 -27.667  1.00  0.00     0.169 HD
BRANCH   8  11
HETATM   11  C   UNL     1      -0.621   7.631 -26.162  1.00  0.00     0.182 C 
BRANCH  11  12
HETATM   12  S   UNL     1       0.184   8.437 -27.591  1.00  0.00    -0.121 SA
BRANCH  12  13
HETATM   13  C   UNL     1       0.429   7.117 -28.778  1.00  0.00     0.001 A 
HETATM   14  C   UNL     1       0.655   5.772 -28.472  1.00  0.00     0.018 A 
HETATM   15  C   UNL     1       0.866   4.833 -29.488  1.00  0.00     0.001 A 
HETATM   16  C   UNL     1       0.840   5.223 -30.824  1.00  0.00     0.000 A 
HETATM   17  C   UNL     1       0.602   6.555 -31.146  1.00  0.00     0.001 A 
HETATM   18  C   UNL     1       0.402   7.493 -30.131  1.00  0.00     0.018 A 
ENDBRANCH  12  13
ENDBRANCH  11  12
ENDBRANCH   8  11
ENDBRANCH   4   7
ENDBRANCH   1   2
BRANCH   1  19
HETATM   19  C   UNL     1      -6.920   6.603 -30.824  1.00  0.00     0.237 C 
HETATM   20  N   UNL     1      -6.039   6.896 -31.844  1.00  0.00    -0.357 N 
HETATM   21  H   UNL     1      -5.198   7.400 -31.534  1.00  0.00     0.162 HD
HETATM   22  O   UNL     1      -7.796   5.752 -30.973  1.00  0.00    -0.272 OA
BRANCH  20  23
HETATM   23  C   UNL     1      -5.963   6.082 -33.042  1.00  0.00     0.161 C 
BRANCH  23  24
HETATM   24  C   UNL     1      -4.709   5.146 -33.150  1.00  0.00     0.143 C 
HETATM   25  C   UNL     1      -3.679   5.412 -32.021  1.00  0.00     0.041 C 
HETATM   26  C   UNL     1      -2.366   4.645 -32.185  1.00  0.00     0.002 C 
HETATM   27  C   UNL     1      -1.713   4.936 -33.531  1.00  0.00     0.000 C 
HETATM   28  C   UNL     1      -2.672   4.707 -34.695  1.00  0.00     0.002 C 
HETATM   29  C   UNL     1      -3.990   5.459 -34.497  1.00  0.00     0.041 C 
BRANCH  24  30
HETATM   30  N   UNL     1      -5.118   3.625 -33.143  1.00  0.00    -0.057 N 
HETATM   31  H   UNL     1      -4.289   3.115 -33.463  1.00  0.00     0.281 HD
HETATM   32  C   UNL     1      -5.449   3.008 -31.772  1.00  0.00     0.262 C 
HETATM   33  C   UNL     1      -5.622   1.490 -31.927  1.00  0.00     0.195 C 
HETATM   34  O   UNL     1      -6.662   1.182 -32.858  1.00  0.00    -0.388 OA
HETATM   35  C   UNL     1      -6.388   1.714 -34.156  1.00  0.00     0.195 C 
HETATM   36  C   UNL     1      -6.248   3.241 -34.111  1.00  0.00     0.262 C 
ENDBRANCH  24  30
ENDBRANCH  23  24
ENDBRANCH  20  23
ENDBRANCH   1  19
TORSDOF 9
ENDMDL
