MODEL 1
REMARK VINA RESULT:     -10.0      0.000      0.000
REMARK  8 active torsions:
REMARK  status: ('A' for Active; 'I' for Inactive)
REMARK    1  A    between atoms: C_2  and  N_3 
REMARK       I    between atoms: N_3  and  C_4 
REMARK       I    between atoms: C_4  and  N_5 
REMARK    2  A    between atoms: N_5  and  C_6 
REMARK    3  A    between atoms: N_5  and  C_21 
REMARK    4  A    between atoms: C_6  and  C_7 
REMARK    5  A    between atoms: C_8  and  O_9 
REMARK    6  A    between atoms: C_21  and  C_22 
REMARK    7  A    between atoms: C_22  and  C_23 
REMARK    8  A    between atoms: C_23  and  N_24 
ROOT
HETATM    1  N   UNL     1      -5.563   0.143 -33.739  1.00  0.00    -0.309 N 
HETATM    2  C   UNL     1      -5.513   0.706 -32.487  1.00  0.00     0.323 C 
HETATM    3  N   UNL     1      -5.748   2.089 -32.443  1.00  0.00    -0.330 N 
HETATM    4  O   UNL     1      -5.288   0.091 -31.447  1.00  0.00    -0.247 OA
HETATM    5  H   UNL     1      -5.340   0.752 -34.513  1.00  0.00     0.170 HD
ENDROOT
BRANCH   3   6
HETATM    6  C   UNL     1      -6.187   2.862 -33.615  1.00  0.00     0.170 C 
BRANCH   6   7
HETATM    7  C   UNL     1      -7.671   2.983 -33.816  1.00  0.00     0.013 A 
HETATM    8  C   UNL     1      -8.335   4.187 -34.020  1.00  0.00     0.170 A 
HETATM    9  N   UNL     1      -9.665   4.310 -34.181  1.00  0.00    -0.224 NA
HETATM   10  C   UNL     1     -10.428   3.212 -34.040  1.00  0.00     0.072 A 
HETATM   11  C   UNL     1      -9.862   1.933 -33.789  1.00  0.00    -0.004 A 
HETATM   12  C   UNL     1     -11.813   3.321 -34.115  1.00  0.00     0.072 A 
HETATM   13  C   UNL     1      -8.469   1.841 -33.698  1.00  0.00     0.027 A 
HETATM   14  C   UNL     1     -10.674   0.797 -33.620  1.00  0.00     0.053 A 
HETATM   15  C   UNL     1     -12.036   0.966 -33.688  1.00  0.00     0.106 A 
HETATM   16  C   UNL     1     -12.591   2.196 -33.930  1.00  0.00     0.107 A 
HETATM   17  O   UNL     1     -12.968  -0.007 -33.523  1.00  0.00    -0.323 OA
HETATM   18  O   UNL     1     -13.950   2.152 -33.949  1.00  0.00    -0.323 OA
HETATM   19  C   UNL     1     -14.186   0.758 -33.654  1.00  0.00     0.352 A 
BRANCH   8  20
HETATM   20  O   UNL     1      -7.665   5.375 -34.111  1.00  0.00    -0.344 OA
HETATM   21  H   UNL     1      -8.272   6.009 -34.527  1.00  0.00     0.219 HD
ENDBRANCH   8  20
ENDBRANCH   6   7
ENDBRANCH   3   6
BRANCH   3  22
HETATM   22  C   UNL     1      -5.126   2.815 -31.322  1.00  0.00     0.129 C 
BRANCH  22  23
HETATM   23  C   UNL     1      -3.666   3.253 -31.521  1.00  0.00     0.048 C 
BRANCH  23  24
HETATM   24  C   UNL     1      -3.444   4.750 -31.330  1.00  0.00     0.236 C 
BRANCH  24  25
HETATM   25  N   UNL     1      -3.038   5.424 -32.626  1.00  0.00    -0.067 N 
HETATM   26  H   UNL     1      -3.892   5.650 -33.149  1.00  0.00     0.280 HD
HETATM   27  C   UNL     1      -2.251   6.720 -32.423  1.00  0.00     0.261 C 
HETATM   28  C   UNL     1      -1.855   7.292 -33.792  1.00  0.00     0.195 C 
HETATM   29  O   UNL     1      -1.089   6.348 -34.550  1.00  0.00    -0.388 OA
HETATM   30  C   UNL     1      -1.825   5.146 -34.800  1.00  0.00     0.195 C 
HETATM   31  C   UNL     1      -2.217   4.461 -33.489  1.00  0.00     0.261 C 
ENDBRANCH  24  25
ENDBRANCH  23  24
ENDBRANCH  22  23
ENDBRANCH   3  22
BRANCH   1  32
HETATM   32  C   UNL     1      -5.510  -1.232 -34.060  1.00  0.00     0.036 A 
HETATM   33  C   UNL     1      -4.345  -2.002 -33.999  1.00  0.00     0.032 A 
HETATM   34  C   UNL     1      -4.379  -3.359 -34.333  1.00  0.00     0.044 A 
HETATM   35  C   UNL     1      -5.577  -3.946 -34.720  1.00  0.00     0.116 A 
HETATM   36  C   UNL     1      -6.747  -3.201 -34.774  1.00  0.00     0.044 A 
HETATM   37  F   UNL     1      -5.605  -5.245 -35.042  1.00  0.00    -0.206 F 
HETATM   38  C   UNL     1      -6.714  -1.844 -34.440  1.00  0.00     0.032 A 
ENDBRANCH   1  32
TORSDOF 8
ENDMDL
MODEL 2
REMARK VINA RESULT:      -9.8      3.217      8.316
REMARK  8 active torsions:
REMARK  status: ('A' for Active; 'I' for Inactive)
REMARK    1  A    between atoms: C_2  and  N_3 
REMARK       I    between atoms: N_3  and  C_4 
REMARK       I    between atoms: C_4  and  N_5 
REMARK    2  A    between atoms: N_5  and  C_6 
REMARK    3  A    between atoms: N_5  and  C_21 
REMARK    4  A    between atoms: C_6  and  C_7 
REMARK    5  A    between atoms: C_8  and  O_9 
REMARK    6  A    between atoms: C_21  and  C_22 
REMARK    7  A    between atoms: C_22  and  C_23 
REMARK    8  A    between atoms: C_23  and  N_24 
ROOT
HETATM    1  N   UNL     1      -4.726   4.126 -32.894  1.00  0.00    -0.309 N 
HETATM    2  C   UNL     1      -5.477   3.519 -31.917  1.00  0.00     0.323 C 
HETATM    3  N   UNL     1      -6.502   2.681 -32.382  1.00  0.00    -0.330 N 
HETATM    4  O   UNL     1      -5.305   3.661 -30.708  1.00  0.00    -0.247 OA
HETATM    5  H   UNL     1      -5.184   4.277 -33.781  1.00  0.00     0.170 HD
ENDROOT
BRANCH   3   6
HETATM    6  C   UNL     1      -6.664   2.331 -33.801  1.00  0.00     0.170 C 
BRANCH   6   7
HETATM    7  C   UNL     1      -6.514   0.878 -34.151  1.00  0.00     0.013 A 
HETATM    8  C   UNL     1      -7.454   0.148 -34.870  1.00  0.00     0.170 A 
HETATM    9  N   UNL     1      -7.340  -1.159 -35.171  1.00  0.00    -0.224 NA
HETATM   10  C   UNL     1      -6.298  -1.842 -34.664  1.00  0.00     0.072 A 
HETATM   11  C   UNL     1      -5.297  -1.208 -33.881  1.00  0.00    -0.004 A 
HETATM   12  C   UNL     1      -6.199  -3.211 -34.886  1.00  0.00     0.072 A 
HETATM   13  C   UNL     1      -5.419   0.167 -33.650  1.00  0.00     0.027 A 
HETATM   14  C   UNL     1      -4.225  -1.939 -33.337  1.00  0.00     0.053 A 
HETATM   15  C   UNL     1      -4.187  -3.292 -33.575  1.00  0.00     0.106 A 
HETATM   16  C   UNL     1      -5.147  -3.912 -34.330  1.00  0.00     0.107 A 
HETATM   17  O   UNL     1      -3.247  -4.155 -33.109  1.00  0.00    -0.323 OA
HETATM   18  O   UNL     1      -4.934  -5.250 -34.437  1.00  0.00    -0.323 OA
HETATM   19  C   UNL     1      -3.746  -5.406 -33.630  1.00  0.00     0.352 A 
BRANCH   8  20
HETATM   20  O   UNL     1      -8.585   0.725 -35.374  1.00  0.00    -0.344 OA
HETATM   21  H   UNL     1      -8.391   1.669 -35.492  1.00  0.00     0.219 HD
ENDBRANCH   8  20
ENDBRANCH   6   7
ENDBRANCH   3   6
BRANCH   3  22
HETATM   22  C   UNL     1      -7.662   2.520 -31.487  1.00  0.00     0.129 C 
BRANCH  22  23
HETATM   23  C   UNL     1      -9.041   2.806 -32.102  1.00  0.00     0.048 C 
BRANCH  23  24
HETATM   24  C   UNL     1      -9.886   1.555 -32.319  1.00  0.00     0.236 C 
BRANCH  24  25
HETATM   25  N   UNL     1     -11.165   1.868 -33.071  1.00  0.00    -0.067 N 
HETATM   26  H   UNL     1     -11.813   2.328 -32.420  1.00  0.00     0.280 HD
HETATM   27  C   UNL     1     -10.962   2.796 -34.269  1.00  0.00     0.261 C 
HETATM   28  C   UNL     1     -12.306   3.009 -34.980  1.00  0.00     0.195 C 
HETATM   29  O   UNL     1     -12.879   1.764 -35.394  1.00  0.00    -0.388 OA
HETATM   30  C   UNL     1     -13.131   0.899 -34.283  1.00  0.00     0.195 C 
HETATM   31  C   UNL     1     -11.834   0.572 -33.539  1.00  0.00     0.261 C 
ENDBRANCH  24  25
ENDBRANCH  23  24
ENDBRANCH  22  23
ENDBRANCH   3  22
BRANCH   1  32
HETATM   32  C   UNL     1      -3.554   4.895 -32.718  1.00  0.00     0.036 A 
HETATM   33  C   UNL     1      -2.270   4.349 -32.633  1.00  0.00     0.032 A 
HETATM   34  C   UNL     1      -1.160   5.181 -32.458  1.00  0.00     0.044 A 
HETATM   35  C   UNL     1      -1.335   6.557 -32.378  1.00  0.00     0.116 A 
HETATM   36  C   UNL     1      -2.600   7.119 -32.474  1.00  0.00     0.044 A 
HETATM   37  F   UNL     1      -0.270   7.351 -32.208  1.00  0.00    -0.206 F 
HETATM   38  C   UNL     1      -3.710   6.288 -32.648  1.00  0.00     0.032 A 
ENDBRANCH   1  32
TORSDOF 8
ENDMDL
MODEL 3
REMARK VINA RESULT:      -9.7      1.638      7.574
REMARK  8 active torsions:
REMARK  status: ('A' for Active; 'I' for Inactive)
REMARK    1  A    between atoms: C_2  and  N_3 
REMARK       I    between atoms: N_3  and  C_4 
REMARK       I    between atoms: C_4  and  N_5 
REMARK    2  A    between atoms: N_5  and  C_6 
REMARK    3  A    between atoms: N_5  and  C_21 
REMARK    4  A    between atoms: C_6  and  C_7 
REMARK    5  A    between atoms: C_8  and  O_9 
REMARK    6  A    between atoms: C_21  and  C_22 
REMARK    7  A    between atoms: C_22  and  C_23 
REMARK    8  A    between atoms: C_23  and  N_24 
ROOT
HETATM    1  N   UNL     1      -6.059  -0.069 -33.781  1.00  0.00    -0.309 N 
HETATM    2  C   UNL     1      -7.037   0.389 -32.931  1.00  0.00     0.323 C 
HETATM    3  N   UNL     1      -7.308   1.764 -33.017  1.00  0.00    -0.330 N 
HETATM    4  O   UNL     1      -7.663  -0.309 -32.136  1.00  0.00    -0.247 OA
HETATM    5  H   UNL     1      -5.358   0.601 -34.060  1.00  0.00     0.170 HD
ENDROOT
BRANCH   3   6
HETATM    6  C   UNL     1      -6.723   2.629 -34.052  1.00  0.00     0.170 C 
BRANCH   6   7
HETATM    7  C   UNL     1      -5.817   3.726 -33.570  1.00  0.00     0.013 A 
HETATM    8  C   UNL     1      -6.105   5.081 -33.680  1.00  0.00     0.170 A 
HETATM    9  N   UNL     1      -5.293   6.072 -33.270  1.00  0.00    -0.224 NA
HETATM   10  C   UNL     1      -4.072   5.747 -32.809  1.00  0.00     0.072 A 
HETATM   11  C   UNL     1      -3.652   4.395 -32.690  1.00  0.00    -0.004 A 
HETATM   12  C   UNL     1      -3.177   6.753 -32.458  1.00  0.00     0.072 A 
HETATM   13  C   UNL     1      -4.556   3.394 -33.063  1.00  0.00     0.027 A 
HETATM   14  C   UNL     1      -2.364   4.070 -32.229  1.00  0.00     0.053 A 
HETATM   15  C   UNL     1      -1.517   5.104 -31.912  1.00  0.00     0.106 A 
HETATM   16  C   UNL     1      -1.912   6.411 -32.023  1.00  0.00     0.107 A 
HETATM   17  O   UNL     1      -0.236   4.979 -31.479  1.00  0.00    -0.323 OA
HETATM   18  O   UNL     1      -0.927   7.279 -31.672  1.00  0.00    -0.323 OA
HETATM   19  C   UNL     1       0.149   6.366 -31.363  1.00  0.00     0.352 A 
BRANCH   8  20
HETATM   20  O   UNL     1      -7.288   5.528 -34.197  1.00  0.00    -0.344 OA
HETATM   21  H   UNL     1      -7.171   6.473 -34.392  1.00  0.00     0.219 HD
ENDBRANCH   8  20
ENDBRANCH   6   7
ENDBRANCH   3   6
BRANCH   3  22
HETATM   22  C   UNL     1      -7.834   2.396 -31.794  1.00  0.00     0.129 C 
BRANCH  22  23
HETATM   23  C   UNL     1      -9.350   2.652 -31.759  1.00  0.00     0.048 C 
BRANCH  23  24
HETATM   24  C   UNL     1      -9.850   3.530 -32.900  1.00  0.00     0.236 C 
BRANCH  24  25
HETATM   25  N   UNL     1     -11.144   3.001 -33.487  1.00  0.00    -0.067 N 
HETATM   26  H   UNL     1     -11.912   3.271 -32.860  1.00  0.00     0.280 HD
HETATM   27  C   UNL     1     -11.457   3.549 -34.880  1.00  0.00     0.261 C 
HETATM   28  C   UNL     1     -12.758   2.917 -35.393  1.00  0.00     0.195 C 
HETATM   29  O   UNL     1     -12.668   1.488 -35.420  1.00  0.00    -0.388 OA
HETATM   30  C   UNL     1     -12.431   0.947 -34.117  1.00  0.00     0.195 C 
HETATM   31  C   UNL     1     -11.115   1.470 -33.538  1.00  0.00     0.261 C 
ENDBRANCH  24  25
ENDBRANCH  23  24
ENDBRANCH  22  23
ENDBRANCH   3  22
BRANCH   1  32
HETATM   32  C   UNL     1      -5.688  -1.414 -34.010  1.00  0.00     0.036 A 
HETATM   33  C   UNL     1      -4.461  -1.960 -33.621  1.00  0.00     0.032 A 
HETATM   34  C   UNL     1      -4.172  -3.302 -33.885  1.00  0.00     0.044 A 
HETATM   35  C   UNL     1      -5.112  -4.097 -34.529  1.00  0.00     0.116 A 
HETATM   36  C   UNL     1      -6.340  -3.576 -34.910  1.00  0.00     0.044 A 
HETATM   37  F   UNL     1      -4.830  -5.381 -34.783  1.00  0.00    -0.206 F 
HETATM   38  C   UNL     1      -6.630  -2.235 -34.647  1.00  0.00     0.032 A 
ENDBRANCH   1  32
TORSDOF 8
ENDMDL
MODEL 4
REMARK VINA RESULT:      -9.6      2.878      6.478
REMARK  8 active torsions:
REMARK  status: ('A' for Active; 'I' for Inactive)
REMARK    1  A    between atoms: C_2  and  N_3 
REMARK       I    between atoms: N_3  and  C_4 
REMARK       I    between atoms: C_4  and  N_5 
REMARK    2  A    between atoms: N_5  and  C_6 
REMARK    3  A    between atoms: N_5  and  C_21 
REMARK    4  A    between atoms: C_6  and  C_7 
REMARK    5  A    between atoms: C_8  and  O_9 
REMARK    6  A    between atoms: C_21  and  C_22 
REMARK    7  A    between atoms: C_22  and  C_23 
REMARK    8  A    between atoms: C_23  and  N_24 
ROOT
HETATM    1  N   UNL     1      -3.904   3.311 -31.886  1.00  0.00    -0.309 N 
HETATM    2  C   UNL     1      -3.881   1.967 -32.169  1.00  0.00     0.323 C 
HETATM    3  N   UNL     1      -5.013   1.248 -31.752  1.00  0.00    -0.330 N 
HETATM    4  O   UNL     1      -2.965   1.384 -32.745  1.00  0.00    -0.247 OA
HETATM    5  H   UNL     1      -4.456   3.592 -31.089  1.00  0.00     0.170 HD
ENDROOT
BRANCH   3   6
HETATM    6  C   UNL     1      -6.215   1.899 -31.209  1.00  0.00     0.170 C 
BRANCH   6   7
HETATM    7  C   UNL     1      -7.375   2.049 -32.151  1.00  0.00     0.013 A 
HETATM    8  C   UNL     1      -7.538   3.120 -33.022  1.00  0.00     0.170 A 
HETATM    9  N   UNL     1      -8.583   3.275 -33.856  1.00  0.00    -0.224 NA
HETATM   10  C   UNL     1      -9.595   2.392 -33.782  1.00  0.00     0.072 A 
HETATM   11  C   UNL     1      -9.555   1.280 -32.899  1.00  0.00    -0.004 A 
HETATM   12  C   UNL     1     -10.727   2.574 -34.570  1.00  0.00     0.072 A 
HETATM   13  C   UNL     1      -8.419   1.120 -32.100  1.00  0.00     0.027 A 
HETATM   14  C   UNL     1     -10.631   0.378 -32.815  1.00  0.00     0.053 A 
HETATM   15  C   UNL     1     -11.730   0.616 -33.604  1.00  0.00     0.106 A 
HETATM   16  C   UNL     1     -11.777   1.685 -34.460  1.00  0.00     0.107 A 
HETATM   17  O   UNL     1     -12.865  -0.130 -33.634  1.00  0.00    -0.323 OA
HETATM   18  O   UNL     1     -12.952   1.748 -35.141  1.00  0.00    -0.323 OA
HETATM   19  C   UNL     1     -13.654   0.615 -34.587  1.00  0.00     0.352 A 
BRANCH   8  20
HETATM   20  O   UNL     1      -6.605   4.112 -33.131  1.00  0.00    -0.344 OA
HETATM   21  H   UNL     1      -6.636   4.620 -32.303  1.00  0.00     0.219 HD
ENDBRANCH   8  20
ENDBRANCH   6   7
ENDBRANCH   3   6
BRANCH   3  22
HETATM   22  C   UNL     1      -4.800  -0.180 -31.461  1.00  0.00     0.129 C 
BRANCH  22  23
HETATM   23  C   UNL     1      -5.579  -1.177 -32.335  1.00  0.00     0.048 C 
BRANCH  23  24
HETATM   24  C   UNL     1      -5.249  -1.077 -33.820  1.00  0.00     0.236 C 
BRANCH  24  25
HETATM   25  N   UNL     1      -5.015  -2.444 -34.434  1.00  0.00    -0.067 N 
HETATM   26  H   UNL     1      -4.557  -2.311 -35.343  1.00  0.00     0.280 HD
HETATM   27  C   UNL     1      -4.126  -3.354 -33.585  1.00  0.00     0.261 C 
HETATM   28  C   UNL     1      -3.994  -4.719 -34.275  1.00  0.00     0.195 C 
HETATM   29  O   UNL     1      -5.276  -5.321 -34.491  1.00  0.00    -0.388 OA
HETATM   30  C   UNL     1      -6.107  -4.513 -35.328  1.00  0.00     0.195 C 
HETATM   31  C   UNL     1      -6.354  -3.141 -34.696  1.00  0.00     0.261 C 
ENDBRANCH  24  25
ENDBRANCH  23  24
ENDBRANCH  22  23
ENDBRANCH   3  22
BRANCH   1  32
HETATM   32  C   UNL     1      -2.978   4.290 -32.313  1.00  0.00     0.036 A 
HETATM   33  C   UNL     1      -1.903   4.735 -31.539  1.00  0.00     0.032 A 
HETATM   34  C   UNL     1      -1.030   5.708 -32.037  1.00  0.00     0.044 A 
HETATM   35  C   UNL     1      -1.229   6.226 -33.310  1.00  0.00     0.116 A 
HETATM   36  C   UNL     1      -2.282   5.787 -34.099  1.00  0.00     0.044 A 
HETATM   37  F   UNL     1      -0.393   7.160 -33.783  1.00  0.00    -0.206 F 
HETATM   38  C   UNL     1      -3.155   4.815 -33.602  1.00  0.00     0.032 A 
ENDBRANCH   1  32
TORSDOF 8
ENDMDL
MODEL 5
REMARK VINA RESULT:      -9.5      2.704      6.321
REMARK  8 active torsions:
REMARK  status: ('A' for Active; 'I' for Inactive)
REMARK    1  A    between atoms: C_2  and  N_3 
REMARK       I    between atoms: N_3  and  C_4 
REMARK       I    between atoms: C_4  and  N_5 
REMARK    2  A    between atoms: N_5  and  C_6 
REMARK    3  A    between atoms: N_5  and  C_21 
REMARK    4  A    between atoms: C_6  and  C_7 
REMARK    5  A    between atoms: C_8  and  O_9 
REMARK    6  A    between atoms: C_21  and  C_22 
REMARK    7  A    between atoms: C_22  and  C_23 
REMARK    8  A    between atoms: C_23  and  N_24 
ROOT
HETATM    1  N   UNL     1     -10.308   2.652 -32.890  1.00  0.00    -0.309 N 
HETATM    2  C   UNL     1      -9.526   3.464 -33.676  1.00  0.00     0.323 C 
HETATM    3  N   UNL     1      -8.213   3.658 -33.217  1.00  0.00    -0.330 N 
HETATM    4  O   UNL     1      -9.895   4.004 -34.717  1.00  0.00    -0.247 OA
HETATM    5  H   UNL     1     -10.069   2.614 -31.910  1.00  0.00     0.170 HD
ENDROOT
BRANCH   3   6
HETATM    6  C   UNL     1      -7.649   2.918 -32.079  1.00  0.00     0.170 C 
BRANCH   6   7
HETATM    7  C   UNL     1      -6.839   1.697 -32.412  1.00  0.00     0.013 A 
HETATM    8  C   UNL     1      -5.458   1.617 -32.279  1.00  0.00     0.170 A 
HETATM    9  N   UNL     1      -4.720   0.537 -32.593  1.00  0.00    -0.224 NA
HETATM   10  C   UNL     1      -5.336  -0.510 -33.170  1.00  0.00     0.072 A 
HETATM   11  C   UNL     1      -6.739  -0.524 -33.393  1.00  0.00    -0.004 A 
HETATM   12  C   UNL     1      -4.588  -1.607 -33.585  1.00  0.00     0.072 A 
HETATM   13  C   UNL     1      -7.477   0.593 -32.987  1.00  0.00     0.027 A 
HETATM   14  C   UNL     1      -7.367  -1.616 -34.018  1.00  0.00     0.053 A 
HETATM   15  C   UNL     1      -6.577  -2.665 -34.422  1.00  0.00     0.106 A 
HETATM   16  C   UNL     1      -5.223  -2.661 -34.211  1.00  0.00     0.107 A 
HETATM   17  O   UNL     1      -7.005  -3.783 -35.062  1.00  0.00    -0.323 OA
HETATM   18  O   UNL     1      -4.624  -3.782 -34.692  1.00  0.00    -0.323 OA
HETATM   19  C   UNL     1      -5.753  -4.476 -35.265  1.00  0.00     0.352 A 
BRANCH   8  20
HETATM   20  O   UNL     1      -4.720   2.648 -31.768  1.00  0.00    -0.344 OA
HETATM   21  H   UNL     1      -5.327   3.399 -31.655  1.00  0.00     0.219 HD
ENDBRANCH   8  20
ENDBRANCH   6   7
ENDBRANCH   3   6
BRANCH   3  22
HETATM   22  C   UNL     1      -7.569   4.921 -33.617  1.00  0.00     0.129 C 
BRANCH  22  23
HETATM   23  C   UNL     1      -6.118   4.818 -34.114  1.00  0.00     0.048 C 
BRANCH  23  24
HETATM   24  C   UNL     1      -5.136   5.671 -33.319  1.00  0.00     0.236 C 
BRANCH  24  25
HETATM   25  N   UNL     1      -3.712   5.172 -33.471  1.00  0.00    -0.067 N 
HETATM   26  H   UNL     1      -3.730   4.146 -33.451  1.00  0.00     0.280 HD
HETATM   27  C   UNL     1      -3.046   5.606 -34.777  1.00  0.00     0.261 C 
HETATM   28  C   UNL     1      -1.601   5.087 -34.807  1.00  0.00     0.195 C 
HETATM   29  O   UNL     1      -0.856   5.556 -33.677  1.00  0.00    -0.388 OA
HETATM   30  C   UNL     1      -1.429   5.116 -32.443  1.00  0.00     0.195 C 
HETATM   31  C   UNL     1      -2.859   5.637 -32.287  1.00  0.00     0.261 C 
ENDBRANCH  24  25
ENDBRANCH  23  24
ENDBRANCH  22  23
ENDBRANCH   3  22
BRANCH   1  32
HETATM   32  C   UNL     1     -11.605   2.172 -33.182  1.00  0.00     0.036 A 
HETATM   33  C   UNL     1     -12.767   2.935 -33.039  1.00  0.00     0.032 A 
HETATM   34  C   UNL     1     -14.014   2.384 -33.351  1.00  0.00     0.044 A 
HETATM   35  C   UNL     1     -14.095   1.076 -33.813  1.00  0.00     0.116 A 
HETATM   36  C   UNL     1     -12.951   0.309 -33.975  1.00  0.00     0.044 A 
HETATM   37  F   UNL     1     -15.291   0.552 -34.108  1.00  0.00    -0.206 F 
HETATM   38  C   UNL     1     -11.704   0.858 -33.664  1.00  0.00     0.032 A 
ENDBRANCH   1  32
TORSDOF 8
ENDMDL
MODEL 6
REMARK VINA RESULT:      -9.5      1.609      1.937
REMARK  8 active torsions:
REMARK  status: ('A' for Active; 'I' for Inactive)
REMARK    1  A    between atoms: C_2  and  N_3 
REMARK       I    between atoms: N_3  and  C_4 
REMARK       I    between atoms: C_4  and  N_5 
REMARK    2  A    between atoms: N_5  and  C_6 
REMARK    3  A    between atoms: N_5  and  C_21 
REMARK    4  A    between atoms: C_6  and  C_7 
REMARK    5  A    between atoms: C_8  and  O_9 
REMARK    6  A    between atoms: C_21  and  C_22 
REMARK    7  A    between atoms: C_22  and  C_23 
REMARK    8  A    between atoms: C_23  and  N_24 
ROOT
HETATM    1  N   UNL     1      -5.843  -0.053 -33.691  1.00  0.00    -0.309 N 
HETATM    2  C   UNL     1      -5.662   0.521 -32.457  1.00  0.00     0.323 C 
HETATM    3  N   UNL     1      -6.084   1.856 -32.348  1.00  0.00    -0.330 N 
HETATM    4  O   UNL     1      -5.174  -0.047 -31.481  1.00  0.00    -0.247 OA
HETATM    5  H   UNL     1      -5.847   0.576 -34.481  1.00  0.00     0.170 HD
ENDROOT
BRANCH   3   6
HETATM    6  C   UNL     1      -6.824   2.547 -33.415  1.00  0.00     0.170 C 
BRANCH   6   7
HETATM    7  C   UNL     1      -8.318   2.394 -33.395  1.00  0.00     0.013 A 
HETATM    8  C   UNL     1      -9.029   1.564 -34.254  1.00  0.00     0.170 A 
HETATM    9  N   UNL     1     -10.368   1.435 -34.259  1.00  0.00    -0.224 NA
HETATM   10  C   UNL     1     -11.089   2.231 -33.449  1.00  0.00     0.072 A 
HETATM   11  C   UNL     1     -10.471   3.148 -32.557  1.00  0.00    -0.004 A 
HETATM   12  C   UNL     1     -12.478   2.182 -33.493  1.00  0.00     0.072 A 
HETATM   13  C   UNL     1      -9.073   3.199 -32.536  1.00  0.00     0.027 A 
HETATM   14  C   UNL     1     -11.237   3.991 -31.732  1.00  0.00     0.053 A 
HETATM   15  C   UNL     1     -12.606   3.912 -31.829  1.00  0.00     0.106 A 
HETATM   16  C   UNL     1     -13.211   3.030 -32.686  1.00  0.00     0.107 A 
HETATM   17  O   UNL     1     -13.497   4.664 -31.135  1.00  0.00    -0.323 OA
HETATM   18  O   UNL     1     -14.567   3.115 -32.640  1.00  0.00    -0.323 OA
HETATM   19  C   UNL     1     -14.744   4.179 -31.680  1.00  0.00     0.352 A 
BRANCH   8  20
HETATM   20  O   UNL     1      -8.403   0.762 -35.166  1.00  0.00    -0.344 OA
HETATM   21  H   UNL     1      -8.620  -0.155 -34.929  1.00  0.00     0.219 HD
ENDBRANCH   8  20
ENDBRANCH   6   7
ENDBRANCH   3   6
BRANCH   3  22
HETATM   22  C   UNL     1      -5.389   2.673 -31.338  1.00  0.00     0.129 C 
BRANCH  22  23
HETATM   23  C   UNL     1      -5.084   4.127 -31.731  1.00  0.00     0.048 C 
BRANCH  23  24
HETATM   24  C   UNL     1      -3.615   4.507 -31.579  1.00  0.00     0.236 C 
BRANCH  24  25
HETATM   25  N   UNL     1      -3.118   5.305 -32.769  1.00  0.00    -0.067 N 
HETATM   26  H   UNL     1      -3.925   5.523 -33.366  1.00  0.00     0.280 HD
HETATM   27  C   UNL     1      -2.445   6.624 -32.386  1.00  0.00     0.261 C 
HETATM   28  C   UNL     1      -1.943   7.324 -33.657  1.00  0.00     0.195 C 
HETATM   29  O   UNL     1      -1.041   6.489 -34.391  1.00  0.00    -0.388 OA
HETATM   30  C   UNL     1      -1.666   5.272 -34.809  1.00  0.00     0.195 C 
HETATM   31  C   UNL     1      -2.149   4.463 -33.603  1.00  0.00     0.261 C 
ENDBRANCH  24  25
ENDBRANCH  23  24
ENDBRANCH  22  23
ENDBRANCH   3  22
BRANCH   1  32
HETATM   32  C   UNL     1      -5.648  -1.408 -34.041  1.00  0.00     0.036 A 
HETATM   33  C   UNL     1      -4.404  -2.046 -34.020  1.00  0.00     0.032 A 
HETATM   34  C   UNL     1      -4.297  -3.393 -34.381  1.00  0.00     0.044 A 
HETATM   35  C   UNL     1      -5.433  -4.101 -34.752  1.00  0.00     0.116 A 
HETATM   36  C   UNL     1      -6.678  -3.488 -34.765  1.00  0.00     0.044 A 
HETATM   37  F   UNL     1      -5.326  -5.389 -35.099  1.00  0.00    -0.206 F 
HETATM   38  C   UNL     1      -6.786  -2.143 -34.405  1.00  0.00     0.032 A 
ENDBRANCH   1  32
TORSDOF 8
ENDMDL
MODEL 7
REMARK VINA RESULT:      -9.4      1.810      8.297
REMARK  8 active torsions:
REMARK  status: ('A' for Active; 'I' for Inactive)
REMARK    1  A    between atoms: C_2  and  N_3 
REMARK       I    between atoms: N_3  and  C_4 
REMARK       I    between atoms: C_4  and  N_5 
REMARK    2  A    between atoms: N_5  and  C_6 
REMARK    3  A    between atoms: N_5  and  C_21 
REMARK    4  A    between atoms: C_6  and  C_7 
REMARK    5  A    between atoms: C_8  and  O_9 
REMARK    6  A    between atoms: C_21  and  C_22 
REMARK    7  A    between atoms: C_22  and  C_23 
REMARK    8  A    between atoms: C_23  and  N_24 
ROOT
HETATM    1  N   UNL     1      -6.666  -0.778 -33.417  1.00  0.00    -0.309 N 
HETATM    2  C   UNL     1      -7.391   0.166 -34.102  1.00  0.00     0.323 C 
HETATM    3  N   UNL     1      -7.551   1.394 -33.442  1.00  0.00    -0.330 N 
HETATM    4  O   UNL     1      -7.884   0.002 -35.217  1.00  0.00    -0.247 OA
HETATM    5  H   UNL     1      -6.675  -0.705 -32.410  1.00  0.00     0.170 HD
ENDROOT
BRANCH   3   6
HETATM    6  C   UNL     1      -6.856   1.722 -32.188  1.00  0.00     0.170 C 
BRANCH   6   7
HETATM    7  C   UNL     1      -5.549   2.452 -32.322  1.00  0.00     0.013 A 
HETATM    8  C   UNL     1      -4.304   1.837 -32.276  1.00  0.00     0.170 A 
HETATM    9  N   UNL     1      -3.127   2.482 -32.375  1.00  0.00    -0.224 NA
HETATM   10  C   UNL     1      -3.139   3.826 -32.423  1.00  0.00     0.072 A 
HETATM   11  C   UNL     1      -4.353   4.564 -32.435  1.00  0.00    -0.004 A 
HETATM   12  C   UNL     1      -1.937   4.525 -32.438  1.00  0.00     0.072 A 
HETATM   13  C   UNL     1      -5.554   3.848 -32.401  1.00  0.00     0.027 A 
HETATM   14  C   UNL     1      -4.350   5.970 -32.462  1.00  0.00     0.053 A 
HETATM   15  C   UNL     1      -3.134   6.609 -32.460  1.00  0.00     0.106 A 
HETATM   16  C   UNL     1      -1.958   5.906 -32.449  1.00  0.00     0.107 A 
HETATM   17  O   UNL     1      -2.941   7.953 -32.456  1.00  0.00    -0.323 OA
HETATM   18  O   UNL     1      -0.870   6.721 -32.438  1.00  0.00    -0.323 OA
HETATM   19  C   UNL     1      -1.499   8.021 -32.406  1.00  0.00     0.352 A 
BRANCH   8  20
HETATM   20  O   UNL     1      -4.171   0.481 -32.159  1.00  0.00    -0.344 OA
HETATM   21  H   UNL     1      -3.278   0.315 -31.814  1.00  0.00     0.219 HD
ENDBRANCH   8  20
ENDBRANCH   6   7
ENDBRANCH   3   6
BRANCH   3  22
HETATM   22  C   UNL     1      -8.757   2.164 -33.794  1.00  0.00     0.129 C 
BRANCH  22  23
HETATM   23  C   UNL     1     -10.079   1.678 -33.178  1.00  0.00     0.048 C 
BRANCH  23  24
HETATM   24  C   UNL     1     -11.265   2.587 -33.478  1.00  0.00     0.236 C 
BRANCH  24  25
HETATM   25  N   UNL     1     -12.582   1.923 -33.124  1.00  0.00    -0.067 N 
HETATM   26  H   UNL     1     -12.417   1.291 -32.332  1.00  0.00     0.280 HD
HETATM   27  C   UNL     1     -13.678   2.910 -32.719  1.00  0.00     0.261 C 
HETATM   28  C   UNL     1     -14.972   2.138 -32.426  1.00  0.00     0.195 C 
HETATM   29  O   UNL     1     -15.383   1.360 -33.556  1.00  0.00    -0.388 OA
HETATM   30  C   UNL     1     -14.396   0.391 -33.920  1.00  0.00     0.195 C 
HETATM   31  C   UNL     1     -13.075   1.068 -34.294  1.00  0.00     0.261 C 
ENDBRANCH  24  25
ENDBRANCH  23  24
ENDBRANCH  22  23
ENDBRANCH   3  22
BRANCH   1  32
HETATM   32  C   UNL     1      -6.229  -2.034 -33.895  1.00  0.00     0.036 A 
HETATM   33  C   UNL     1      -7.089  -3.021 -34.386  1.00  0.00     0.032 A 
HETATM   34  C   UNL     1      -6.575  -4.239 -34.842  1.00  0.00     0.044 A 
HETATM   35  C   UNL     1      -5.205  -4.465 -34.816  1.00  0.00     0.116 A 
HETATM   36  C   UNL     1      -4.335  -3.491 -34.345  1.00  0.00     0.044 A 
HETATM   37  F   UNL     1      -4.717  -5.633 -35.250  1.00  0.00    -0.206 F 
HETATM   38  C   UNL     1      -4.847  -2.274 -33.889  1.00  0.00     0.032 A 
ENDBRANCH   1  32
TORSDOF 8
ENDMDL
MODEL 8
REMARK VINA RESULT:      -9.2      3.645      7.688
REMARK  8 active torsions:
REMARK  status: ('A' for Active; 'I' for Inactive)
REMARK    1  A    between atoms: C_2  and  N_3 
REMARK       I    between atoms: N_3  and  C_4 
REMARK       I    between atoms: C_4  and  N_5 
REMARK    2  A    between atoms: N_5  and  C_6 
REMARK    3  A    between atoms: N_5  and  C_21 
REMARK    4  A    between atoms: C_6  and  C_7 
REMARK    5  A    between atoms: C_8  and  O_9 
REMARK    6  A    between atoms: C_21  and  C_22 
REMARK    7  A    between atoms: C_22  and  C_23 
REMARK    8  A    between atoms: C_23  and  N_24 
ROOT
HETATM    1  N   UNL     1      -7.693  -0.675 -33.413  1.00  0.00    -0.309 N 
HETATM    2  C   UNL     1      -8.226   0.312 -34.206  1.00  0.00     0.323 C 
HETATM    3  N   UNL     1      -9.140   1.164 -33.567  1.00  0.00    -0.330 N 
HETATM    4  O   UNL     1      -7.956   0.484 -35.393  1.00  0.00    -0.247 OA
HETATM    5  H   UNL     1      -8.259  -0.980 -32.635  1.00  0.00     0.170 HD
ENDROOT
BRANCH   3   6
HETATM    6  C   UNL     1      -9.387   1.126 -32.118  1.00  0.00     0.170 C 
BRANCH   6   7
HETATM    7  C   UNL     1      -8.706   2.184 -31.298  1.00  0.00     0.013 A 
HETATM    8  C   UNL     1      -7.474   2.017 -30.676  1.00  0.00     0.170 A 
HETATM    9  N   UNL     1      -6.863   2.950 -29.923  1.00  0.00    -0.224 NA
HETATM   10  C   UNL     1      -7.524   4.092 -29.664  1.00  0.00     0.072 A 
HETATM   11  C   UNL     1      -8.807   4.356 -30.212  1.00  0.00    -0.004 A 
HETATM   12  C   UNL     1      -6.956   5.040 -28.818  1.00  0.00     0.072 A 
HETATM   13  C   UNL     1      -9.374   3.387 -31.046  1.00  0.00     0.027 A 
HETATM   14  C   UNL     1      -9.497   5.545 -29.913  1.00  0.00     0.053 A 
HETATM   15  C   UNL     1      -8.896   6.438 -29.060  1.00  0.00     0.106 A 
HETATM   16  C   UNL     1      -7.657   6.193 -28.527  1.00  0.00     0.107 A 
HETATM   17  O   UNL     1      -9.423   7.617 -28.641  1.00  0.00    -0.323 OA
HETATM   18  O   UNL     1      -7.245   7.191 -27.701  1.00  0.00    -0.323 OA
HETATM   19  C   UNL     1      -8.385   8.077 -27.748  1.00  0.00     0.352 A 
BRANCH   8  20
HETATM   20  O   UNL     1      -6.745   0.869 -30.814  1.00  0.00    -0.344 OA
HETATM   21  H   UNL     1      -5.869   1.130 -31.142  1.00  0.00     0.219 HD
ENDBRANCH   8  20
ENDBRANCH   6   7
ENDBRANCH   3   6
BRANCH   3  22
HETATM   22  C   UNL     1     -10.157   1.786 -34.433  1.00  0.00     0.129 C 
BRANCH  22  23
HETATM   23  C   UNL     1     -11.600   1.283 -34.259  1.00  0.00     0.048 C 
BRANCH  23  24
HETATM   24  C   UNL     1     -12.631   2.100 -35.029  1.00  0.00     0.236 C 
BRANCH  24  25
HETATM   25  N   UNL     1     -13.807   2.485 -34.152  1.00  0.00    -0.067 N 
HETATM   26  H   UNL     1     -14.370   3.176 -34.660  1.00  0.00     0.280 HD
HETATM   27  C   UNL     1     -14.715   1.308 -33.792  1.00  0.00     0.261 C 
HETATM   28  C   UNL     1     -15.840   1.800 -32.871  1.00  0.00     0.195 C 
HETATM   29  O   UNL     1     -15.315   2.416 -31.689  1.00  0.00    -0.388 OA
HETATM   30  C   UNL     1     -14.506   3.554 -31.998  1.00  0.00     0.195 C 
HETATM   31  C   UNL     1     -13.311   3.156 -32.868  1.00  0.00     0.261 C 
ENDBRANCH  24  25
ENDBRANCH  23  24
ENDBRANCH  22  23
ENDBRANCH   3  22
BRANCH   1  32
HETATM   32  C   UNL     1      -6.653  -1.572 -33.748  1.00  0.00     0.036 A 
HETATM   33  C   UNL     1      -6.834  -2.717 -34.529  1.00  0.00     0.032 A 
HETATM   34  C   UNL     1      -5.750  -3.553 -34.815  1.00  0.00     0.044 A 
HETATM   35  C   UNL     1      -4.487  -3.238 -34.330  1.00  0.00     0.116 A 
HETATM   36  C   UNL     1      -4.286  -2.098 -33.564  1.00  0.00     0.044 A 
HETATM   37  F   UNL     1      -3.453  -4.042 -34.603  1.00  0.00    -0.206 F 
HETATM   38  C   UNL     1      -5.368  -1.262 -33.277  1.00  0.00     0.032 A 
ENDBRANCH   1  32
TORSDOF 8
ENDMDL
MODEL 9
REMARK VINA RESULT:      -9.1      3.308      8.281
REMARK  8 active torsions:
REMARK  status: ('A' for Active; 'I' for Inactive)
REMARK    1  A    between atoms: C_2  and  N_3 
REMARK       I    between atoms: N_3  and  C_4 
REMARK       I    between atoms: C_4  and  N_5 
REMARK    2  A    between atoms: N_5  and  C_6 
REMARK    3  A    between atoms: N_5  and  C_21 
REMARK    4  A    between atoms: C_6  and  C_7 
REMARK    5  A    between atoms: C_8  and  O_9 
REMARK    6  A    between atoms: C_21  and  C_22 
REMARK    7  A    between atoms: C_22  and  C_23 
REMARK    8  A    between atoms: C_23  and  N_24 
ROOT
HETATM    1  N   UNL     1      -3.467   4.487 -31.652  1.00  0.00    -0.309 N 
HETATM    2  C   UNL     1      -4.448   4.804 -32.559  1.00  0.00     0.323 C 
HETATM    3  N   UNL     1      -5.546   3.929 -32.583  1.00  0.00    -0.330 N 
HETATM    4  O   UNL     1      -4.422   5.772 -33.316  1.00  0.00    -0.247 OA
HETATM    5  H   UNL     1      -3.383   3.512 -31.404  1.00  0.00     0.170 HD
ENDROOT
BRANCH   3   6
HETATM    6  C   UNL     1      -5.728   2.851 -31.600  1.00  0.00     0.170 C 
BRANCH   6   7
HETATM    7  C   UNL     1      -5.301   1.476 -32.032  1.00  0.00     0.013 A 
HETATM    8  C   UNL     1      -4.000   0.997 -31.936  1.00  0.00     0.170 A 
HETATM    9  N   UNL     1      -3.603  -0.224 -32.337  1.00  0.00    -0.224 NA
HETATM   10  C   UNL     1      -4.494  -1.010 -32.967  1.00  0.00     0.072 A 
HETATM   11  C   UNL     1      -5.843  -0.608 -33.158  1.00  0.00    -0.004 A 
HETATM   12  C   UNL     1      -4.091  -2.242 -33.470  1.00  0.00     0.072 A 
HETATM   13  C   UNL     1      -6.230   0.642 -32.663  1.00  0.00     0.027 A 
HETATM   14  C   UNL     1      -6.759  -1.430 -33.839  1.00  0.00     0.053 A 
HETATM   15  C   UNL     1      -6.302  -2.629 -34.329  1.00  0.00     0.106 A 
HETATM   16  C   UNL     1      -5.003  -3.026 -34.149  1.00  0.00     0.107 A 
HETATM   17  O   UNL     1      -7.034  -3.532 -35.031  1.00  0.00    -0.323 OA
HETATM   18  O   UNL     1      -4.751  -4.235 -34.717  1.00  0.00    -0.323 OA
HETATM   19  C   UNL     1      -6.033  -4.536 -35.308  1.00  0.00     0.352 A 
BRANCH   8  20
HETATM   20  O   UNL     1      -2.997   1.738 -31.376  1.00  0.00    -0.344 OA
HETATM   21  H   UNL     1      -2.437   2.050 -32.106  1.00  0.00     0.219 HD
ENDBRANCH   8  20
ENDBRANCH   6   7
ENDBRANCH   3   6
BRANCH   3  22
HETATM   22  C   UNL     1      -6.270   3.837 -33.863  1.00  0.00     0.129 C 
BRANCH  22  23
HETATM   23  C   UNL     1      -7.789   4.065 -33.804  1.00  0.00     0.048 C 
BRANCH  23  24
HETATM   24  C   UNL     1      -8.604   2.777 -33.848  1.00  0.00     0.236 C 
BRANCH  24  25
HETATM   25  N   UNL     1      -9.858   2.938 -34.686  1.00  0.00    -0.067 N 
HETATM   26  H   UNL     1      -9.596   2.841 -35.674  1.00  0.00     0.280 HD
HETATM   27  C   UNL     1     -10.938   1.900 -34.380  1.00  0.00     0.261 C 
HETATM   28  C   UNL     1     -12.173   2.182 -35.248  1.00  0.00     0.195 C 
HETATM   29  O   UNL     1     -12.669   3.507 -35.033  1.00  0.00    -0.388 OA
HETATM   30  C   UNL     1     -11.694   4.500 -35.365  1.00  0.00     0.195 C 
HETATM   31  C   UNL     1     -10.439   4.344 -34.504  1.00  0.00     0.261 C 
ENDBRANCH  24  25
ENDBRANCH  23  24
ENDBRANCH  22  23
ENDBRANCH   3  22
BRANCH   1  32
HETATM   32  C   UNL     1      -2.334   5.262 -31.313  1.00  0.00     0.036 A 
HETATM   33  C   UNL     1      -1.054   5.034 -31.825  1.00  0.00     0.032 A 
HETATM   34  C   UNL     1       0.015   5.849 -31.438  1.00  0.00     0.044 A 
HETATM   35  C   UNL     1      -0.199   6.894 -30.549  1.00  0.00     0.116 A 
HETATM   36  C   UNL     1      -1.466   7.144 -30.040  1.00  0.00     0.044 A 
HETATM   37  F   UNL     1       0.827   7.670 -30.179  1.00  0.00    -0.206 F 
HETATM   38  C   UNL     1      -2.535   6.331 -30.426  1.00  0.00     0.032 A 
ENDBRANCH   1  32
TORSDOF 8
ENDMDL
MODEL 10
REMARK VINA RESULT:      -9.0      1.992      2.767
REMARK  8 active torsions:
REMARK  status: ('A' for Active; 'I' for Inactive)
REMARK    1  A    between atoms: C_2  and  N_3 
REMARK       I    between atoms: N_3  and  C_4 
REMARK       I    between atoms: C_4  and  N_5 
REMARK    2  A    between atoms: N_5  and  C_6 
REMARK    3  A    between atoms: N_5  and  C_21 
REMARK    4  A    between atoms: C_6  and  C_7 
REMARK    5  A    between atoms: C_8  and  O_9 
REMARK    6  A    between atoms: C_21  and  C_22 
REMARK    7  A    between atoms: C_22  and  C_23 
REMARK    8  A    between atoms: C_23  and  N_24 
ROOT
HETATM    1  N   UNL     1      -5.617  -0.197 -33.777  1.00  0.00    -0.309 N 
HETATM    2  C   UNL     1      -5.579   0.368 -32.525  1.00  0.00     0.323 C 
HETATM    3  N   UNL     1      -5.788   1.755 -32.487  1.00  0.00    -0.330 N 
HETATM    4  O   UNL     1      -5.383  -0.250 -31.480  1.00  0.00    -0.247 OA
HETATM    5  H   UNL     1      -5.369   0.406 -34.547  1.00  0.00     0.170 HD
ENDROOT
BRANCH   3   6
HETATM    6  C   UNL     1      -6.192   2.534 -33.667  1.00  0.00     0.170 C 
BRANCH   6   7
HETATM    7  C   UNL     1      -7.666   2.764 -33.842  1.00  0.00     0.013 A 
HETATM    8  C   UNL     1      -8.244   4.016 -34.017  1.00  0.00     0.170 A 
HETATM    9  N   UNL     1      -9.565   4.236 -34.154  1.00  0.00    -0.224 NA
HETATM   10  C   UNL     1     -10.403   3.194 -34.015  1.00  0.00     0.072 A 
HETATM   11  C   UNL     1      -9.927   1.874 -33.792  1.00  0.00    -0.004 A 
HETATM   12  C   UNL     1     -11.777   3.404 -34.066  1.00  0.00     0.072 A 
HETATM   13  C   UNL     1      -8.543   1.681 -33.726  1.00  0.00     0.027 A 
HETATM   14  C   UNL     1     -10.816   0.797 -33.625  1.00  0.00     0.053 A 
HETATM   15  C   UNL     1     -12.162   1.065 -33.668  1.00  0.00     0.106 A 
HETATM   16  C   UNL     1     -12.631   2.334 -33.883  1.00  0.00     0.107 A 
HETATM   17  O   UNL     1     -13.160   0.159 -33.501  1.00  0.00    -0.323 OA
HETATM   18  O   UNL     1     -13.990   2.389 -33.879  1.00  0.00    -0.323 OA
HETATM   19  C   UNL     1     -14.321   1.012 -33.599  1.00  0.00     0.352 A 
BRANCH   8  20
HETATM   20  O   UNL     1      -7.492   5.154 -34.104  1.00  0.00    -0.344 OA
HETATM   21  H   UNL     1      -7.203   5.369 -33.202  1.00  0.00     0.219 HD
ENDBRANCH   8  20
ENDBRANCH   6   7
ENDBRANCH   3   6
BRANCH   3  22
HETATM   22  C   UNL     1      -5.171   2.471 -31.356  1.00  0.00     0.129 C 
BRANCH  22  23
HETATM   23  C   UNL     1      -5.943   3.687 -30.817  1.00  0.00     0.048 C 
BRANCH  23  24
HETATM   24  C   UNL     1      -5.165   4.995 -30.908  1.00  0.00     0.236 C 
BRANCH  24  25
HETATM   25  N   UNL     1      -4.636   5.425 -29.553  1.00  0.00    -0.067 N 
HETATM   26  H   UNL     1      -3.933   4.740 -29.253  1.00  0.00     0.280 HD
HETATM   27  C   UNL     1      -3.977   6.805 -29.561  1.00  0.00     0.261 C 
HETATM   28  C   UNL     1      -3.520   7.157 -28.139  1.00  0.00     0.195 C 
HETATM   29  O   UNL     1      -4.616   7.125 -27.217  1.00  0.00    -0.388 OA
HETATM   30  C   UNL     1      -5.216   5.828 -27.150  1.00  0.00     0.195 C 
HETATM   31  C   UNL     1      -5.763   5.407 -28.516  1.00  0.00     0.261 C 
ENDBRANCH  24  25
ENDBRANCH  23  24
ENDBRANCH  22  23
ENDBRANCH   3  22
BRANCH   1  32
HETATM   32  C   UNL     1      -5.585  -1.573 -34.095  1.00  0.00     0.036 A 
HETATM   33  C   UNL     1      -6.690  -2.290 -34.564  1.00  0.00     0.032 A 
HETATM   34  C   UNL     1      -6.573  -3.652 -34.857  1.00  0.00     0.044 A 
HETATM   35  C   UNL     1      -5.352  -4.293 -34.689  1.00  0.00     0.116 A 
HETATM   36  C   UNL     1      -4.241  -3.595 -34.237  1.00  0.00     0.044 A 
HETATM   37  F   UNL     1      -5.245  -5.598 -34.968  1.00  0.00    -0.206 F 
HETATM   38  C   UNL     1      -4.356  -2.234 -33.945  1.00  0.00     0.032 A 
ENDBRANCH   1  32
TORSDOF 8
ENDMDL
