MODEL 1
REMARK VINA RESULT:      -9.1      0.000      0.000
REMARK  6 active torsions:
REMARK  status: ('A' for Active; 'I' for Inactive)
REMARK    1  A    between atoms: C_2  and  O_3 
REMARK    2  A    between atoms: C_2  and  C_4 
REMARK    3  A    between atoms: C_6  and  N_7 
REMARK       I    between atoms: N_7  and  C_8 
REMARK    4  A    between atoms: C_8  and  C_9 
REMARK    5  A    between atoms: C_14  and  C_15 
REMARK    6  A    between atoms: C_21  and  C_22 
ROOT
HETATM    1  C   UNL     1      -4.620   2.936 -31.663  1.00  0.00     0.148 A 
HETATM    2  N   UNL     1      -3.759   3.469 -32.559  1.00  0.00    -0.165 NA
HETATM    3  N   UNL     1      -3.494   4.690 -32.058  1.00  0.00    -0.240 N 
HETATM    4  C   UNL     1      -4.088   4.926 -30.846  1.00  0.00     0.123 A 
HETATM    5  N   UNL     1      -3.915   6.092 -30.188  1.00  0.00    -0.364 N 
HETATM    6  C   UNL     1      -2.948   7.091 -30.642  1.00  0.00     0.143 C 
HETATM    7  C   UNL     1      -2.840   7.048 -32.175  1.00  0.00     0.068 C 
HETATM    8  C   UNL     1      -2.573   5.620 -32.692  1.00  0.00     0.221 C 
HETATM    9  C   UNL     1      -4.823   3.807 -30.560  1.00  0.00     0.089 A 
HETATM   10  H   UNL     1      -4.213   6.190 -29.218  1.00  0.00     0.162 HD
ENDROOT
BRANCH   1  11
HETATM   11  C   UNL     1      -5.255   1.620 -31.872  1.00  0.00     0.276 C 
HETATM   12  N   UNL     1      -4.745   0.971 -32.979  1.00  0.00    -0.322 N 
HETATM   13  H   UNL     1      -3.994   1.482 -33.439  1.00  0.00     0.169 HD
HETATM   14  O   UNL     1      -6.139   1.216 -31.126  1.00  0.00    -0.266 OA
BRANCH  12  15
HETATM   15  C   UNL     1      -5.156  -0.249 -33.544  1.00  0.00     0.035 A 
HETATM   16  C   UNL     1      -4.374  -1.408 -33.545  1.00  0.00     0.039 A 
HETATM   17  C   UNL     1      -4.852  -2.606 -34.105  1.00  0.00    -0.028 A 
HETATM   18  C   UNL     1      -6.129  -2.622 -34.682  1.00  0.00     0.010 A 
HETATM   19  C   UNL     1      -6.916  -1.472 -34.686  1.00  0.00     0.003 A 
HETATM   20  C   UNL     1      -6.432  -0.294 -34.116  1.00  0.00     0.029 A 
BRANCH  17  21
HETATM   21  C   UNL     1      -3.981  -3.845 -34.090  1.00  0.00     0.147 C 
HETATM   22  C   UNL     1      -4.777  -5.112 -34.366  1.00  0.00     0.044 C 
BRANCH  21  23
HETATM   23  O   UNL     1      -3.331  -3.975 -32.826  1.00  0.00    -0.391 OA
HETATM   24  H   UNL     1      -2.989  -4.885 -32.781  1.00  0.00     0.210 HD
ENDBRANCH  21  23
ENDBRANCH  17  21
ENDBRANCH  12  15
ENDBRANCH   1  11
BRANCH   8  25
HETATM   25  C   UNL     1      -2.678   5.595 -34.201  1.00  0.00     0.409 C 
HETATM   26  F   UNL     1      -2.021   4.558 -34.764  1.00  0.00    -0.169 F 
HETATM   27  F   UNL     1      -3.959   5.571 -34.632  1.00  0.00    -0.169 F 
HETATM   28  F   UNL     1      -2.117   6.721 -34.718  1.00  0.00    -0.169 F 
ENDBRANCH   8  25
BRANCH   6  29
HETATM   29  C   UNL     1      -1.600   7.003 -29.997  1.00  0.00     0.075 A 
HETATM   30  O   UNL     1      -1.594   6.771 -28.651  1.00  0.00    -0.325 OA
HETATM   31  C   UNL     1      -0.296   6.710 -28.262  1.00  0.00     0.142 A 
HETATM   32  C   UNL     1       0.538   6.909 -29.337  1.00  0.00     0.027 A 
HETATM   33  C   UNL     1      -0.303   7.098 -30.460  1.00  0.00     0.037 A 
ENDBRANCH   6  29
TORSDOF 6
ENDMDL
MODEL 2
REMARK VINA RESULT:      -8.9      3.984      8.935
REMARK  6 active torsions:
REMARK  status: ('A' for Active; 'I' for Inactive)
REMARK    1  A    between atoms: C_2  and  O_3 
REMARK    2  A    between atoms: C_2  and  C_4 
REMARK    3  A    between atoms: C_6  and  N_7 
REMARK       I    between atoms: N_7  and  C_8 
REMARK    4  A    between atoms: C_8  and  C_9 
REMARK    5  A    between atoms: C_14  and  C_15 
REMARK    6  A    between atoms: C_21  and  C_22 
ROOT
HETATM    1  C   UNL     1      -6.717   3.465 -32.739  1.00  0.00     0.148 A 
HETATM    2  N   UNL     1      -6.750   2.570 -33.753  1.00  0.00    -0.165 NA
HETATM    3  N   UNL     1      -7.785   1.769 -33.438  1.00  0.00    -0.240 N 
HETATM    4  C   UNL     1      -8.457   2.161 -32.309  1.00  0.00     0.123 A 
HETATM    5  N   UNL     1      -9.534   1.484 -31.857  1.00  0.00    -0.364 N 
HETATM    6  C   UNL     1     -10.147   0.410 -32.638  1.00  0.00     0.143 C 
HETATM    7  C   UNL     1      -9.067  -0.317 -33.454  1.00  0.00     0.068 C 
HETATM    8  C   UNL     1      -8.212   0.665 -34.280  1.00  0.00     0.221 C 
HETATM    9  C   UNL     1      -7.792   3.259 -31.834  1.00  0.00     0.089 A 
HETATM   10  H   UNL     1     -10.126   1.879 -31.128  1.00  0.00     0.162 HD
ENDROOT
BRANCH   1  11
HETATM   11  C   UNL     1      -5.659   4.487 -32.629  1.00  0.00     0.276 C 
HETATM   12  N   UNL     1      -4.466   4.057 -33.177  1.00  0.00    -0.322 N 
HETATM   13  H   UNL     1      -4.524   3.134 -33.601  1.00  0.00     0.169 HD
HETATM   14  O   UNL     1      -5.871   5.565 -32.085  1.00  0.00    -0.266 OA
BRANCH  12  15
HETATM   15  C   UNL     1      -3.221   4.709 -33.182  1.00  0.00     0.035 A 
HETATM   16  C   UNL     1      -2.368   4.764 -32.076  1.00  0.00     0.039 A 
HETATM   17  C   UNL     1      -1.122   5.411 -32.150  1.00  0.00    -0.028 A 
HETATM   18  C   UNL     1      -0.747   6.023 -33.354  1.00  0.00     0.010 A 
HETATM   19  C   UNL     1      -1.591   5.974 -34.462  1.00  0.00     0.003 A 
HETATM   20  C   UNL     1      -2.819   5.318 -34.376  1.00  0.00     0.029 A 
BRANCH  17  21
HETATM   21  C   UNL     1      -0.220   5.453 -30.935  1.00  0.00     0.147 C 
HETATM   22  C   UNL     1       0.346   6.843 -30.684  1.00  0.00     0.044 C 
BRANCH  21  23
HETATM   23  O   UNL     1       0.864   4.537 -31.095  1.00  0.00    -0.391 OA
HETATM   24  H   UNL     1       0.469   3.657 -31.220  1.00  0.00     0.210 HD
ENDBRANCH  21  23
ENDBRANCH  17  21
ENDBRANCH  12  15
ENDBRANCH   1  11
BRANCH   8  25
HETATM   25  C   UNL     1      -7.045  -0.071 -34.901  1.00  0.00     0.409 C 
HETATM   26  F   UNL     1      -5.919  -0.007 -34.159  1.00  0.00    -0.169 F 
HETATM   27  F   UNL     1      -7.321  -1.372 -35.143  1.00  0.00    -0.169 F 
HETATM   28  F   UNL     1      -6.736   0.489 -36.101  1.00  0.00    -0.169 F 
ENDBRANCH   8  25
BRANCH   6  29
HETATM   29  C   UNL     1     -11.292   0.835 -33.503  1.00  0.00     0.075 A 
HETATM   30  O   UNL     1     -12.409   0.050 -33.446  1.00  0.00    -0.325 OA
HETATM   31  C   UNL     1     -13.328   0.603 -34.278  1.00  0.00     0.142 A 
HETATM   32  C   UNL     1     -12.817   1.728 -34.879  1.00  0.00     0.027 A 
HETATM   33  C   UNL     1     -11.501   1.881 -34.380  1.00  0.00     0.037 A 
ENDBRANCH   6  29
TORSDOF 6
ENDMDL
MODEL 3
REMARK VINA RESULT:      -8.7      1.768      2.184
REMARK  6 active torsions:
REMARK  status: ('A' for Active; 'I' for Inactive)
REMARK    1  A    between atoms: C_2  and  O_3 
REMARK    2  A    between atoms: C_2  and  C_4 
REMARK    3  A    between atoms: C_6  and  N_7 
REMARK       I    between atoms: N_7  and  C_8 
REMARK    4  A    between atoms: C_8  and  C_9 
REMARK    5  A    between atoms: C_14  and  C_15 
REMARK    6  A    between atoms: C_21  and  C_22 
ROOT
HETATM    1  C   UNL     1      -3.588   2.715 -31.571  1.00  0.00     0.148 A 
HETATM    2  N   UNL     1      -2.419   3.393 -31.529  1.00  0.00    -0.165 NA
HETATM    3  N   UNL     1      -2.792   4.656 -31.251  1.00  0.00    -0.240 N 
HETATM    4  C   UNL     1      -4.139   4.795 -31.039  1.00  0.00     0.123 A 
HETATM    5  N   UNL     1      -4.687   5.989 -30.728  1.00  0.00    -0.364 N 
HETATM    6  C   UNL     1      -3.858   7.156 -30.427  1.00  0.00     0.143 C 
HETATM    7  C   UNL     1      -2.559   7.094 -31.246  1.00  0.00     0.068 C 
HETATM    8  C   UNL     1      -1.840   5.741 -31.080  1.00  0.00     0.221 C 
HETATM    9  C   UNL     1      -4.684   3.555 -31.235  1.00  0.00     0.089 A 
HETATM   10  H   UNL     1      -5.651   6.049 -30.402  1.00  0.00     0.162 HD
ENDROOT
BRANCH   1  11
HETATM   11  C   UNL     1      -3.656   1.290 -31.948  1.00  0.00     0.276 C 
HETATM   12  N   UNL     1      -4.634   1.052 -32.895  1.00  0.00    -0.322 N 
HETATM   13  H   UNL     1      -5.111   1.896 -33.205  1.00  0.00     0.169 HD
HETATM   14  O   UNL     1      -2.918   0.460 -31.430  1.00  0.00    -0.266 OA
BRANCH  12  15
HETATM   15  C   UNL     1      -5.053  -0.179 -33.428  1.00  0.00     0.035 A 
HETATM   16  C   UNL     1      -4.269  -1.336 -33.421  1.00  0.00     0.039 A 
HETATM   17  C   UNL     1      -4.754  -2.546 -33.949  1.00  0.00    -0.028 A 
HETATM   18  C   UNL     1      -6.041  -2.575 -34.504  1.00  0.00     0.010 A 
HETATM   19  C   UNL     1      -6.830  -1.426 -34.515  1.00  0.00     0.003 A 
HETATM   20  C   UNL     1      -6.338  -0.236 -33.977  1.00  0.00     0.029 A 
BRANCH  17  21
HETATM   21  C   UNL     1      -3.882  -3.783 -33.926  1.00  0.00     0.147 C 
HETATM   22  C   UNL     1      -4.668  -5.048 -34.235  1.00  0.00     0.044 C 
BRANCH  21  23
HETATM   23  O   UNL     1      -3.263  -3.926 -32.647  1.00  0.00    -0.391 OA
HETATM   24  H   UNL     1      -2.569  -3.246 -32.596  1.00  0.00     0.210 HD
ENDBRANCH  21  23
ENDBRANCH  17  21
ENDBRANCH  12  15
ENDBRANCH   1  11
BRANCH   8  25
HETATM   25  C   UNL     1      -0.687   5.652 -32.054  1.00  0.00     0.409 C 
HETATM   26  F   UNL     1      -0.147   6.854 -32.354  1.00  0.00    -0.169 F 
HETATM   27  F   UNL     1       0.302   4.841 -31.616  1.00  0.00    -0.169 F 
HETATM   28  F   UNL     1      -1.121   5.131 -33.233  1.00  0.00    -0.169 F 
ENDBRANCH   8  25
BRANCH   6  29
HETATM   29  C   UNL     1      -3.578   7.371 -28.973  1.00  0.00     0.075 A 
HETATM   30  O   UNL     1      -2.547   8.218 -28.680  1.00  0.00    -0.325 OA
HETATM   31  C   UNL     1      -2.462   8.293 -27.328  1.00  0.00     0.142 A 
HETATM   32  C   UNL     1      -3.419   7.498 -26.742  1.00  0.00     0.027 A 
HETATM   33  C   UNL     1      -4.141   6.901 -27.803  1.00  0.00     0.037 A 
ENDBRANCH   6  29
TORSDOF 6
ENDMDL
MODEL 4
REMARK VINA RESULT:      -8.4      6.487      8.130
REMARK  6 active torsions:
REMARK  status: ('A' for Active; 'I' for Inactive)
REMARK    1  A    between atoms: C_2  and  O_3 
REMARK    2  A    between atoms: C_2  and  C_4 
REMARK    3  A    between atoms: C_6  and  N_7 
REMARK       I    between atoms: N_7  and  C_8 
REMARK    4  A    between atoms: C_8  and  C_9 
REMARK    5  A    between atoms: C_14  and  C_15 
REMARK    6  A    between atoms: C_21  and  C_22 
ROOT
HETATM    1  C   UNL     1      -8.869   1.806 -33.461  1.00  0.00     0.148 A 
HETATM    2  N   UNL     1      -9.992   1.749 -34.212  1.00  0.00    -0.165 NA
HETATM    3  N   UNL     1     -10.913   2.377 -33.458  1.00  0.00    -0.240 N 
HETATM    4  C   UNL     1     -10.406   2.897 -32.295  1.00  0.00     0.123 A 
HETATM    5  N   UNL     1     -11.184   3.578 -31.426  1.00  0.00    -0.364 N 
HETATM    6  C   UNL     1     -12.558   3.950 -31.759  1.00  0.00     0.143 C 
HETATM    7  C   UNL     1     -13.178   2.880 -32.672  1.00  0.00     0.068 C 
HETATM    8  C   UNL     1     -12.285   2.581 -33.893  1.00  0.00     0.221 C 
HETATM    9  C   UNL     1      -9.083   2.547 -32.269  1.00  0.00     0.089 A 
HETATM   10  H   UNL     1     -10.767   4.106 -30.660  1.00  0.00     0.162 HD
ENDROOT
BRANCH   1  11
HETATM   11  C   UNL     1      -7.617   1.142 -33.871  1.00  0.00     0.276 C 
HETATM   12  N   UNL     1      -7.520  -0.139 -33.362  1.00  0.00    -0.322 N 
HETATM   13  H   UNL     1      -8.339  -0.425 -32.830  1.00  0.00     0.169 HD
HETATM   14  O   UNL     1      -6.789   1.720 -34.566  1.00  0.00    -0.266 OA
BRANCH  12  15
HETATM   15  C   UNL     1      -6.445  -1.039 -33.459  1.00  0.00     0.035 A 
HETATM   16  C   UNL     1      -6.474  -2.203 -34.232  1.00  0.00     0.039 A 
HETATM   17  C   UNL     1      -5.356  -3.053 -34.308  1.00  0.00    -0.028 A 
HETATM   18  C   UNL     1      -4.206  -2.725 -33.578  1.00  0.00     0.010 A 
HETATM   19  C   UNL     1      -4.168  -1.567 -32.804  1.00  0.00     0.003 A 
HETATM   20  C   UNL     1      -5.281  -0.728 -32.748  1.00  0.00     0.029 A 
BRANCH  17  21
HETATM   21  C   UNL     1      -5.417  -4.306 -35.156  1.00  0.00     0.147 C 
HETATM   22  C   UNL     1      -6.839  -4.652 -35.571  1.00  0.00     0.044 C 
BRANCH  21  23
HETATM   23  O   UNL     1      -4.864  -5.411 -34.441  1.00  0.00    -0.391 OA
HETATM   24  H   UNL     1      -4.055  -5.087 -34.010  1.00  0.00     0.210 HD
ENDBRANCH  21  23
ENDBRANCH  17  21
ENDBRANCH  12  15
ENDBRANCH   1  11
BRANCH   8  25
HETATM   25  C   UNL     1     -12.832   1.389 -34.647  1.00  0.00     0.409 C 
HETATM   26  F   UNL     1     -12.350   1.285 -35.904  1.00  0.00    -0.169 F 
HETATM   27  F   UNL     1     -12.602   0.220 -34.007  1.00  0.00    -0.169 F 
HETATM   28  F   UNL     1     -14.181   1.504 -34.770  1.00  0.00    -0.169 F 
ENDBRANCH   8  25
BRANCH   6  29
HETATM   29  C   UNL     1     -12.718   5.321 -32.336  1.00  0.00     0.075 A 
HETATM   30  O   UNL     1     -11.573   6.055 -32.463  1.00  0.00    -0.325 OA
HETATM   31  C   UNL     1     -11.920   7.246 -33.013  1.00  0.00     0.142 A 
HETATM   32  C   UNL     1     -13.276   7.296 -33.233  1.00  0.00     0.027 A 
HETATM   33  C   UNL     1     -13.794   6.053 -32.797  1.00  0.00     0.037 A 
ENDBRANCH   6  29
TORSDOF 6
ENDMDL
MODEL 5
REMARK VINA RESULT:      -8.3      5.839      8.297
REMARK  6 active torsions:
REMARK  status: ('A' for Active; 'I' for Inactive)
REMARK    1  A    between atoms: C_2  and  O_3 
REMARK    2  A    between atoms: C_2  and  C_4 
REMARK    3  A    between atoms: C_6  and  N_7 
REMARK       I    between atoms: N_7  and  C_8 
REMARK    4  A    between atoms: C_8  and  C_9 
REMARK    5  A    between atoms: C_14  and  C_15 
REMARK    6  A    between atoms: C_21  and  C_22 
ROOT
HETATM    1  C   UNL     1      -8.936   1.209 -32.511  1.00  0.00     0.148 A 
HETATM    2  N   UNL     1      -9.286   2.234 -31.701  1.00  0.00    -0.165 NA
HETATM    3  N   UNL     1     -10.315   2.813 -32.347  1.00  0.00    -0.240 N 
HETATM    4  C   UNL     1     -10.683   2.156 -33.492  1.00  0.00     0.123 A 
HETATM    5  N   UNL     1     -11.711   2.585 -34.255  1.00  0.00    -0.364 N 
HETATM    6  C   UNL     1     -12.594   3.664 -33.813  1.00  0.00     0.143 C 
HETATM    7  C   UNL     1     -11.802   4.662 -32.954  1.00  0.00     0.068 C 
HETATM    8  C   UNL     1     -11.035   3.959 -31.816  1.00  0.00     0.221 C 
HETATM    9  C   UNL     1      -9.812   1.109 -33.624  1.00  0.00     0.089 A 
HETATM   10  H   UNL     1     -12.086   1.998 -34.999  1.00  0.00     0.162 HD
ENDROOT
BRANCH   1  11
HETATM   11  C   UNL     1      -7.769   0.351 -32.231  1.00  0.00     0.276 C 
HETATM   12  N   UNL     1      -7.210  -0.155 -33.389  1.00  0.00    -0.322 N 
HETATM   13  H   UNL     1      -7.664   0.178 -34.236  1.00  0.00     0.169 HD
HETATM   14  O   UNL     1      -7.400   0.135 -31.082  1.00  0.00    -0.266 OA
BRANCH  12  15
HETATM   15  C   UNL     1      -6.152  -1.071 -33.521  1.00  0.00     0.035 A 
HETATM   16  C   UNL     1      -6.250  -2.275 -34.224  1.00  0.00     0.039 A 
HETATM   17  C   UNL     1      -5.148  -3.140 -34.342  1.00  0.00    -0.028 A 
HETATM   18  C   UNL     1      -3.940  -2.785 -33.725  1.00  0.00     0.010 A 
HETATM   19  C   UNL     1      -3.832  -1.587 -33.022  1.00  0.00     0.003 A 
HETATM   20  C   UNL     1      -4.932  -0.734 -32.924  1.00  0.00     0.029 A 
BRANCH  17  21
HETATM   21  C   UNL     1      -5.285  -4.437 -35.111  1.00  0.00     0.147 C 
HETATM   22  C   UNL     1      -6.723  -4.715 -35.521  1.00  0.00     0.044 C 
BRANCH  21  23
HETATM   23  O   UNL     1      -4.812  -5.529 -34.322  1.00  0.00    -0.391 OA
HETATM   24  H   UNL     1      -5.588  -6.073 -34.105  1.00  0.00     0.210 HD
ENDBRANCH  21  23
ENDBRANCH  17  21
ENDBRANCH  12  15
ENDBRANCH   1  11
BRANCH   8  25
HETATM   25  C   UNL     1     -10.118   4.947 -31.131  1.00  0.00     0.409 C 
HETATM   26  F   UNL     1      -9.802   4.594 -29.866  1.00  0.00    -0.169 F 
HETATM   27  F   UNL     1      -8.970   5.151 -31.814  1.00  0.00    -0.169 F 
HETATM   28  F   UNL     1     -10.734   6.157 -31.040  1.00  0.00    -0.169 F 
ENDBRANCH   8  25
BRANCH   6  29
HETATM   29  C   UNL     1     -13.840   3.212 -33.118  1.00  0.00     0.075 A 
HETATM   30  O   UNL     1     -14.264   1.947 -33.409  1.00  0.00    -0.325 OA
HETATM   31  C   UNL     1     -15.385   1.722 -32.677  1.00  0.00     0.142 A 
HETATM   32  C   UNL     1     -15.697   2.830 -31.925  1.00  0.00     0.027 A 
HETATM   33  C   UNL     1     -14.700   3.794 -32.208  1.00  0.00     0.037 A 
ENDBRANCH   6  29
TORSDOF 6
ENDMDL
MODEL 6
REMARK VINA RESULT:      -8.3      2.243      3.136
REMARK  6 active torsions:
REMARK  status: ('A' for Active; 'I' for Inactive)
REMARK    1  A    between atoms: C_2  and  O_3 
REMARK    2  A    between atoms: C_2  and  C_4 
REMARK    3  A    between atoms: C_6  and  N_7 
REMARK       I    between atoms: N_7  and  C_8 
REMARK    4  A    between atoms: C_8  and  C_9 
REMARK    5  A    between atoms: C_14  and  C_15 
REMARK    6  A    between atoms: C_21  and  C_22 
ROOT
HETATM    1  C   UNL     1      -3.692   4.377 -31.597  1.00  0.00     0.148 A 
HETATM    2  N   UNL     1      -2.369   4.603 -31.425  1.00  0.00    -0.165 NA
HETATM    3  N   UNL     1      -2.328   5.781 -30.778  1.00  0.00    -0.240 N 
HETATM    4  C   UNL     1      -3.566   6.277 -30.463  1.00  0.00     0.123 A 
HETATM    5  N   UNL     1      -3.714   7.441 -29.794  1.00  0.00    -0.364 N 
HETATM    6  C   UNL     1      -2.567   8.143 -29.217  1.00  0.00     0.143 C 
HETATM    7  C   UNL     1      -1.324   7.907 -30.089  1.00  0.00     0.068 C 
HETATM    8  C   UNL     1      -1.085   6.407 -30.356  1.00  0.00     0.221 C 
HETATM    9  C   UNL     1      -4.472   5.389 -30.976  1.00  0.00     0.089 A 
HETATM   10  H   UNL     1      -4.620   7.710 -29.414  1.00  0.00     0.162 HD
ENDROOT
BRANCH   1  11
HETATM   11  C   UNL     1      -4.198   3.221 -32.361  1.00  0.00     0.276 C 
HETATM   12  N   UNL     1      -3.889   2.022 -31.748  1.00  0.00    -0.322 N 
HETATM   13  H   UNL     1      -3.406   2.133 -30.860  1.00  0.00     0.169 HD
HETATM   14  O   UNL     1      -4.799   3.372 -33.418  1.00  0.00    -0.266 OA
BRANCH  12  15
HETATM   15  C   UNL     1      -4.123   0.716 -32.214  1.00  0.00     0.035 A 
HETATM   16  C   UNL     1      -5.265   0.338 -32.926  1.00  0.00     0.039 A 
HETATM   17  C   UNL     1      -5.430  -0.980 -33.387  1.00  0.00    -0.028 A 
HETATM   18  C   UNL     1      -4.433  -1.925 -33.109  1.00  0.00     0.010 A 
HETATM   19  C   UNL     1      -3.291  -1.557 -32.400  1.00  0.00     0.003 A 
HETATM   20  C   UNL     1      -3.136  -0.242 -31.959  1.00  0.00     0.029 A 
BRANCH  17  21
HETATM   21  C   UNL     1      -6.678  -1.360 -34.156  1.00  0.00     0.147 C 
HETATM   22  C   UNL     1      -6.657  -2.812 -34.607  1.00  0.00     0.044 C 
BRANCH  21  23
HETATM   23  O   UNL     1      -6.823  -0.523 -35.303  1.00  0.00    -0.391 OA
HETATM   24  H   UNL     1      -7.506  -0.932 -35.863  1.00  0.00     0.210 HD
ENDBRANCH  21  23
ENDBRANCH  17  21
ENDBRANCH  12  15
ENDBRANCH   1  11
BRANCH   8  25
HETATM   25  C   UNL     1       0.019   6.238 -31.375  1.00  0.00     0.409 C 
HETATM   26  F   UNL     1       0.620   5.030 -31.316  1.00  0.00    -0.169 F 
HETATM   27  F   UNL     1      -0.409   6.437 -32.642  1.00  0.00    -0.169 F 
HETATM   28  F   UNL     1       0.997   7.156 -31.148  1.00  0.00    -0.169 F 
ENDBRANCH   8  25
BRANCH   6  29
HETATM   29  C   UNL     1      -2.295   7.829 -27.780  1.00  0.00     0.075 A 
HETATM   30  O   UNL     1      -1.167   8.386 -27.248  1.00  0.00    -0.325 OA
HETATM   31  C   UNL     1      -1.106   8.000 -25.948  1.00  0.00     0.142 A 
HETATM   32  C   UNL     1      -2.174   7.194 -25.635  1.00  0.00     0.027 A 
HETATM   33  C   UNL     1      -2.945   7.081 -26.817  1.00  0.00     0.037 A 
ENDBRANCH   6  29
TORSDOF 6
ENDMDL
MODEL 7
REMARK VINA RESULT:      -8.2      1.443      2.168
REMARK  6 active torsions:
REMARK  status: ('A' for Active; 'I' for Inactive)
REMARK    1  A    between atoms: C_2  and  O_3 
REMARK    2  A    between atoms: C_2  and  C_4 
REMARK    3  A    between atoms: C_6  and  N_7 
REMARK       I    between atoms: N_7  and  C_8 
REMARK    4  A    between atoms: C_8  and  C_9 
REMARK    5  A    between atoms: C_14  and  C_15 
REMARK    6  A    between atoms: C_21  and  C_22 
ROOT
HETATM    1  C   UNL     1      -4.497   2.364 -31.167  1.00  0.00     0.148 A 
HETATM    2  N   UNL     1      -3.725   2.986 -32.086  1.00  0.00    -0.165 NA
HETATM    3  N   UNL     1      -3.945   4.294 -31.856  1.00  0.00    -0.240 N 
HETATM    4  C   UNL     1      -4.764   4.531 -30.783  1.00  0.00     0.123 A 
HETATM    5  N   UNL     1      -5.077   5.786 -30.395  1.00  0.00    -0.364 N 
HETATM    6  C   UNL     1      -4.423   6.954 -30.983  1.00  0.00     0.143 C 
HETATM    7  C   UNL     1      -4.072   6.666 -32.452  1.00  0.00     0.068 C 
HETATM    8  C   UNL     1      -3.285   5.349 -32.607  1.00  0.00     0.221 C 
HETATM    9  C   UNL     1      -5.136   3.301 -30.312  1.00  0.00     0.089 A 
HETATM   10  H   UNL     1      -5.537   5.953 -29.501  1.00  0.00     0.162 HD
ENDROOT
BRANCH   1  11
HETATM   11  C   UNL     1      -4.637   0.896 -31.123  1.00  0.00     0.276 C 
HETATM   12  N   UNL     1      -3.900   0.277 -32.114  1.00  0.00    -0.322 N 
HETATM   13  H   UNL     1      -3.355   0.925 -32.678  1.00  0.00     0.169 HD
HETATM   14  O   UNL     1      -5.353   0.351 -30.291  1.00  0.00    -0.266 OA
BRANCH  12  15
HETATM   15  C   UNL     1      -3.851  -1.089 -32.443  1.00  0.00     0.035 A 
HETATM   16  C   UNL     1      -4.613  -1.671 -33.460  1.00  0.00     0.039 A 
HETATM   17  C   UNL     1      -4.502  -3.040 -33.758  1.00  0.00    -0.028 A 
HETATM   18  C   UNL     1      -3.621  -3.828 -33.005  1.00  0.00     0.010 A 
HETATM   19  C   UNL     1      -2.857  -3.257 -31.989  1.00  0.00     0.003 A 
HETATM   20  C   UNL     1      -2.970  -1.893 -31.713  1.00  0.00     0.029 A 
BRANCH  17  21
HETATM   21  C   UNL     1      -5.340  -3.642 -34.866  1.00  0.00     0.147 C 
HETATM   22  C   UNL     1      -6.795  -3.203 -34.792  1.00  0.00     0.044 C 
BRANCH  21  23
HETATM   23  O   UNL     1      -5.285  -5.068 -34.806  1.00  0.00    -0.391 OA
HETATM   24  H   UNL     1      -4.478  -5.295 -34.314  1.00  0.00     0.210 HD
ENDBRANCH  21  23
ENDBRANCH  17  21
ENDBRANCH  12  15
ENDBRANCH   1  11
BRANCH   8  25
HETATM   25  C   UNL     1      -3.142   5.009 -34.073  1.00  0.00     0.409 C 
HETATM   26  F   UNL     1      -4.241   4.424 -34.596  1.00  0.00    -0.169 F 
HETATM   27  F   UNL     1      -2.835   6.088 -34.829  1.00  0.00    -0.169 F 
HETATM   28  F   UNL     1      -2.127   4.118 -34.241  1.00  0.00    -0.169 F 
ENDBRANCH   8  25
BRANCH   6  29
HETATM   29  C   UNL     1      -3.235   7.459 -30.226  1.00  0.00     0.075 A 
HETATM   30  O   UNL     1      -2.998   8.802 -30.308  1.00  0.00    -0.325 OA
HETATM   31  C   UNL     1      -1.902   9.062 -29.551  1.00  0.00     0.142 A 
HETATM   32  C   UNL     1      -1.421   7.903 -28.989  1.00  0.00     0.027 A 
HETATM   33  C   UNL     1      -2.281   6.865 -29.424  1.00  0.00     0.037 A 
ENDBRANCH   6  29
TORSDOF 6
ENDMDL
MODEL 8
REMARK VINA RESULT:      -8.1      5.983      8.400
REMARK  6 active torsions:
REMARK  status: ('A' for Active; 'I' for Inactive)
REMARK    1  A    between atoms: C_2  and  O_3 
REMARK    2  A    between atoms: C_2  and  C_4 
REMARK    3  A    between atoms: C_6  and  N_7 
REMARK       I    between atoms: N_7  and  C_8 
REMARK    4  A    between atoms: C_8  and  C_9 
REMARK    5  A    between atoms: C_14  and  C_15 
REMARK    6  A    between atoms: C_21  and  C_22 
ROOT
HETATM    1  C   UNL     1      -9.104   1.256 -32.603  1.00  0.00     0.148 A 
HETATM    2  N   UNL     1      -9.441   2.247 -31.746  1.00  0.00    -0.165 NA
HETATM    3  N   UNL     1     -10.472   2.859 -32.356  1.00  0.00    -0.240 N 
HETATM    4  C   UNL     1     -10.855   2.255 -33.525  1.00  0.00     0.123 A 
HETATM    5  N   UNL     1     -11.886   2.724 -34.260  1.00  0.00    -0.364 N 
HETATM    6  C   UNL     1     -12.760   3.786 -33.762  1.00  0.00     0.143 C 
HETATM    7  C   UNL     1     -11.955   4.741 -32.866  1.00  0.00     0.068 C 
HETATM    8  C   UNL     1     -11.181   3.984 -31.768  1.00  0.00     0.221 C 
HETATM    9  C   UNL     1      -9.990   1.211 -33.712  1.00  0.00     0.089 A 
HETATM   10  H   UNL     1     -12.271   2.172 -35.025  1.00  0.00     0.162 HD
ENDROOT
BRANCH   1  11
HETATM   11  C   UNL     1      -7.939   0.381 -32.372  1.00  0.00     0.276 C 
HETATM   12  N   UNL     1      -7.464  -0.167 -33.548  1.00  0.00    -0.322 N 
HETATM   13  H   UNL     1      -7.963   0.153 -34.375  1.00  0.00     0.169 HD
HETATM   14  O   UNL     1      -7.504   0.188 -31.243  1.00  0.00    -0.266 OA
BRANCH  12  15
HETATM   15  C   UNL     1      -6.436  -1.110 -33.720  1.00  0.00     0.035 A 
HETATM   16  C   UNL     1      -5.279  -1.150 -32.936  1.00  0.00     0.039 A 
HETATM   17  C   UNL     1      -4.296  -2.134 -33.142  1.00  0.00    -0.028 A 
HETATM   18  C   UNL     1      -4.483  -3.075 -34.164  1.00  0.00     0.010 A 
HETATM   19  C   UNL     1      -5.633  -3.043 -34.951  1.00  0.00     0.003 A 
HETATM   20  C   UNL     1      -6.605  -2.067 -34.727  1.00  0.00     0.029 A 
BRANCH  17  21
HETATM   21  C   UNL     1      -3.054  -2.153 -32.276  1.00  0.00     0.147 C 
HETATM   22  C   UNL     1      -2.840  -3.500 -31.604  1.00  0.00     0.044 C 
BRANCH  21  23
HETATM   23  O   UNL     1      -3.141  -1.144 -31.269  1.00  0.00    -0.391 OA
HETATM   24  H   UNL     1      -2.659  -1.481 -30.494  1.00  0.00     0.210 HD
ENDBRANCH  21  23
ENDBRANCH  17  21
ENDBRANCH  12  15
ENDBRANCH   1  11
BRANCH   8  25
HETATM   25  C   UNL     1     -10.253   4.936 -31.048  1.00  0.00     0.409 C 
HETATM   26  F   UNL     1     -10.803   6.149 -30.821  1.00  0.00    -0.169 F 
HETATM   27  F   UNL     1      -9.815   4.441 -29.868  1.00  0.00    -0.169 F 
HETATM   28  F   UNL     1      -9.147   5.162 -31.808  1.00  0.00    -0.169 F 
ENDBRANCH   8  25
BRANCH   6  29
HETATM   29  C   UNL     1     -14.002   3.311 -33.076  1.00  0.00     0.075 A 
HETATM   30  O   UNL     1     -14.403   2.040 -33.375  1.00  0.00    -0.325 OA
HETATM   31  C   UNL     1     -15.524   1.794 -32.651  1.00  0.00     0.142 A 
HETATM   32  C   UNL     1     -15.859   2.892 -31.896  1.00  0.00     0.027 A 
HETATM   33  C   UNL     1     -14.877   3.875 -32.168  1.00  0.00     0.037 A 
ENDBRANCH   6  29
TORSDOF 6
ENDMDL
MODEL 9
REMARK VINA RESULT:      -8.1      2.610      3.720
REMARK  6 active torsions:
REMARK  status: ('A' for Active; 'I' for Inactive)
REMARK    1  A    between atoms: C_2  and  O_3 
REMARK    2  A    between atoms: C_2  and  C_4 
REMARK    3  A    between atoms: C_6  and  N_7 
REMARK       I    between atoms: N_7  and  C_8 
REMARK    4  A    between atoms: C_8  and  C_9 
REMARK    5  A    between atoms: C_14  and  C_15 
REMARK    6  A    between atoms: C_21  and  C_22 
ROOT
HETATM    1  C   UNL     1      -4.743   4.372 -31.196  1.00  0.00     0.148 A 
HETATM    2  N   UNL     1      -3.610   4.560 -31.911  1.00  0.00    -0.165 NA
HETATM    3  N   UNL     1      -3.093   5.691 -31.397  1.00  0.00    -0.240 N 
HETATM    4  C   UNL     1      -3.806   6.188 -30.338  1.00  0.00     0.123 A 
HETATM    5  N   UNL     1      -3.420   7.306 -29.687  1.00  0.00    -0.364 N 
HETATM    6  C   UNL     1      -2.133   7.944 -29.959  1.00  0.00     0.143 C 
HETATM    7  C   UNL     1      -1.758   7.744 -31.436  1.00  0.00     0.068 C 
HETATM    8  C   UNL     1      -1.836   6.262 -31.853  1.00  0.00     0.221 C 
HETATM    9  C   UNL     1      -4.880   5.354 -30.179  1.00  0.00     0.089 A 
HETATM   10  H   UNL     1      -3.852   7.566 -28.801  1.00  0.00     0.162 HD
ENDROOT
BRANCH   1  11
HETATM   11  C   UNL     1      -5.689   3.281 -31.497  1.00  0.00     0.276 C 
HETATM   12  N   UNL     1      -5.948   3.180 -32.851  1.00  0.00    -0.322 N 
HETATM   13  H   UNL     1      -5.417   3.839 -33.415  1.00  0.00     0.169 HD
HETATM   14  O   UNL     1      -6.169   2.592 -30.604  1.00  0.00    -0.266 OA
BRANCH  12  15
HETATM   15  C   UNL     1      -6.855   2.330 -33.506  1.00  0.00     0.035 A 
HETATM   16  C   UNL     1      -8.244   2.483 -33.450  1.00  0.00     0.039 A 
HETATM   17  C   UNL     1      -9.099   1.613 -34.149  1.00  0.00    -0.028 A 
HETATM   18  C   UNL     1      -8.540   0.568 -34.897  1.00  0.00     0.010 A 
HETATM   19  C   UNL     1      -7.157   0.407 -34.959  1.00  0.00     0.003 A 
HETATM   20  C   UNL     1      -6.320   1.286 -34.269  1.00  0.00     0.029 A 
BRANCH  17  21
HETATM   21  C   UNL     1     -10.599   1.805 -34.069  1.00  0.00     0.147 C 
HETATM   22  C   UNL     1     -11.299   0.617 -33.428  1.00  0.00     0.044 C 
BRANCH  21  23
HETATM   23  O   UNL     1     -11.139   2.008 -35.375  1.00  0.00    -0.391 OA
HETATM   24  H   UNL     1     -10.541   1.560 -35.997  1.00  0.00     0.210 HD
ENDBRANCH  21  23
ENDBRANCH  17  21
ENDBRANCH  12  15
ENDBRANCH   1  11
BRANCH   8  25
HETATM   25  C   UNL     1      -1.659   6.142 -33.350  1.00  0.00     0.409 C 
HETATM   26  F   UNL     1      -2.789   6.403 -34.044  1.00  0.00    -0.169 F 
HETATM   27  F   UNL     1      -0.676   6.941 -33.823  1.00  0.00    -0.169 F 
HETATM   28  F   UNL     1      -1.309   4.867 -33.670  1.00  0.00    -0.169 F 
ENDBRANCH   8  25
BRANCH   6  29
HETATM   29  C   UNL     1      -1.018   7.528 -29.051  1.00  0.00     0.075 A 
HETATM   30  O   UNL     1      -1.391   6.947 -27.873  1.00  0.00    -0.325 OA
HETATM   31  C   UNL     1      -0.252   6.630 -27.206  1.00  0.00     0.142 A 
HETATM   32  C   UNL     1       0.852   7.009 -27.933  1.00  0.00     0.027 A 
HETATM   33  C   UNL     1       0.359   7.589 -29.127  1.00  0.00     0.037 A 
ENDBRANCH   6  29
TORSDOF 6
ENDMDL
MODEL 10
REMARK VINA RESULT:      -8.0      6.254      7.827
REMARK  6 active torsions:
REMARK  status: ('A' for Active; 'I' for Inactive)
REMARK    1  A    between atoms: C_2  and  O_3 
REMARK    2  A    between atoms: C_2  and  C_4 
REMARK    3  A    between atoms: C_6  and  N_7 
REMARK       I    between atoms: N_7  and  C_8 
REMARK    4  A    between atoms: C_8  and  C_9 
REMARK    5  A    between atoms: C_14  and  C_15 
REMARK    6  A    between atoms: C_21  and  C_22 
ROOT
HETATM    1  C   UNL     1      -8.713   2.112 -33.053  1.00  0.00     0.148 A 
HETATM    2  N   UNL     1      -9.776   2.186 -33.887  1.00  0.00    -0.165 NA
HETATM    3  N   UNL     1     -10.737   2.745 -33.129  1.00  0.00    -0.240 N 
HETATM    4  C   UNL     1     -10.311   3.099 -31.876  1.00  0.00     0.123 A 
HETATM    5  N   UNL     1     -11.138   3.691 -30.988  1.00  0.00    -0.364 N 
HETATM    6  C   UNL     1     -12.474   4.146 -31.372  1.00  0.00     0.143 C 
HETATM    7  C   UNL     1     -13.044   3.220 -32.457  1.00  0.00     0.068 C 
HETATM    8  C   UNL     1     -12.066   3.045 -33.636  1.00  0.00     0.221 C 
HETATM    9  C   UNL     1      -9.003   2.705 -31.796  1.00  0.00     0.089 A 
HETATM   10  H   UNL     1     -10.770   4.106 -30.133  1.00  0.00     0.162 HD
ENDROOT
BRANCH   1  11
HETATM   11  C   UNL     1      -7.448   1.464 -33.449  1.00  0.00     0.276 C 
HETATM   12  N   UNL     1      -7.538   0.086 -33.406  1.00  0.00    -0.322 N 
HETATM   13  H   UNL     1      -8.465  -0.252 -33.153  1.00  0.00     0.169 HD
HETATM   14  O   UNL     1      -6.463   2.126 -33.751  1.00  0.00    -0.266 OA
BRANCH  12  15
HETATM   15  C   UNL     1      -6.525  -0.864 -33.626  1.00  0.00     0.035 A 
HETATM   16  C   UNL     1      -5.354  -0.941 -32.867  1.00  0.00     0.039 A 
HETATM   17  C   UNL     1      -4.388  -1.930 -33.120  1.00  0.00    -0.028 A 
HETATM   18  C   UNL     1      -4.606  -2.839 -34.165  1.00  0.00     0.010 A 
HETATM   19  C   UNL     1      -5.771  -2.770 -34.927  1.00  0.00     0.003 A 
HETATM   20  C   UNL     1      -6.726  -1.789 -34.656  1.00  0.00     0.029 A 
BRANCH  17  21
HETATM   21  C   UNL     1      -3.130  -1.988 -32.280  1.00  0.00     0.147 C 
HETATM   22  C   UNL     1      -2.869  -3.382 -31.729  1.00  0.00     0.044 C 
BRANCH  21  23
HETATM   23  O   UNL     1      -3.223  -1.071 -31.190  1.00  0.00    -0.391 OA
HETATM   24  H   UNL     1      -2.327  -0.987 -30.819  1.00  0.00     0.210 HD
ENDBRANCH  21  23
ENDBRANCH  17  21
ENDBRANCH  12  15
ENDBRANCH   1  11
BRANCH   8  25
HETATM   25  C   UNL     1     -12.580   1.975 -34.573  1.00  0.00     0.409 C 
HETATM   26  F   UNL     1     -12.200   0.728 -34.219  1.00  0.00    -0.169 F 
HETATM   27  F   UNL     1     -13.927   1.991 -34.691  1.00  0.00    -0.169 F 
HETATM   28  F   UNL     1     -12.080   2.179 -35.822  1.00  0.00    -0.169 F 
ENDBRANCH   8  25
BRANCH   6  29
HETATM   29  C   UNL     1     -12.556   5.583 -31.782  1.00  0.00     0.075 A 
HETATM   30  O   UNL     1     -11.373   6.265 -31.816  1.00  0.00    -0.325 OA
HETATM   31  C   UNL     1     -11.653   7.531 -32.220  1.00  0.00     0.142 A 
HETATM   32  C   UNL     1     -13.002   7.678 -32.438  1.00  0.00     0.027 A 
HETATM   33  C   UNL     1     -13.589   6.421 -32.155  1.00  0.00     0.037 A 
ENDBRANCH   6  29
TORSDOF 6
ENDMDL
