MODEL 1
REMARK VINA RESULT:      -8.3      0.000      0.000
REMARK  5 active torsions:
REMARK  status: ('A' for Active; 'I' for Inactive)
REMARK    1  A    between atoms: C_5  and  S_6 
REMARK    2  A    between atoms: S_6  and  C_7 
REMARK    3  A    between atoms: C_7  and  C_8 
REMARK       I    between atoms: C_8  and  N_9 
REMARK    4  A    between atoms: N_9  and  C_10 
REMARK    5  A    between atoms: C_12  and  C_13 
ROOT
HETATM    1  C   UNL     1      -6.113   1.931 -31.089  1.00  0.00     0.231 C 
HETATM    2  N   UNL     1      -5.457   1.499 -32.228  1.00  0.00    -0.327 N 
HETATM    3  O   UNL     1      -7.261   1.633 -30.766  1.00  0.00    -0.272 OA
HETATM    4  H   UNL     1      -4.534   1.897 -32.373  1.00  0.00     0.169 HD
ENDROOT
BRANCH   2   5
HETATM    5  C   UNL     1      -5.953   0.665 -33.252  1.00  0.00     0.035 A 
HETATM    6  C   UNL     1      -5.603  -0.681 -33.401  1.00  0.00     0.042 A 
HETATM    7  C   UNL     1      -6.138  -1.465 -34.436  1.00  0.00    -0.021 A 
HETATM    8  C   UNL     1      -7.035  -0.871 -35.333  1.00  0.00     0.012 A 
HETATM    9  C   UNL     1      -7.385   0.473 -35.200  1.00  0.00     0.003 A 
HETATM   10  C   UNL     1      -6.846   1.237 -34.164  1.00  0.00     0.029 A 
BRANCH   7  11
HETATM   11  C   UNL     1      -5.765  -2.869 -34.551  1.00  0.00     0.010 A 
HETATM   12  C   UNL     1      -6.501  -3.986 -35.021  1.00  0.00     0.152 A 
HETATM   13  N   UNL     1      -5.809  -5.128 -34.963  1.00  0.00    -0.187 NA
HETATM   14  N   UNL     1      -4.630  -4.752 -34.448  1.00  0.00    -0.289 N 
HETATM   15  H   UNL     1      -3.922  -5.464 -34.302  1.00  0.00     0.188 HD
HETATM   16  C   UNL     1      -4.551  -3.414 -34.184  1.00  0.00     0.123 A 
ENDBRANCH   7  11
ENDBRANCH   2   5
BRANCH   1  17
HETATM   17  C   UNL     1      -5.269   2.778 -30.146  1.00  0.00     0.182 C 
BRANCH  17  18
HETATM   18  S   UNL     1      -5.448   4.573 -30.429  1.00  0.00    -0.121 SA
BRANCH  18  19
HETATM   19  C   UNL     1      -4.269   4.758 -31.754  1.00  0.00     0.001 A 
HETATM   20  C   UNL     1      -2.965   4.285 -31.597  1.00  0.00     0.019 A 
HETATM   21  C   UNL     1      -2.030   4.443 -32.624  1.00  0.00     0.008 A 
HETATM   22  C   UNL     1      -2.391   5.062 -33.826  1.00  0.00    -0.062 A 
HETATM   23  C   UNL     1      -1.388   5.264 -34.923  1.00  0.00     0.048 C 
HETATM   24  C   UNL     1      -3.702   5.525 -33.983  1.00  0.00     0.008 A 
HETATM   25  C   UNL     1      -4.637   5.368 -32.958  1.00  0.00     0.019 A 
ENDBRANCH  18  19
ENDBRANCH  17  18
ENDBRANCH   1  17
TORSDOF 5
ENDMDL
MODEL 2
REMARK VINA RESULT:      -8.1      3.396      8.733
REMARK  5 active torsions:
REMARK  status: ('A' for Active; 'I' for Inactive)
REMARK    1  A    between atoms: C_5  and  S_6 
REMARK    2  A    between atoms: S_6  and  C_7 
REMARK    3  A    between atoms: C_7  and  C_8 
REMARK       I    between atoms: C_8  and  N_9 
REMARK    4  A    between atoms: N_9  and  C_10 
REMARK    5  A    between atoms: C_12  and  C_13 
ROOT
HETATM    1  C   UNL     1      -4.777   2.908 -32.600  1.00  0.00     0.231 C 
HETATM    2  N   UNL     1      -3.399   2.926 -32.717  1.00  0.00    -0.327 N 
HETATM    3  O   UNL     1      -5.499   3.895 -32.469  1.00  0.00    -0.272 OA
HETATM    4  H   UNL     1      -2.956   2.012 -32.752  1.00  0.00     0.169 HD
ENDROOT
BRANCH   2   5
HETATM    5  C   UNL     1      -2.540   4.044 -32.688  1.00  0.00     0.035 A 
HETATM    6  C   UNL     1      -1.922   4.524 -31.529  1.00  0.00     0.042 A 
HETATM    7  C   UNL     1      -1.067   5.638 -31.564  1.00  0.00    -0.021 A 
HETATM    8  C   UNL     1      -0.842   6.273 -32.791  1.00  0.00     0.012 A 
HETATM    9  C   UNL     1      -1.458   5.808 -33.954  1.00  0.00     0.003 A 
HETATM   10  C   UNL     1      -2.303   4.699 -33.901  1.00  0.00     0.029 A 
BRANCH   7  11
HETATM   11  C   UNL     1      -0.427   6.101 -30.339  1.00  0.00     0.010 A 
HETATM   12  C   UNL     1      -0.391   7.388 -29.744  1.00  0.00     0.152 A 
HETATM   13  N   UNL     1       0.315   7.418 -28.610  1.00  0.00    -0.187 NA
HETATM   14  N   UNL     1       0.744   6.155 -28.476  1.00  0.00    -0.289 N 
HETATM   15  H   UNL     1       1.319   5.927 -27.672  1.00  0.00     0.188 HD
HETATM   16  C   UNL     1       0.329   5.328 -29.481  1.00  0.00     0.123 A 
ENDBRANCH   7  11
ENDBRANCH   2   5
BRANCH   1  17
HETATM   17  C   UNL     1      -5.414   1.531 -32.737  1.00  0.00     0.182 C 
BRANCH  17  18
HETATM   18  S   UNL     1      -4.347   0.177 -32.136  1.00  0.00    -0.121 SA
BRANCH  18  19
HETATM   19  C   UNL     1      -5.003  -1.149 -33.131  1.00  0.00     0.001 A 
HETATM   20  C   UNL     1      -6.349  -1.140 -33.503  1.00  0.00     0.019 A 
HETATM   21  C   UNL     1      -6.876  -2.185 -34.268  1.00  0.00     0.008 A 
HETATM   22  C   UNL     1      -6.060  -3.244 -34.683  1.00  0.00    -0.062 A 
HETATM   23  C   UNL     1      -6.621  -4.386 -35.478  1.00  0.00     0.048 C 
HETATM   24  C   UNL     1      -4.710  -3.243 -34.317  1.00  0.00     0.008 A 
HETATM   25  C   UNL     1      -4.182  -2.199 -33.553  1.00  0.00     0.019 A 
ENDBRANCH  18  19
ENDBRANCH  17  18
ENDBRANCH   1  17
TORSDOF 5
ENDMDL
MODEL 3
REMARK VINA RESULT:      -7.9      1.703      2.025
REMARK  5 active torsions:
REMARK  status: ('A' for Active; 'I' for Inactive)
REMARK    1  A    between atoms: C_5  and  S_6 
REMARK    2  A    between atoms: S_6  and  C_7 
REMARK    3  A    between atoms: C_7  and  C_8 
REMARK       I    between atoms: C_8  and  N_9 
REMARK    4  A    between atoms: N_9  and  C_10 
REMARK    5  A    between atoms: C_12  and  C_13 
ROOT
HETATM    1  C   UNL     1      -4.600   1.918 -31.939  1.00  0.00     0.231 C 
HETATM    2  N   UNL     1      -5.860   1.419 -32.215  1.00  0.00    -0.327 N 
HETATM    3  O   UNL     1      -3.574   1.664 -32.568  1.00  0.00    -0.272 OA
HETATM    4  H   UNL     1      -6.584   1.681 -31.551  1.00  0.00     0.169 HD
ENDROOT
BRANCH   2   5
HETATM    5  C   UNL     1      -6.233   0.517 -33.232  1.00  0.00     0.035 A 
HETATM    6  C   UNL     1      -5.733  -0.785 -33.343  1.00  0.00     0.042 A 
HETATM    7  C   UNL     1      -6.150  -1.643 -34.375  1.00  0.00    -0.021 A 
HETATM    8  C   UNL     1      -7.081  -1.169 -35.306  1.00  0.00     0.012 A 
HETATM    9  C   UNL     1      -7.581   0.131 -35.211  1.00  0.00     0.003 A 
HETATM   10  C   UNL     1      -7.158   0.969 -34.179  1.00  0.00     0.029 A 
BRANCH   7  11
HETATM   11  C   UNL     1      -5.621  -2.999 -34.450  1.00  0.00     0.010 A 
HETATM   12  C   UNL     1      -6.226  -4.204 -34.889  1.00  0.00     0.152 A 
HETATM   13  N   UNL     1      -5.411  -5.259 -34.798  1.00  0.00    -0.187 NA
HETATM   14  N   UNL     1      -4.283  -4.739 -34.293  1.00  0.00    -0.289 N 
HETATM   15  H   UNL     1      -3.501  -5.363 -34.127  1.00  0.00     0.188 HD
HETATM   16  C   UNL     1      -4.356  -3.394 -34.067  1.00  0.00     0.123 A 
ENDBRANCH   7  11
ENDBRANCH   2   5
BRANCH   1  17
HETATM   17  C   UNL     1      -4.546   2.931 -30.802  1.00  0.00     0.182 C 
BRANCH  17  18
HETATM   18  S   UNL     1      -4.886   4.642 -31.341  1.00  0.00    -0.121 SA
BRANCH  18  19
HETATM   19  C   UNL     1      -3.225   5.285 -31.269  1.00  0.00     0.001 A 
HETATM   20  C   UNL     1      -2.930   6.361 -30.430  1.00  0.00     0.019 A 
HETATM   21  C   UNL     1      -1.634   6.883 -30.381  1.00  0.00     0.008 A 
HETATM   22  C   UNL     1      -0.613   6.325 -31.160  1.00  0.00    -0.062 A 
HETATM   23  C   UNL     1       0.774   6.895 -31.138  1.00  0.00     0.048 C 
HETATM   24  C   UNL     1      -0.911   5.240 -31.991  1.00  0.00     0.008 A 
HETATM   25  C   UNL     1      -2.205   4.718 -32.041  1.00  0.00     0.019 A 
ENDBRANCH  18  19
ENDBRANCH  17  18
ENDBRANCH   1  17
TORSDOF 5
ENDMDL
MODEL 4
REMARK VINA RESULT:      -7.8      3.901      7.043
REMARK  5 active torsions:
REMARK  status: ('A' for Active; 'I' for Inactive)
REMARK    1  A    between atoms: C_5  and  S_6 
REMARK    2  A    between atoms: S_6  and  C_7 
REMARK    3  A    between atoms: C_7  and  C_8 
REMARK       I    between atoms: C_8  and  N_9 
REMARK    4  A    between atoms: N_9  and  C_10 
REMARK    5  A    between atoms: C_12  and  C_13 
ROOT
HETATM    1  C   UNL     1      -6.138   1.485 -31.689  1.00  0.00     0.231 C 
HETATM    2  N   UNL     1      -7.463   1.114 -31.547  1.00  0.00    -0.327 N 
HETATM    3  O   UNL     1      -5.737   2.602 -32.011  1.00  0.00    -0.272 OA
HETATM    4  H   UNL     1      -7.617   0.131 -31.340  1.00  0.00     0.169 HD
ENDROOT
BRANCH   2   5
HETATM    5  C   UNL     1      -8.613   1.903 -31.757  1.00  0.00     0.035 A 
HETATM    6  C   UNL     1      -9.369   1.885 -32.934  1.00  0.00     0.042 A 
HETATM    7  C   UNL     1     -10.512   2.688 -33.081  1.00  0.00    -0.021 A 
HETATM    8  C   UNL     1     -10.887   3.522 -32.021  1.00  0.00     0.012 A 
HETATM    9  C   UNL     1     -10.136   3.556 -30.845  1.00  0.00     0.003 A 
HETATM   10  C   UNL     1      -9.005   2.750 -30.715  1.00  0.00     0.029 A 
BRANCH   7  11
HETATM   11  C   UNL     1     -11.286   2.631 -34.315  1.00  0.00     0.010 A 
HETATM   12  C   UNL     1     -12.221   1.669 -34.776  1.00  0.00     0.152 A 
HETATM   13  N   UNL     1     -12.722   1.966 -35.979  1.00  0.00    -0.187 NA
HETATM   14  N   UNL     1     -12.106   3.113 -36.299  1.00  0.00    -0.289 N 
HETATM   15  H   UNL     1     -12.325   3.541 -37.192  1.00  0.00     0.188 HD
HETATM   16  C   UNL     1     -11.239   3.553 -35.341  1.00  0.00     0.123 A 
ENDBRANCH   7  11
ENDBRANCH   2   5
BRANCH   1  17
HETATM   17  C   UNL     1      -5.128   0.406 -31.323  1.00  0.00     0.182 C 
BRANCH  17  18
HETATM   18  S   UNL     1      -3.888   0.103 -32.628  1.00  0.00    -0.121 SA
BRANCH  18  19
HETATM   19  C   UNL     1      -4.685  -1.264 -33.449  1.00  0.00     0.001 A 
HETATM   20  C   UNL     1      -4.037  -2.497 -33.539  1.00  0.00     0.019 A 
HETATM   21  C   UNL     1      -4.648  -3.569 -34.196  1.00  0.00     0.008 A 
HETATM   22  C   UNL     1      -5.921  -3.426 -34.758  1.00  0.00    -0.062 A 
HETATM   23  C   UNL     1      -6.575  -4.560 -35.491  1.00  0.00     0.048 C 
HETATM   24  C   UNL     1      -6.573  -2.192 -34.656  1.00  0.00     0.008 A 
HETATM   25  C   UNL     1      -5.963  -1.120 -33.999  1.00  0.00     0.019 A 
ENDBRANCH  18  19
ENDBRANCH  17  18
ENDBRANCH   1  17
TORSDOF 5
ENDMDL
MODEL 5
REMARK VINA RESULT:      -7.8      4.502      7.234
REMARK  5 active torsions:
REMARK  status: ('A' for Active; 'I' for Inactive)
REMARK    1  A    between atoms: C_5  and  S_6 
REMARK    2  A    between atoms: S_6  and  C_7 
REMARK    3  A    between atoms: C_7  and  C_8 
REMARK       I    between atoms: C_8  and  N_9 
REMARK    4  A    between atoms: N_9  and  C_10 
REMARK    5  A    between atoms: C_12  and  C_13 
ROOT
HETATM    1  C   UNL     1      -7.136   1.992 -32.661  1.00  0.00     0.231 C 
HETATM    2  N   UNL     1      -8.082   2.377 -33.593  1.00  0.00    -0.327 N 
HETATM    3  O   UNL     1      -7.333   1.852 -31.455  1.00  0.00    -0.272 OA
HETATM    4  H   UNL     1      -7.731   2.507 -34.538  1.00  0.00     0.169 HD
ENDROOT
BRANCH   2   5
HETATM    5  C   UNL     1      -9.435   2.707 -33.371  1.00  0.00     0.035 A 
HETATM    6  C   UNL     1     -10.505   1.852 -33.656  1.00  0.00     0.042 A 
HETATM    7  C   UNL     1     -11.833   2.233 -33.404  1.00  0.00    -0.021 A 
HETATM    8  C   UNL     1     -12.076   3.501 -32.861  1.00  0.00     0.012 A 
HETATM    9  C   UNL     1     -11.018   4.367 -32.580  1.00  0.00     0.003 A 
HETATM   10  C   UNL     1      -9.704   3.971 -32.835  1.00  0.00     0.029 A 
BRANCH   7  11
HETATM   11  C   UNL     1     -12.922   1.310 -33.697  1.00  0.00     0.010 A 
HETATM   12  C   UNL     1     -14.254   1.555 -34.118  1.00  0.00     0.152 A 
HETATM   13  N   UNL     1     -14.964   0.434 -34.277  1.00  0.00    -0.187 NA
HETATM   14  N   UNL     1     -14.097  -0.534 -33.951  1.00  0.00    -0.289 N 
HETATM   15  H   UNL     1     -14.415  -1.496 -33.991  1.00  0.00     0.188 HD
HETATM   16  C   UNL     1     -12.863  -0.065 -33.597  1.00  0.00     0.123 A 
ENDBRANCH   7  11
ENDBRANCH   2   5
BRANCH   1  17
HETATM   17  C   UNL     1      -5.771   1.641 -33.239  1.00  0.00     0.182 C 
BRANCH  17  18
HETATM   18  S   UNL     1      -4.880   0.374 -32.273  1.00  0.00    -0.121 SA
BRANCH  18  19
HETATM   19  C   UNL     1      -5.308  -1.059 -33.244  1.00  0.00     0.001 A 
HETATM   20  C   UNL     1      -6.639  -1.289 -33.598  1.00  0.00     0.019 A 
HETATM   21  C   UNL     1      -6.984  -2.420 -34.344  1.00  0.00     0.008 A 
HETATM   22  C   UNL     1      -6.002  -3.326 -34.758  1.00  0.00    -0.062 A 
HETATM   23  C   UNL     1      -6.364  -4.558 -35.533  1.00  0.00     0.048 C 
HETATM   24  C   UNL     1      -4.668  -3.086 -34.410  1.00  0.00     0.008 A 
HETATM   25  C   UNL     1      -4.321  -1.957 -33.665  1.00  0.00     0.019 A 
ENDBRANCH  18  19
ENDBRANCH  17  18
ENDBRANCH   1  17
TORSDOF 5
ENDMDL
MODEL 6
REMARK VINA RESULT:      -7.6      3.152      7.521
REMARK  5 active torsions:
REMARK  status: ('A' for Active; 'I' for Inactive)
REMARK    1  A    between atoms: C_5  and  S_6 
REMARK    2  A    between atoms: S_6  and  C_7 
REMARK    3  A    between atoms: C_7  and  C_8 
REMARK       I    between atoms: C_8  and  N_9 
REMARK    4  A    between atoms: N_9  and  C_10 
REMARK    5  A    between atoms: C_12  and  C_13 
ROOT
HETATM    1  C   UNL     1      -7.820   3.334 -33.056  1.00  0.00     0.231 C 
HETATM    2  N   UNL     1      -6.595   3.180 -33.679  1.00  0.00    -0.327 N 
HETATM    3  O   UNL     1      -7.992   3.676 -31.887  1.00  0.00    -0.272 OA
HETATM    4  H   UNL     1      -6.635   2.827 -34.631  1.00  0.00     0.169 HD
ENDROOT
BRANCH   2   5
HETATM    5  C   UNL     1      -5.310   3.353 -33.124  1.00  0.00     0.035 A 
HETATM    6  C   UNL     1      -4.512   4.482 -33.337  1.00  0.00     0.042 A 
HETATM    7  C   UNL     1      -3.242   4.602 -32.747  1.00  0.00    -0.021 A 
HETATM    8  C   UNL     1      -2.778   3.559 -31.937  1.00  0.00     0.012 A 
HETATM    9  C   UNL     1      -3.561   2.423 -31.723  1.00  0.00     0.003 A 
HETATM   10  C   UNL     1      -4.821   2.322 -32.315  1.00  0.00     0.029 A 
BRANCH   7  11
HETATM   11  C   UNL     1      -2.445   5.800 -32.976  1.00  0.00     0.010 A 
HETATM   12  C   UNL     1      -2.348   6.643 -34.113  1.00  0.00     0.152 A 
HETATM   13  N   UNL     1      -1.490   7.652 -33.940  1.00  0.00    -0.187 NA
HETATM   14  N   UNL     1      -1.026   7.459 -32.698  1.00  0.00    -0.289 N 
HETATM   15  H   UNL     1      -0.340   8.113 -32.336  1.00  0.00     0.188 HD
HETATM   16  C   UNL     1      -1.563   6.367 -32.079  1.00  0.00     0.123 A 
ENDBRANCH   7  11
ENDBRANCH   2   5
BRANCH   1  17
HETATM   17  C   UNL     1      -9.029   3.134 -33.961  1.00  0.00     0.182 C 
BRANCH  17  18
HETATM   18  S   UNL     1      -9.854   1.523 -33.718  1.00  0.00    -0.121 SA
BRANCH  18  19
HETATM   19  C   UNL     1      -8.423   0.465 -33.833  1.00  0.00     0.001 A 
HETATM   20  C   UNL     1      -7.895   0.140 -35.084  1.00  0.00     0.019 A 
HETATM   21  C   UNL     1      -6.785  -0.703 -35.183  1.00  0.00     0.008 A 
HETATM   22  C   UNL     1      -6.180  -1.220 -34.033  1.00  0.00    -0.062 A 
HETATM   23  C   UNL     1      -5.007  -2.150 -34.127  1.00  0.00     0.048 C 
HETATM   24  C   UNL     1      -6.706  -0.884 -32.780  1.00  0.00     0.008 A 
HETATM   25  C   UNL     1      -7.815  -0.041 -32.680  1.00  0.00     0.019 A 
ENDBRANCH  18  19
ENDBRANCH  17  18
ENDBRANCH   1  17
TORSDOF 5
ENDMDL
MODEL 7
REMARK VINA RESULT:      -7.5      4.235      6.434
REMARK  5 active torsions:
REMARK  status: ('A' for Active; 'I' for Inactive)
REMARK    1  A    between atoms: C_5  and  S_6 
REMARK    2  A    between atoms: S_6  and  C_7 
REMARK    3  A    between atoms: C_7  and  C_8 
REMARK       I    between atoms: C_8  and  N_9 
REMARK    4  A    between atoms: N_9  and  C_10 
REMARK    5  A    between atoms: C_12  and  C_13 
ROOT
HETATM    1  C   UNL     1      -8.470   1.870 -33.139  1.00  0.00     0.231 C 
HETATM    2  N   UNL     1      -7.377   1.573 -33.933  1.00  0.00    -0.327 N 
HETATM    3  O   UNL     1      -8.770   1.301 -32.090  1.00  0.00    -0.272 OA
HETATM    4  H   UNL     1      -7.318   2.099 -34.801  1.00  0.00     0.169 HD
ENDROOT
BRANCH   2   5
HETATM    5  C   UNL     1      -6.407   0.569 -33.735  1.00  0.00     0.035 A 
HETATM    6  C   UNL     1      -6.558  -0.756 -34.156  1.00  0.00     0.042 A 
HETATM    7  C   UNL     1      -5.551  -1.711 -33.940  1.00  0.00    -0.021 A 
HETATM    8  C   UNL     1      -4.380  -1.315 -33.282  1.00  0.00     0.012 A 
HETATM    9  C   UNL     1      -4.221   0.003 -32.849  1.00  0.00     0.003 A 
HETATM   10  C   UNL     1      -5.231   0.939 -33.075  1.00  0.00     0.029 A 
BRANCH   7  11
HETATM   11  C   UNL     1      -5.734  -3.080 -34.408  1.00  0.00     0.010 A 
HETATM   12  C   UNL     1      -4.838  -4.179 -34.426  1.00  0.00     0.152 A 
HETATM   13  N   UNL     1      -5.380  -5.283 -34.948  1.00  0.00    -0.187 NA
HETATM   14  N   UNL     1      -6.621  -4.897 -35.275  1.00  0.00    -0.289 N 
HETATM   15  H   UNL     1      -7.237  -5.580 -35.703  1.00  0.00     0.188 HD
HETATM   16  C   UNL     1      -6.884  -3.591 -34.974  1.00  0.00     0.123 A 
ENDBRANCH   7  11
ENDBRANCH   2   5
BRANCH   1  17
HETATM   17  C   UNL     1      -9.294   3.064 -33.602  1.00  0.00     0.182 C 
BRANCH  17  18
HETATM   18  S   UNL     1      -9.935   4.077 -32.224  1.00  0.00    -0.121 SA
BRANCH  18  19
HETATM   19  C   UNL     1     -11.632   3.529 -32.251  1.00  0.00     0.001 A 
HETATM   20  C   UNL     1     -12.058   2.627 -33.228  1.00  0.00     0.019 A 
HETATM   21  C   UNL     1     -13.390   2.207 -33.267  1.00  0.00     0.008 A 
HETATM   22  C   UNL     1     -14.310   2.670 -32.319  1.00  0.00    -0.062 A 
HETATM   23  C   UNL     1     -15.749   2.249 -32.368  1.00  0.00     0.048 C 
HETATM   24  C   UNL     1     -13.876   3.565 -31.334  1.00  0.00     0.008 A 
HETATM   25  C   UNL     1     -12.545   3.986 -31.295  1.00  0.00     0.019 A 
ENDBRANCH  18  19
ENDBRANCH  17  18
ENDBRANCH   1  17
TORSDOF 5
ENDMDL
MODEL 8
REMARK VINA RESULT:      -7.4      3.075      3.958
REMARK  5 active torsions:
REMARK  status: ('A' for Active; 'I' for Inactive)
REMARK    1  A    between atoms: C_5  and  S_6 
REMARK    2  A    between atoms: S_6  and  C_7 
REMARK    3  A    between atoms: C_7  and  C_8 
REMARK       I    between atoms: C_8  and  N_9 
REMARK    4  A    between atoms: N_9  and  C_10 
REMARK    5  A    between atoms: C_12  and  C_13 
ROOT
HETATM    1  C   UNL     1      -3.398   3.743 -32.755  1.00  0.00     0.231 C 
HETATM    2  N   UNL     1      -3.275   2.565 -32.041  1.00  0.00    -0.327 N 
HETATM    3  O   UNL     1      -4.411   4.123 -33.342  1.00  0.00    -0.272 OA
HETATM    4  H   UNL     1      -2.346   2.376 -31.675  1.00  0.00     0.169 HD
ENDROOT
BRANCH   2   5
HETATM    5  C   UNL     1      -4.244   1.558 -31.853  1.00  0.00     0.035 A 
HETATM    6  C   UNL     1      -4.494   0.533 -32.772  1.00  0.00     0.042 A 
HETATM    7  C   UNL     1      -5.467  -0.450 -32.525  1.00  0.00    -0.021 A 
HETATM    8  C   UNL     1      -6.198  -0.385 -31.332  1.00  0.00     0.012 A 
HETATM    9  C   UNL     1      -5.964   0.637 -30.411  1.00  0.00     0.003 A 
HETATM   10  C   UNL     1      -4.992   1.603 -30.672  1.00  0.00     0.029 A 
BRANCH   7  11
HETATM   11  C   UNL     1      -5.690  -1.513 -33.497  1.00  0.00     0.010 A 
HETATM   12  C   UNL     1      -6.893  -2.045 -34.026  1.00  0.00     0.152 A 
HETATM   13  N   UNL     1      -6.684  -3.033 -34.901  1.00  0.00    -0.187 NA
HETATM   14  N   UNL     1      -5.349  -3.146 -34.932  1.00  0.00    -0.289 N 
HETATM   15  H   UNL     1      -4.941  -3.852 -35.536  1.00  0.00     0.188 HD
HETATM   16  C   UNL     1      -4.707  -2.263 -34.112  1.00  0.00     0.123 A 
ENDBRANCH   7  11
ENDBRANCH   2   5
BRANCH   1  17
HETATM   17  C   UNL     1      -2.177   4.651 -32.710  1.00  0.00     0.182 C 
BRANCH  17  18
HETATM   18  S   UNL     1      -2.598   6.427 -32.666  1.00  0.00    -0.121 SA
BRANCH  18  19
HETATM   19  C   UNL     1      -1.506   6.933 -31.350  1.00  0.00     0.001 A 
HETATM   20  C   UNL     1      -0.176   6.509 -31.346  1.00  0.00     0.019 A 
HETATM   21  C   UNL     1       0.681   6.887 -30.308  1.00  0.00     0.008 A 
HETATM   22  C   UNL     1       0.223   7.704 -29.269  1.00  0.00    -0.062 A 
HETATM   23  C   UNL     1       1.124   8.091 -28.135  1.00  0.00     0.048 C 
HETATM   24  C   UNL     1      -1.109   8.136 -29.283  1.00  0.00     0.008 A 
HETATM   25  C   UNL     1      -1.966   7.759 -30.319  1.00  0.00     0.019 A 
ENDBRANCH  18  19
ENDBRANCH  17  18
ENDBRANCH   1  17
TORSDOF 5
ENDMDL
MODEL 9
REMARK VINA RESULT:      -7.3      3.659      4.974
REMARK  5 active torsions:
REMARK  status: ('A' for Active; 'I' for Inactive)
REMARK    1  A    between atoms: C_5  and  S_6 
REMARK    2  A    between atoms: S_6  and  C_7 
REMARK    3  A    between atoms: C_7  and  C_8 
REMARK       I    between atoms: C_8  and  N_9 
REMARK    4  A    between atoms: N_9  and  C_10 
REMARK    5  A    between atoms: C_12  and  C_13 
ROOT
HETATM    1  C   UNL     1      -2.900   3.572 -32.196  1.00  0.00     0.231 C 
HETATM    2  N   UNL     1      -3.213   2.365 -31.597  1.00  0.00    -0.327 N 
HETATM    3  O   UNL     1      -3.306   3.955 -33.293  1.00  0.00    -0.272 OA
HETATM    4  H   UNL     1      -2.736   2.182 -30.719  1.00  0.00     0.169 HD
ENDROOT
BRANCH   2   5
HETATM    5  C   UNL     1      -4.022   1.327 -32.105  1.00  0.00     0.035 A 
HETATM    6  C   UNL     1      -5.419   1.320 -32.032  1.00  0.00     0.042 A 
HETATM    7  C   UNL     1      -6.173   0.261 -32.566  1.00  0.00    -0.021 A 
HETATM    8  C   UNL     1      -5.498  -0.804 -33.174  1.00  0.00     0.012 A 
HETATM    9  C   UNL     1      -4.104  -0.812 -33.245  1.00  0.00     0.003 A 
HETATM   10  C   UNL     1      -3.371   0.249 -32.712  1.00  0.00     0.029 A 
BRANCH   7  11
HETATM   11  C   UNL     1      -7.628   0.294 -32.488  1.00  0.00     0.010 A 
HETATM   12  C   UNL     1      -8.613  -0.279 -33.332  1.00  0.00     0.152 A 
HETATM   13  N   UNL     1      -9.860  -0.017 -32.930  1.00  0.00    -0.187 NA
HETATM   14  N   UNL     1      -9.683   0.731 -31.832  1.00  0.00    -0.289 N 
HETATM   15  H   UNL     1     -10.506   1.063 -31.341  1.00  0.00     0.188 HD
HETATM   16  C   UNL     1      -8.370   0.947 -31.524  1.00  0.00     0.123 A 
ENDBRANCH   7  11
ENDBRANCH   2   5
BRANCH   1  17
HETATM   17  C   UNL     1      -2.046   4.506 -31.350  1.00  0.00     0.182 C 
BRANCH  17  18
HETATM   18  S   UNL     1      -2.890   6.068 -30.923  1.00  0.00    -0.121 SA
BRANCH  18  19
HETATM   19  C   UNL     1      -1.585   6.832 -29.977  1.00  0.00     0.001 A 
HETATM   20  C   UNL     1      -0.269   6.785 -30.441  1.00  0.00     0.019 A 
HETATM   21  C   UNL     1       0.762   7.366 -29.697  1.00  0.00     0.008 A 
HETATM   22  C   UNL     1       0.488   8.013 -28.487  1.00  0.00    -0.062 A 
HETATM   23  C   UNL     1       1.589   8.614 -27.665  1.00  0.00     0.048 C 
HETATM   24  C   UNL     1      -0.834   8.067 -28.031  1.00  0.00     0.008 A 
HETATM   25  C   UNL     1      -1.865   7.487 -28.774  1.00  0.00     0.019 A 
ENDBRANCH  18  19
ENDBRANCH  17  18
ENDBRANCH   1  17
TORSDOF 5
ENDMDL
MODEL 10
REMARK VINA RESULT:      -7.2      2.987      7.722
REMARK  5 active torsions:
REMARK  status: ('A' for Active; 'I' for Inactive)
REMARK    1  A    between atoms: C_5  and  S_6 
REMARK    2  A    between atoms: S_6  and  C_7 
REMARK    3  A    between atoms: C_7  and  C_8 
REMARK       I    between atoms: C_8  and  N_9 
REMARK    4  A    between atoms: N_9  and  C_10 
REMARK    5  A    between atoms: C_12  and  C_13 
ROOT
HETATM    1  C   UNL     1      -6.277   1.453 -31.195  1.00  0.00     0.231 C 
HETATM    2  N   UNL     1      -6.288   2.672 -31.847  1.00  0.00    -0.327 N 
HETATM    3  O   UNL     1      -5.546   1.150 -30.253  1.00  0.00    -0.272 OA
HETATM    4  H   UNL     1      -6.910   2.728 -32.648  1.00  0.00     0.169 HD
ENDROOT
BRANCH   2   5
HETATM    5  C   UNL     1      -5.472   3.796 -31.601  1.00  0.00     0.035 A 
HETATM    6  C   UNL     1      -4.444   4.215 -32.451  1.00  0.00     0.042 A 
HETATM    7  C   UNL     1      -3.670   5.351 -32.158  1.00  0.00    -0.021 A 
HETATM    8  C   UNL     1      -3.943   6.064 -30.984  1.00  0.00     0.012 A 
HETATM    9  C   UNL     1      -4.961   5.651 -30.124  1.00  0.00     0.003 A 
HETATM   10  C   UNL     1      -5.721   4.522 -30.432  1.00  0.00     0.029 A 
BRANCH   7  11
HETATM   11  C   UNL     1      -2.617   5.769 -33.075  1.00  0.00     0.010 A 
HETATM   12  C   UNL     1      -1.991   7.029 -33.251  1.00  0.00     0.152 A 
HETATM   13  N   UNL     1      -1.061   7.019 -34.212  1.00  0.00    -0.187 NA
HETATM   14  N   UNL     1      -1.092   5.756 -34.662  1.00  0.00    -0.289 N 
HETATM   15  H   UNL     1      -0.462   5.501 -35.415  1.00  0.00     0.188 HD
HETATM   16  C   UNL     1      -2.003   4.969 -34.017  1.00  0.00     0.123 A 
ENDBRANCH   7  11
ENDBRANCH   2   5
BRANCH   1  17
HETATM   17  C   UNL     1      -7.336   0.464 -31.664  1.00  0.00     0.182 C 
BRANCH  17  18
HETATM   18  S   UNL     1      -7.451   0.336 -33.482  1.00  0.00    -0.121 SA
BRANCH  18  19
HETATM   19  C   UNL     1      -6.365  -1.058 -33.724  1.00  0.00     0.001 A 
HETATM   20  C   UNL     1      -6.778  -2.135 -34.511  1.00  0.00     0.019 A 
HETATM   21  C   UNL     1      -5.940  -3.239 -34.692  1.00  0.00     0.008 A 
HETATM   22  C   UNL     1      -4.673  -3.273 -34.100  1.00  0.00    -0.062 A 
HETATM   23  C   UNL     1      -3.776  -4.465 -34.262  1.00  0.00     0.048 C 
HETATM   24  C   UNL     1      -4.258  -2.187 -33.321  1.00  0.00     0.008 A 
HETATM   25  C   UNL     1      -5.094  -1.083 -33.140  1.00  0.00     0.019 A 
ENDBRANCH  18  19
ENDBRANCH  17  18
ENDBRANCH   1  17
TORSDOF 5
ENDMDL
