MODEL 1
REMARK VINA RESULT:      -7.8      0.000      0.000
REMARK  5 active torsions:
REMARK  status: ('A' for Active; 'I' for Inactive)
REMARK    1  A    between atoms: C_2  and  N_3 
REMARK    2  A    between atoms: N_3  and  C_6 
REMARK    3  A    between atoms: C_6  and  C_7 
REMARK    4  A    between atoms: C_8  and  N_9 
REMARK       I    between atoms: N_9  and  C_10 
REMARK    5  A    between atoms: C_10  and  C_11 
ROOT
HETATM    1  N   UNL     1      -7.801   0.269 -33.178  1.00  0.00    -0.322 N 
HETATM    2  C   UNL     1      -6.833   0.206 -34.156  1.00  0.00     0.259 C 
HETATM    3  O   UNL     1      -6.816   0.893 -35.166  1.00  0.00    -0.267 OA
HETATM    4  H   UNL     1      -7.550  -0.238 -32.330  1.00  0.00     0.169 HD
ENDROOT
BRANCH   1   5
HETATM    5  C   UNL     1      -8.909   1.150 -33.038  1.00  0.00     0.043 A 
HETATM    6  C   UNL     1      -9.005   2.334 -32.271  1.00  0.00    -0.006 A 
HETATM    7  C   UNL     1     -10.249   3.015 -32.243  1.00  0.00     0.011 A 
HETATM    8  C   UNL     1     -11.349   2.578 -32.975  1.00  0.00     0.001 A 
HETATM    9  C   UNL     1     -11.233   1.449 -33.766  1.00  0.00     0.002 A 
HETATM   10  C   UNL     1     -10.028   0.749 -33.799  1.00  0.00     0.030 A 
BRANCH   6  11
HETATM   11  C   UNL     1      -7.897   3.008 -31.496  1.00  0.00     0.273 C 
BRANCH  11  12
HETATM   12  N   UNL     1      -7.563   2.287 -30.234  1.00  0.00    -0.072 N 
HETATM   13  H   UNL     1      -8.185   1.477 -30.136  1.00  0.00     0.277 HD
HETATM   14  H   UNL     1      -7.791   2.933 -29.471  1.00  0.00     0.277 HD
BRANCH  12  15
HETATM   15  C   UNL     1      -6.135   1.904 -30.086  1.00  0.00     0.228 C 
HETATM   16  C   UNL     1      -6.047   0.391 -30.044  1.00  0.00     0.034 C 
ENDBRANCH  12  15
ENDBRANCH  11  12
ENDBRANCH   6  11
ENDBRANCH   1   5
BRANCH   2  17
HETATM   17  C   UNL     1      -5.832  -0.815 -33.942  1.00  0.00     0.067 A 
HETATM   18  C   UNL     1      -5.871  -2.217 -34.224  1.00  0.00     0.015 A 
HETATM   19  C   UNL     1      -4.604  -2.699 -33.908  1.00  0.00     0.086 A 
HETATM   20  C   UNL     1      -6.812  -3.122 -34.756  1.00  0.00     0.015 A 
HETATM   21  C   UNL     1      -4.203  -4.022 -34.071  1.00  0.00     0.038 A 
HETATM   22  O   UNL     1      -3.816  -1.693 -33.445  1.00  0.00    -0.321 OA
HETATM   23  C   UNL     1      -5.152  -4.901 -34.600  1.00  0.00     0.003 A 
HETATM   24  C   UNL     1      -6.433  -4.461 -34.938  1.00  0.00     0.001 A 
HETATM   25  C   UNL     1      -4.555  -0.558 -33.486  1.00  0.00     0.160 A 
ENDBRANCH   2  17
TORSDOF 5
ENDMDL
MODEL 2
REMARK VINA RESULT:      -7.7      1.150      3.144
REMARK  5 active torsions:
REMARK  status: ('A' for Active; 'I' for Inactive)
REMARK    1  A    between atoms: C_2  and  N_3 
REMARK    2  A    between atoms: N_3  and  C_6 
REMARK    3  A    between atoms: C_6  and  C_7 
REMARK    4  A    between atoms: C_8  and  N_9 
REMARK       I    between atoms: N_9  and  C_10 
REMARK    5  A    between atoms: C_10  and  C_11 
ROOT
HETATM    1  N   UNL     1      -7.274   0.625 -32.422  1.00  0.00    -0.322 N 
HETATM    2  C   UNL     1      -6.493   0.550 -33.554  1.00  0.00     0.259 C 
HETATM    3  O   UNL     1      -6.548   1.330 -34.493  1.00  0.00    -0.267 OA
HETATM    4  H   UNL     1      -6.960   0.009 -31.674  1.00  0.00     0.169 HD
ENDROOT
BRANCH   1   5
HETATM    5  C   UNL     1      -8.219   1.610 -32.023  1.00  0.00     0.043 A 
HETATM    6  C   UNL     1      -9.486   1.898 -32.582  1.00  0.00    -0.006 A 
HETATM    7  C   UNL     1     -10.226   2.981 -32.043  1.00  0.00     0.011 A 
HETATM    8  C   UNL     1      -9.764   3.729 -30.963  1.00  0.00     0.001 A 
HETATM    9  C   UNL     1      -8.549   3.409 -30.386  1.00  0.00     0.002 A 
HETATM   10  C   UNL     1      -7.791   2.361 -30.907  1.00  0.00     0.030 A 
BRANCH   6  11
HETATM   11  C   UNL     1     -10.188   1.138 -33.683  1.00  0.00     0.273 C 
BRANCH  11  12
HETATM   12  N   UNL     1     -11.371   0.378 -33.189  1.00  0.00    -0.072 N 
HETATM   13  H   UNL     1     -11.417   0.457 -32.166  1.00  0.00     0.277 HD
HETATM   14  H   UNL     1     -11.185  -0.606 -33.405  1.00  0.00     0.277 HD
BRANCH  12  15
HETATM   15  C   UNL     1     -12.664   0.740 -33.826  1.00  0.00     0.228 C 
HETATM   16  C   UNL     1     -12.371   1.541 -35.080  1.00  0.00     0.034 C 
ENDBRANCH  12  15
ENDBRANCH  11  12
ENDBRANCH   6  11
ENDBRANCH   1   5
BRANCH   2  17
HETATM   17  C   UNL     1      -5.615  -0.597 -33.599  1.00  0.00     0.067 A 
HETATM   18  C   UNL     1      -5.869  -1.936 -34.033  1.00  0.00     0.015 A 
HETATM   19  C   UNL     1      -4.646  -2.596 -33.952  1.00  0.00     0.086 A 
HETATM   20  C   UNL     1      -6.977  -2.651 -34.532  1.00  0.00     0.015 A 
HETATM   21  C   UNL     1      -4.443  -3.923 -34.320  1.00  0.00     0.038 A 
HETATM   22  O   UNL     1      -3.684  -1.756 -33.488  1.00  0.00    -0.321 OA
HETATM   23  C   UNL     1      -5.555  -4.612 -34.812  1.00  0.00     0.003 A 
HETATM   24  C   UNL     1      -6.800  -3.989 -34.918  1.00  0.00     0.001 A 
HETATM   25  C   UNL     1      -4.268  -0.549 -33.296  1.00  0.00     0.160 A 
ENDBRANCH   2  17
TORSDOF 5
ENDMDL
MODEL 3
REMARK VINA RESULT:      -7.7      1.351      1.527
REMARK  5 active torsions:
REMARK  status: ('A' for Active; 'I' for Inactive)
REMARK    1  A    between atoms: C_2  and  N_3 
REMARK    2  A    between atoms: N_3  and  C_6 
REMARK    3  A    between atoms: C_6  and  C_7 
REMARK    4  A    between atoms: C_8  and  N_9 
REMARK       I    between atoms: N_9  and  C_10 
REMARK    5  A    between atoms: C_10  and  C_11 
ROOT
HETATM    1  N   UNL     1      -7.808   0.219 -33.306  1.00  0.00    -0.322 N 
HETATM    2  C   UNL     1      -6.835   0.112 -34.275  1.00  0.00     0.259 C 
HETATM    3  O   UNL     1      -6.817   0.746 -35.319  1.00  0.00    -0.267 OA
HETATM    4  H   UNL     1      -7.559  -0.241 -32.432  1.00  0.00     0.169 HD
ENDROOT
BRANCH   1   5
HETATM    5  C   UNL     1      -8.922   1.099 -33.218  1.00  0.00     0.043 A 
HETATM    6  C   UNL     1      -8.938   2.476 -32.896  1.00  0.00    -0.006 A 
HETATM    7  C   UNL     1     -10.194   3.130 -32.810  1.00  0.00     0.011 A 
HETATM    8  C   UNL     1     -11.392   2.471 -33.074  1.00  0.00     0.001 A 
HETATM    9  C   UNL     1     -11.366   1.138 -33.442  1.00  0.00     0.002 A 
HETATM   10  C   UNL     1     -10.147   0.465 -33.516  1.00  0.00     0.030 A 
BRANCH   6  11
HETATM   11  C   UNL     1      -7.742   3.372 -32.674  1.00  0.00     0.273 C 
BRANCH  11  12
HETATM   12  N   UNL     1      -7.015   3.678 -33.939  1.00  0.00    -0.072 N 
HETATM   13  H   UNL     1      -7.456   4.486 -34.392  1.00  0.00     0.277 HD
HETATM   14  H   UNL     1      -7.165   2.872 -34.553  1.00  0.00     0.277 HD
BRANCH  12  15
HETATM   15  C   UNL     1      -5.547   3.863 -33.793  1.00  0.00     0.228 C 
HETATM   16  C   UNL     1      -5.062   2.971 -32.667  1.00  0.00     0.034 C 
ENDBRANCH  12  15
ENDBRANCH  11  12
ENDBRANCH   6  11
ENDBRANCH   1   5
BRANCH   2  17
HETATM   17  C   UNL     1      -5.829  -0.890 -34.003  1.00  0.00     0.067 A 
HETATM   18  C   UNL     1      -5.838  -2.297 -34.259  1.00  0.00     0.015 A 
HETATM   19  C   UNL     1      -4.577  -2.755 -33.886  1.00  0.00     0.086 A 
HETATM   20  C   UNL     1      -6.745  -3.227 -34.807  1.00  0.00     0.015 A 
HETATM   21  C   UNL     1      -4.152  -4.074 -34.007  1.00  0.00     0.038 A 
HETATM   22  O   UNL     1      -3.821  -1.729 -33.414  1.00  0.00    -0.321 OA
HETATM   23  C   UNL     1      -5.067  -4.977 -34.553  1.00  0.00     0.003 A 
HETATM   24  C   UNL     1      -6.341  -4.563 -34.947  1.00  0.00     0.001 A 
HETATM   25  C   UNL     1      -4.573  -0.605 -33.505  1.00  0.00     0.160 A 
ENDBRANCH   2  17
TORSDOF 5
ENDMDL
MODEL 4
REMARK VINA RESULT:      -7.6      2.049      6.281
REMARK  5 active torsions:
REMARK  status: ('A' for Active; 'I' for Inactive)
REMARK    1  A    between atoms: C_2  and  N_3 
REMARK    2  A    between atoms: N_3  and  C_6 
REMARK    3  A    between atoms: C_6  and  C_7 
REMARK    4  A    between atoms: C_8  and  N_9 
REMARK       I    between atoms: N_9  and  C_10 
REMARK    5  A    between atoms: C_10  and  C_11 
ROOT
HETATM    1  N   UNL     1      -6.724  -0.919 -34.237  1.00  0.00    -0.322 N 
HETATM    2  C   UNL     1      -7.038  -0.106 -33.170  1.00  0.00     0.259 C 
HETATM    3  O   UNL     1      -6.821  -0.376 -31.999  1.00  0.00    -0.267 OA
HETATM    4  H   UNL     1      -6.806  -0.450 -35.138  1.00  0.00     0.169 HD
ENDROOT
BRANCH   1   5
HETATM    5  C   UNL     1      -6.028  -2.158 -34.273  1.00  0.00     0.043 A 
HETATM    6  C   UNL     1      -4.684  -2.428 -33.924  1.00  0.00    -0.006 A 
HETATM    7  C   UNL     1      -4.197  -3.747 -34.105  1.00  0.00     0.011 A 
HETATM    8  C   UNL     1      -5.008  -4.780 -34.569  1.00  0.00     0.001 A 
HETATM    9  C   UNL     1      -6.336  -4.522 -34.857  1.00  0.00     0.002 A 
HETATM   10  C   UNL     1      -6.838  -3.230 -34.706  1.00  0.00     0.030 A 
BRANCH   6  11
HETATM   11  C   UNL     1      -3.691  -1.464 -33.319  1.00  0.00     0.273 C 
BRANCH  11  12
HETATM   12  N   UNL     1      -3.884  -1.291 -31.851  1.00  0.00    -0.072 N 
HETATM   13  H   UNL     1      -3.577  -2.145 -31.369  1.00  0.00     0.277 HD
HETATM   14  H   UNL     1      -4.896  -1.214 -31.706  1.00  0.00     0.277 HD
BRANCH  12  15
HETATM   15  C   UNL     1      -3.254  -0.077 -31.271  1.00  0.00     0.228 C 
HETATM   16  C   UNL     1      -3.597   1.108 -32.153  1.00  0.00     0.034 C 
ENDBRANCH  12  15
ENDBRANCH  11  12
ENDBRANCH   6  11
ENDBRANCH   1   5
BRANCH   2  17
HETATM   17  C   UNL     1      -7.733   1.110 -33.529  1.00  0.00     0.067 A 
HETATM   18  C   UNL     1      -9.135   1.366 -33.655  1.00  0.00     0.015 A 
HETATM   19  C   UNL     1      -9.245   2.727 -33.927  1.00  0.00     0.086 A 
HETATM   20  C   UNL     1     -10.323   0.619 -33.522  1.00  0.00     0.015 A 
HETATM   21  C   UNL     1     -10.452   3.402 -34.088  1.00  0.00     0.038 A 
HETATM   22  O   UNL     1      -8.014   3.299 -33.987  1.00  0.00    -0.321 OA
HETATM   23  C   UNL     1     -11.615   2.641 -33.951  1.00  0.00     0.003 A 
HETATM   24  C   UNL     1     -11.555   1.274 -33.672  1.00  0.00     0.001 A 
HETATM   25  C   UNL     1      -7.109   2.325 -33.727  1.00  0.00     0.160 A 
ENDBRANCH   2  17
TORSDOF 5
ENDMDL
MODEL 5
REMARK VINA RESULT:      -7.4      2.011      6.337
REMARK  5 active torsions:
REMARK  status: ('A' for Active; 'I' for Inactive)
REMARK    1  A    between atoms: C_2  and  N_3 
REMARK    2  A    between atoms: N_3  and  C_6 
REMARK    3  A    between atoms: C_6  and  C_7 
REMARK    4  A    between atoms: C_8  and  N_9 
REMARK       I    between atoms: N_9  and  C_10 
REMARK    5  A    between atoms: C_10  and  C_11 
ROOT
HETATM    1  N   UNL     1      -8.076   0.094 -34.150  1.00  0.00    -0.322 N 
HETATM    2  C   UNL     1      -9.030   0.482 -33.235  1.00  0.00     0.259 C 
HETATM    3  O   UNL     1      -9.031   0.170 -32.053  1.00  0.00    -0.267 OA
HETATM    4  H   UNL     1      -8.135   0.600 -35.032  1.00  0.00     0.169 HD
ENDROOT
BRANCH   1   5
HETATM    5  C   UNL     1      -6.871  -0.639 -33.965  1.00  0.00     0.043 A 
HETATM    6  C   UNL     1      -5.731  -0.291 -33.204  1.00  0.00    -0.006 A 
HETATM    7  C   UNL     1      -4.618  -1.168 -33.224  1.00  0.00     0.011 A 
HETATM    8  C   UNL     1      -4.634  -2.369 -33.929  1.00  0.00     0.001 A 
HETATM    9  C   UNL     1      -5.771  -2.731 -34.627  1.00  0.00     0.002 A 
HETATM   10  C   UNL     1      -6.875  -1.879 -34.640  1.00  0.00     0.030 A 
BRANCH   6  11
HETATM   11  C   UNL     1      -5.571   0.915 -32.307  1.00  0.00     0.273 C 
BRANCH  11  12
HETATM   12  N   UNL     1      -6.224   0.730 -30.980  1.00  0.00    -0.072 N 
HETATM   13  H   UNL     1      -5.626   0.139 -30.391  1.00  0.00     0.277 HD
HETATM   14  H   UNL     1      -7.084   0.202 -31.159  1.00  0.00     0.277 HD
BRANCH  12  15
HETATM   15  C   UNL     1      -6.606   1.988 -30.285  1.00  0.00     0.228 C 
HETATM   16  C   UNL     1      -6.589   3.117 -31.297  1.00  0.00     0.034 C 
ENDBRANCH  12  15
ENDBRANCH  11  12
ENDBRANCH   6  11
ENDBRANCH   1   5
BRANCH   2  17
HETATM   17  C   UNL     1     -10.115   1.256 -33.794  1.00  0.00     0.067 A 
HETATM   18  C   UNL     1     -11.513   0.962 -33.870  1.00  0.00     0.015 A 
HETATM   19  C   UNL     1     -12.106   2.096 -34.418  1.00  0.00     0.086 A 
HETATM   20  C   UNL     1     -12.350  -0.108 -33.494  1.00  0.00     0.015 A 
HETATM   21  C   UNL     1     -13.473   2.242 -34.633  1.00  0.00     0.038 A 
HETATM   22  O   UNL     1     -11.166   3.039 -34.689  1.00  0.00    -0.321 OA
HETATM   23  C   UNL     1     -14.283   1.169 -34.251  1.00  0.00     0.003 A 
HETATM   24  C   UNL     1     -13.733   0.014 -33.692  1.00  0.00     0.001 A 
HETATM   25  C   UNL     1      -9.972   2.536 -34.293  1.00  0.00     0.160 A 
ENDBRANCH   2  17
TORSDOF 5
ENDMDL
MODEL 6
REMARK VINA RESULT:      -7.3      2.786      6.405
REMARK  5 active torsions:
REMARK  status: ('A' for Active; 'I' for Inactive)
REMARK    1  A    between atoms: C_2  and  N_3 
REMARK    2  A    between atoms: N_3  and  C_6 
REMARK    3  A    between atoms: C_6  and  C_7 
REMARK    4  A    between atoms: C_8  and  N_9 
REMARK       I    between atoms: N_9  and  C_10 
REMARK    5  A    between atoms: C_10  and  C_11 
ROOT
HETATM    1  N   UNL     1      -4.698  -0.373 -33.505  1.00  0.00    -0.322 N 
HETATM    2  C   UNL     1      -5.070   0.369 -32.405  1.00  0.00     0.259 C 
HETATM    3  O   UNL     1      -5.995   0.092 -31.656  1.00  0.00    -0.267 OA
HETATM    4  H   UNL     1      -3.798  -0.095 -33.892  1.00  0.00     0.169 HD
ENDROOT
BRANCH   1   5
HETATM    5  C   UNL     1      -5.191  -1.620 -33.980  1.00  0.00     0.043 A 
HETATM    6  C   UNL     1      -6.459  -1.917 -34.532  1.00  0.00    -0.006 A 
HETATM    7  C   UNL     1      -6.740  -3.262 -34.880  1.00  0.00     0.011 A 
HETATM    8  C   UNL     1      -5.797  -4.277 -34.735  1.00  0.00     0.001 A 
HETATM    9  C   UNL     1      -4.541  -3.971 -34.246  1.00  0.00     0.002 A 
HETATM   10  C   UNL     1      -4.243  -2.660 -33.878  1.00  0.00     0.030 A 
BRANCH   6  11
HETATM   11  C   UNL     1      -7.564  -0.937 -34.850  1.00  0.00     0.273 C 
BRANCH  11  12
HETATM   12  N   UNL     1      -8.239  -0.420 -33.625  1.00  0.00    -0.072 N 
HETATM   13  H   UNL     1      -7.529  -0.218 -32.911  1.00  0.00     0.277 HD
HETATM   14  H   UNL     1      -8.810  -1.192 -33.270  1.00  0.00     0.277 HD
BRANCH  12  15
HETATM   15  C   UNL     1      -9.141   0.741 -33.846  1.00  0.00     0.228 C 
HETATM   16  C   UNL     1     -10.479   0.436 -33.199  1.00  0.00     0.034 C 
ENDBRANCH  12  15
ENDBRANCH  11  12
ENDBRANCH   6  11
ENDBRANCH   1   5
BRANCH   2  17
HETATM   17  C   UNL     1      -4.311   1.584 -32.219  1.00  0.00     0.067 A 
HETATM   18  C   UNL     1      -4.521   2.893 -32.757  1.00  0.00     0.015 A 
HETATM   19  C   UNL     1      -3.549   3.700 -32.173  1.00  0.00     0.086 A 
HETATM   20  C   UNL     1      -5.449   3.498 -33.629  1.00  0.00     0.015 A 
HETATM   21  C   UNL     1      -3.422   5.068 -32.400  1.00  0.00     0.038 A 
HETATM   22  O   UNL     1      -2.765   2.969 -31.338  1.00  0.00    -0.321 OA
HETATM   23  C   UNL     1      -4.353   5.645 -33.267  1.00  0.00     0.003 A 
HETATM   24  C   UNL     1      -5.350   4.876 -33.871  1.00  0.00     0.001 A 
HETATM   25  C   UNL     1      -3.240   1.700 -31.355  1.00  0.00     0.160 A 
ENDBRANCH   2  17
TORSDOF 5
ENDMDL
MODEL 7
REMARK VINA RESULT:      -7.2      2.191      3.799
REMARK  5 active torsions:
REMARK  status: ('A' for Active; 'I' for Inactive)
REMARK    1  A    between atoms: C_2  and  N_3 
REMARK    2  A    between atoms: N_3  and  C_6 
REMARK    3  A    between atoms: C_6  and  C_7 
REMARK    4  A    between atoms: C_8  and  N_9 
REMARK       I    between atoms: N_9  and  C_10 
REMARK    5  A    between atoms: C_10  and  C_11 
ROOT
HETATM    1  N   UNL     1      -4.261   0.803 -32.219  1.00  0.00    -0.322 N 
HETATM    2  C   UNL     1      -4.865  -0.021 -33.142  1.00  0.00     0.259 C 
HETATM    3  O   UNL     1      -5.726   0.332 -33.935  1.00  0.00    -0.267 OA
HETATM    4  H   UNL     1      -3.442   0.383 -31.780  1.00  0.00     0.169 HD
ENDROOT
BRANCH   1   5
HETATM    5  C   UNL     1      -4.393   2.204 -32.012  1.00  0.00     0.043 A 
HETATM    6  C   UNL     1      -5.502   2.922 -31.508  1.00  0.00    -0.006 A 
HETATM    7  C   UNL     1      -5.417   4.336 -31.453  1.00  0.00     0.011 A 
HETATM    8  C   UNL     1      -4.267   5.024 -31.835  1.00  0.00     0.001 A 
HETATM    9  C   UNL     1      -3.166   4.313 -32.277  1.00  0.00     0.002 A 
HETATM   10  C   UNL     1      -3.229   2.922 -32.360  1.00  0.00     0.030 A 
BRANCH   6  11
HETATM   11  C   UNL     1      -6.786   2.345 -30.959  1.00  0.00     0.273 C 
BRANCH  11  12
HETATM   12  N   UNL     1      -7.697   1.854 -32.033  1.00  0.00    -0.072 N 
HETATM   13  H   UNL     1      -7.156   1.715 -32.894  1.00  0.00     0.277 HD
HETATM   14  H   UNL     1      -8.357   2.617 -32.214  1.00  0.00     0.277 HD
BRANCH  12  15
HETATM   15  C   UNL     1      -8.491   0.648 -31.683  1.00  0.00     0.228 C 
HETATM   16  C   UNL     1      -9.071   0.070 -32.959  1.00  0.00     0.034 C 
ENDBRANCH  12  15
ENDBRANCH  11  12
ENDBRANCH   6  11
ENDBRANCH   1   5
BRANCH   2  17
HETATM   17  C   UNL     1      -4.453  -1.404 -33.071  1.00  0.00     0.067 A 
HETATM   18  C   UNL     1      -4.932  -2.547 -33.785  1.00  0.00     0.015 A 
HETATM   19  C   UNL     1      -4.115  -3.604 -33.394  1.00  0.00     0.086 A 
HETATM   20  C   UNL     1      -5.927  -2.799 -34.751  1.00  0.00     0.015 A 
HETATM   21  C   UNL     1      -4.221  -4.902 -33.886  1.00  0.00     0.038 A 
HETATM   22  O   UNL     1      -3.193  -3.182 -32.490  1.00  0.00    -0.321 OA
HETATM   23  C   UNL     1      -5.213  -5.128 -34.843  1.00  0.00     0.003 A 
HETATM   24  C   UNL     1      -6.052  -4.097 -35.270  1.00  0.00     0.001 A 
HETATM   25  C   UNL     1      -3.388  -1.853 -32.314  1.00  0.00     0.160 A 
ENDBRANCH   2  17
TORSDOF 5
ENDMDL
MODEL 8
REMARK VINA RESULT:      -7.2      4.044      6.498
REMARK  5 active torsions:
REMARK  status: ('A' for Active; 'I' for Inactive)
REMARK    1  A    between atoms: C_2  and  N_3 
REMARK    2  A    between atoms: N_3  and  C_6 
REMARK    3  A    between atoms: C_6  and  C_7 
REMARK    4  A    between atoms: C_8  and  N_9 
REMARK       I    between atoms: N_9  and  C_10 
REMARK    5  A    between atoms: C_10  and  C_11 
ROOT
HETATM    1  N   UNL     1      -5.646   1.970 -32.431  1.00  0.00    -0.322 N 
HETATM    2  C   UNL     1      -5.165   3.067 -33.110  1.00  0.00     0.259 C 
HETATM    3  O   UNL     1      -5.726   3.607 -34.052  1.00  0.00    -0.267 OA
HETATM    4  H   UNL     1      -5.143   1.779 -31.566  1.00  0.00     0.169 HD
ENDROOT
BRANCH   1   5
HETATM    5  C   UNL     1      -6.879   1.274 -32.567  1.00  0.00     0.043 A 
HETATM    6  C   UNL     1      -7.156   0.101 -33.307  1.00  0.00    -0.006 A 
HETATM    7  C   UNL     1      -8.492  -0.372 -33.339  1.00  0.00     0.011 A 
HETATM    8  C   UNL     1      -9.516   0.254 -32.634  1.00  0.00     0.001 A 
HETATM    9  C   UNL     1      -9.230   1.370 -31.868  1.00  0.00     0.002 A 
HETATM   10  C   UNL     1      -7.928   1.868 -31.833  1.00  0.00     0.030 A 
BRANCH   6  11
HETATM   11  C   UNL     1      -6.161  -0.761 -34.049  1.00  0.00     0.273 C 
BRANCH  11  12
HETATM   12  N   UNL     1      -6.756  -2.047 -34.516  1.00  0.00    -0.072 N 
HETATM   13  H   UNL     1      -7.446  -1.850 -35.249  1.00  0.00     0.277 HD
HETATM   14  H   UNL     1      -7.270  -2.427 -33.715  1.00  0.00     0.277 HD
BRANCH  12  15
HETATM   15  C   UNL     1      -5.773  -3.075 -34.947  1.00  0.00     0.228 C 
HETATM   16  C   UNL     1      -6.511  -4.383 -35.157  1.00  0.00     0.034 C 
ENDBRANCH  12  15
ENDBRANCH  11  12
ENDBRANCH   6  11
ENDBRANCH   1   5
BRANCH   2  17
HETATM   17  C   UNL     1      -3.866   3.522 -32.668  1.00  0.00     0.067 A 
HETATM   18  C   UNL     1      -3.068   4.616 -33.127  1.00  0.00     0.015 A 
HETATM   19  C   UNL     1      -1.959   4.651 -32.286  1.00  0.00     0.086 A 
HETATM   20  C   UNL     1      -3.178   5.610 -34.120  1.00  0.00     0.015 A 
HETATM   21  C   UNL     1      -0.941   5.597 -32.366  1.00  0.00     0.038 A 
HETATM   22  O   UNL     1      -2.028   3.651 -31.370  1.00  0.00    -0.321 OA
HETATM   23  C   UNL     1      -1.072   6.573 -33.358  1.00  0.00     0.003 A 
HETATM   24  C   UNL     1      -2.170   6.581 -34.220  1.00  0.00     0.001 A 
HETATM   25  C   UNL     1      -3.187   2.986 -31.592  1.00  0.00     0.160 A 
ENDBRANCH   2  17
TORSDOF 5
ENDMDL
MODEL 9
REMARK VINA RESULT:      -7.2      1.673      2.346
REMARK  5 active torsions:
REMARK  status: ('A' for Active; 'I' for Inactive)
REMARK    1  A    between atoms: C_2  and  N_3 
REMARK    2  A    between atoms: N_3  and  C_6 
REMARK    3  A    between atoms: C_6  and  C_7 
REMARK    4  A    between atoms: C_8  and  N_9 
REMARK       I    between atoms: N_9  and  C_10 
REMARK    5  A    between atoms: C_10  and  C_11 
ROOT
HETATM    1  N   UNL     1      -6.478   0.326 -31.802  1.00  0.00    -0.322 N 
HETATM    2  C   UNL     1      -5.945   0.134 -33.058  1.00  0.00     0.259 C 
HETATM    3  O   UNL     1      -6.075   0.906 -33.997  1.00  0.00    -0.267 OA
HETATM    4  H   UNL     1      -6.109  -0.321 -31.106  1.00  0.00     0.169 HD
ENDROOT
BRANCH   1   5
HETATM    5  C   UNL     1      -7.190   1.434 -31.267  1.00  0.00     0.043 A 
HETATM    6  C   UNL     1      -6.711   2.480 -30.444  1.00  0.00    -0.006 A 
HETATM    7  C   UNL     1      -7.638   3.448 -29.981  1.00  0.00     0.011 A 
HETATM    8  C   UNL     1      -8.981   3.421 -30.348  1.00  0.00     0.001 A 
HETATM    9  C   UNL     1      -9.434   2.427 -31.196  1.00  0.00     0.002 A 
HETATM   10  C   UNL     1      -8.548   1.451 -31.651  1.00  0.00     0.030 A 
BRANCH   6  11
HETATM   11  C   UNL     1      -5.280   2.724 -30.027  1.00  0.00     0.273 C 
BRANCH  11  12
HETATM   12  N   UNL     1      -4.675   3.898 -30.720  1.00  0.00    -0.072 N 
HETATM   13  H   UNL     1      -4.702   4.709 -30.091  1.00  0.00     0.277 HD
HETATM   14  H   UNL     1      -5.294   4.110 -31.508  1.00  0.00     0.277 HD
BRANCH  12  15
HETATM   15  C   UNL     1      -3.312   3.673 -31.268  1.00  0.00     0.228 C 
HETATM   16  C   UNL     1      -3.405   2.634 -32.369  1.00  0.00     0.034 C 
ENDBRANCH  12  15
ENDBRANCH  11  12
ENDBRANCH   6  11
ENDBRANCH   1   5
BRANCH   2  17
HETATM   17  C   UNL     1      -5.250  -1.121 -33.228  1.00  0.00     0.067 A 
HETATM   18  C   UNL     1      -5.668  -2.325 -33.879  1.00  0.00     0.015 A 
HETATM   19  C   UNL     1      -4.570  -3.180 -33.828  1.00  0.00     0.086 A 
HETATM   20  C   UNL     1      -6.825  -2.771 -34.548  1.00  0.00     0.015 A 
HETATM   21  C   UNL     1      -4.541  -4.455 -34.385  1.00  0.00     0.038 A 
HETATM   22  O   UNL     1      -3.534  -2.583 -33.183  1.00  0.00    -0.321 OA
HETATM   23  C   UNL     1      -5.699  -4.876 -35.043  1.00  0.00     0.003 A 
HETATM   24  C   UNL     1      -6.822  -4.050 -35.125  1.00  0.00     0.001 A 
HETATM   25  C   UNL     1      -3.942  -1.337 -32.841  1.00  0.00     0.160 A 
ENDBRANCH   2  17
TORSDOF 5
ENDMDL
MODEL 10
REMARK VINA RESULT:      -7.1      3.208      4.964
REMARK  5 active torsions:
REMARK  status: ('A' for Active; 'I' for Inactive)
REMARK    1  A    between atoms: C_2  and  N_3 
REMARK    2  A    between atoms: N_3  and  C_6 
REMARK    3  A    between atoms: C_6  and  C_7 
REMARK    4  A    between atoms: C_8  and  N_9 
REMARK       I    between atoms: N_9  and  C_10 
REMARK    5  A    between atoms: C_10  and  C_11 
ROOT
HETATM    1  N   UNL     1      -4.814   2.262 -32.549  1.00  0.00    -0.322 N 
HETATM    2  C   UNL     1      -4.916   0.998 -32.010  1.00  0.00     0.259 C 
HETATM    3  O   UNL     1      -4.299   0.605 -31.032  1.00  0.00    -0.267 OA
HETATM    4  H   UNL     1      -5.536   2.466 -33.237  1.00  0.00     0.169 HD
ENDROOT
BRANCH   1   5
HETATM    5  C   UNL     1      -4.090   3.398 -32.093  1.00  0.00     0.043 A 
HETATM    6  C   UNL     1      -4.476   4.369 -31.139  1.00  0.00    -0.006 A 
HETATM    7  C   UNL     1      -3.598   5.455 -30.895  1.00  0.00     0.011 A 
HETATM    8  C   UNL     1      -2.363   5.566 -31.529  1.00  0.00     0.001 A 
HETATM    9  C   UNL     1      -1.967   4.586 -32.421  1.00  0.00     0.002 A 
HETATM   10  C   UNL     1      -2.818   3.516 -32.694  1.00  0.00     0.030 A 
BRANCH   6  11
HETATM   11  C   UNL     1      -5.724   4.361 -30.288  1.00  0.00     0.273 C 
BRANCH  11  12
HETATM   12  N   UNL     1      -5.421   4.386 -28.829  1.00  0.00    -0.072 N 
HETATM   13  H   UNL     1      -4.403   4.372 -28.697  1.00  0.00     0.277 HD
HETATM   14  H   UNL     1      -5.784   3.506 -28.450  1.00  0.00     0.277 HD
BRANCH  12  15
HETATM   15  C   UNL     1      -6.057   5.496 -28.072  1.00  0.00     0.228 C 
HETATM   16  C   UNL     1      -4.963   6.311 -27.409  1.00  0.00     0.034 C 
ENDBRANCH  12  15
ENDBRANCH  11  12
ENDBRANCH   6  11
ENDBRANCH   1   5
BRANCH   2  17
HETATM   17  C   UNL     1      -5.783   0.104 -32.743  1.00  0.00     0.067 A 
HETATM   18  C   UNL     1      -5.474  -1.093 -33.464  1.00  0.00     0.015 A 
HETATM   19  C   UNL     1      -6.698  -1.600 -33.891  1.00  0.00     0.086 A 
HETATM   20  C   UNL     1      -4.311  -1.831 -33.761  1.00  0.00     0.015 A 
HETATM   21  C   UNL     1      -6.852  -2.785 -34.604  1.00  0.00     0.038 A 
HETATM   22  O   UNL     1      -7.713  -0.789 -33.492  1.00  0.00    -0.321 OA
HETATM   23  C   UNL     1      -5.685  -3.500 -34.886  1.00  0.00     0.003 A 
HETATM   24  C   UNL     1      -4.436  -3.033 -34.473  1.00  0.00     0.001 A 
HETATM   25  C   UNL     1      -7.158   0.225 -32.785  1.00  0.00     0.160 A 
ENDBRANCH   2  17
TORSDOF 5
ENDMDL
