MODEL 1
REMARK VINA RESULT:      -8.4      0.000      0.000
REMARK  6 active torsions:
REMARK  status: ('A' for Active; 'I' for Inactive)
REMARK    1  A    between atoms: O_2  and  C_3 
REMARK    2  A    between atoms: C_6  and  C_7 
REMARK    3  A    between atoms: C_7  and  C_8 
REMARK    4  A    between atoms: C_8  and  C_9 
REMARK       I    between atoms: C_9  and  N_10 
REMARK    5  A    between atoms: N_10  and  N_11 
REMARK    6  A    between atoms: C_12  and  C_13 
ROOT
HETATM    1  C   UNL     1      -9.232   2.438 -34.225  1.00  0.00     0.237 C 
HETATM    2  N   UNL     1      -8.974   1.312 -34.994  1.00  0.00    -0.247 N 
HETATM    3  O   UNL     1      -8.441   2.977 -33.455  1.00  0.00    -0.272 OA
HETATM    4  H   UNL     1      -9.681   0.939 -35.617  1.00  0.00     0.192 HD
ENDROOT
BRANCH   2   5
HETATM    5  N   UNL     1      -7.750   0.712 -34.925  1.00  0.00    -0.184 NA
HETATM    6  C   UNL     1      -7.654  -0.286 -34.106  1.00  0.00     0.152 C 
BRANCH   6   7
HETATM    7  C   UNL     1      -6.393  -0.984 -33.973  1.00  0.00     0.011 A 
HETATM    8  C   UNL     1      -6.127  -2.363 -34.256  1.00  0.00     0.004 A 
HETATM    9  C   UNL     1      -4.777  -2.591 -33.983  1.00  0.00     0.043 A 
HETATM   10  C   UNL     1      -6.908  -3.444 -34.716  1.00  0.00     0.014 A 
HETATM   11  C   UNL     1      -4.169  -3.841 -34.149  1.00  0.00     0.030 A 
HETATM   12  N   UNL     1      -4.242  -1.399 -33.551  1.00  0.00    -0.364 N 
HETATM   13  C   UNL     1      -4.966  -4.894 -34.606  1.00  0.00     0.002 A 
HETATM   14  C   UNL     1      -6.315  -4.702 -34.886  1.00  0.00     0.001 A 
HETATM   15  H   UNL     1      -3.277  -1.265 -33.280  1.00  0.00     0.165 HD
HETATM   16  C   UNL     1      -5.204  -0.429 -33.539  1.00  0.00     0.102 A 
ENDBRANCH   6   7
ENDBRANCH   2   5
BRANCH   1  17
HETATM   17  C   UNL     1     -10.643   2.956 -34.393  1.00  0.00     0.109 C 
BRANCH  17  18
HETATM   18  C   UNL     1     -11.586   1.813 -34.753  1.00  0.00     0.048 C 
BRANCH  18  19
HETATM   19  C   UNL     1     -12.877   1.885 -33.978  1.00  0.00    -0.058 A 
HETATM   20  C   UNL     1     -13.009   2.737 -32.877  1.00  0.00     0.010 A 
HETATM   21  C   UNL     1     -14.212   2.790 -32.169  1.00  0.00     0.037 A 
HETATM   22  C   UNL     1     -15.298   1.996 -32.543  1.00  0.00     0.068 A 
HETATM   23  C   UNL     1     -15.166   1.133 -33.631  1.00  0.00     0.037 A 
HETATM   24  C   UNL     1     -13.963   1.079 -34.343  1.00  0.00     0.010 A 
BRANCH  22  25
HETATM   25  O   UNL     1     -16.415   2.151 -31.771  1.00  0.00    -0.356 OA
HETATM   26  C   UNL     1     -17.578   2.651 -32.420  1.00  0.00     0.210 C 
ENDBRANCH  22  25
ENDBRANCH  18  19
ENDBRANCH  17  18
ENDBRANCH   1  17
TORSDOF 6
ENDMDL
MODEL 2
REMARK VINA RESULT:      -7.9      5.553      9.357
REMARK  6 active torsions:
REMARK  status: ('A' for Active; 'I' for Inactive)
REMARK    1  A    between atoms: O_2  and  C_3 
REMARK    2  A    between atoms: C_6  and  C_7 
REMARK    3  A    between atoms: C_7  and  C_8 
REMARK    4  A    between atoms: C_8  and  C_9 
REMARK       I    between atoms: C_9  and  N_10 
REMARK    5  A    between atoms: N_10  and  N_11 
REMARK    6  A    between atoms: C_12  and  C_13 
ROOT
HETATM    1  C   UNL     1      -6.050   2.351 -32.135  1.00  0.00     0.237 C 
HETATM    2  N   UNL     1      -5.555   2.907 -33.306  1.00  0.00    -0.247 N 
HETATM    3  O   UNL     1      -5.908   2.814 -31.006  1.00  0.00    -0.272 OA
HETATM    4  H   UNL     1      -5.731   2.468 -34.201  1.00  0.00     0.192 HD
ENDROOT
BRANCH   2   5
HETATM    5  N   UNL     1      -4.841   4.070 -33.253  1.00  0.00    -0.184 NA
HETATM    6  C   UNL     1      -3.554   3.942 -33.212  1.00  0.00     0.152 C 
BRANCH   6   7
HETATM    7  C   UNL     1      -2.719   5.123 -33.159  1.00  0.00     0.011 A 
HETATM    8  C   UNL     1      -1.664   5.403 -32.231  1.00  0.00     0.004 A 
HETATM    9  C   UNL     1      -1.140   6.654 -32.563  1.00  0.00     0.043 A 
HETATM   10  C   UNL     1      -1.104   4.713 -31.135  1.00  0.00     0.014 A 
HETATM   11  C   UNL     1      -0.085   7.247 -31.858  1.00  0.00     0.030 A 
HETATM   12  N   UNL     1      -1.846   7.117 -33.648  1.00  0.00    -0.364 N 
HETATM   13  C   UNL     1       0.450   6.541 -30.776  1.00  0.00     0.002 A 
HETATM   14  C   UNL     1      -0.050   5.293 -30.418  1.00  0.00     0.001 A 
HETATM   15  H   UNL     1      -1.684   8.004 -34.106  1.00  0.00     0.165 HD
HETATM   16  C   UNL     1      -2.799   6.207 -34.013  1.00  0.00     0.102 A 
ENDBRANCH   6   7
ENDBRANCH   2   5
BRANCH   1  17
HETATM   17  C   UNL     1      -6.785   1.050 -32.365  1.00  0.00     0.109 C 
BRANCH  17  18
HETATM   18  C   UNL     1      -6.715   0.656 -33.837  1.00  0.00     0.048 C 
BRANCH  18  19
HETATM   19  C   UNL     1      -6.160  -0.734 -34.020  1.00  0.00    -0.058 A 
HETATM   20  C   UNL     1      -4.858  -1.048 -33.617  1.00  0.00     0.010 A 
HETATM   21  C   UNL     1      -4.360  -2.341 -33.796  1.00  0.00     0.037 A 
HETATM   22  C   UNL     1      -5.146  -3.337 -34.378  1.00  0.00     0.068 A 
HETATM   23  C   UNL     1      -6.440  -3.024 -34.795  1.00  0.00     0.037 A 
HETATM   24  C   UNL     1      -6.943  -1.731 -34.616  1.00  0.00     0.010 A 
BRANCH  22  25
HETATM   25  O   UNL     1      -4.539  -4.557 -34.486  1.00  0.00    -0.356 OA
HETATM   26  C   UNL     1      -3.558  -4.873 -33.507  1.00  0.00     0.210 C 
ENDBRANCH  22  25
ENDBRANCH  18  19
ENDBRANCH  17  18
ENDBRANCH   1  17
TORSDOF 6
ENDMDL
MODEL 3
REMARK VINA RESULT:      -7.9      1.749      2.362
REMARK  6 active torsions:
REMARK  status: ('A' for Active; 'I' for Inactive)
REMARK    1  A    between atoms: O_2  and  C_3 
REMARK    2  A    between atoms: C_6  and  C_7 
REMARK    3  A    between atoms: C_7  and  C_8 
REMARK    4  A    between atoms: C_8  and  C_9 
REMARK       I    between atoms: C_9  and  N_10 
REMARK    5  A    between atoms: N_10  and  N_11 
REMARK    6  A    between atoms: C_12  and  C_13 
ROOT
HETATM    1  C   UNL     1      -7.891   2.701 -32.183  1.00  0.00     0.237 C 
HETATM    2  N   UNL     1      -7.178   2.313 -33.309  1.00  0.00    -0.247 N 
HETATM    3  O   UNL     1      -7.742   2.250 -31.050  1.00  0.00    -0.272 OA
HETATM    4  H   UNL     1      -7.353   2.748 -34.207  1.00  0.00     0.192 HD
ENDROOT
BRANCH   2   5
HETATM    5  N   UNL     1      -6.217   1.349 -33.202  1.00  0.00    -0.184 NA
HETATM    6  C   UNL     1      -6.460   0.236 -33.816  1.00  0.00     0.152 C 
BRANCH   6   7
HETATM    7  C   UNL     1      -5.493  -0.839 -33.760  1.00  0.00     0.011 A 
HETATM    8  C   UNL     1      -5.682  -2.202 -34.157  1.00  0.00     0.004 A 
HETATM    9  C   UNL     1      -4.480  -2.874 -33.925  1.00  0.00     0.043 A 
HETATM   10  C   UNL     1      -6.764  -2.934 -34.690  1.00  0.00     0.014 A 
HETATM   11  C   UNL     1      -4.305  -4.236 -34.200  1.00  0.00     0.030 A 
HETATM   12  N   UNL     1      -3.595  -1.957 -33.407  1.00  0.00    -0.364 N 
HETATM   13  C   UNL     1      -5.394  -4.935 -34.728  1.00  0.00     0.002 A 
HETATM   14  C   UNL     1      -6.606  -4.297 -34.971  1.00  0.00     0.001 A 
HETATM   15  H   UNL     1      -2.641  -2.163 -33.142  1.00  0.00     0.165 HD
HETATM   16  C   UNL     1      -4.193  -0.733 -33.301  1.00  0.00     0.102 A 
ENDBRANCH   6   7
ENDBRANCH   2   5
BRANCH   1  17
HETATM   17  C   UNL     1      -8.939   3.750 -32.482  1.00  0.00     0.109 C 
BRANCH  17  18
HETATM   18  C   UNL     1      -9.281   3.747 -33.968  1.00  0.00     0.048 C 
BRANCH  18  19
HETATM   19  C   UNL     1     -10.587   3.047 -34.242  1.00  0.00    -0.058 A 
HETATM   20  C   UNL     1     -11.516   3.583 -35.139  1.00  0.00     0.010 A 
HETATM   21  C   UNL     1     -12.723   2.922 -35.380  1.00  0.00     0.037 A 
HETATM   22  C   UNL     1     -13.022   1.721 -34.734  1.00  0.00     0.068 A 
HETATM   23  C   UNL     1     -12.105   1.191 -33.827  1.00  0.00     0.037 A 
HETATM   24  C   UNL     1     -10.895   1.850 -33.584  1.00  0.00     0.010 A 
BRANCH  22  25
HETATM   25  O   UNL     1     -14.231   1.176 -35.066  1.00  0.00    -0.356 OA
HETATM   26  C   UNL     1     -15.119   0.886 -33.993  1.00  0.00     0.210 C 
ENDBRANCH  22  25
ENDBRANCH  18  19
ENDBRANCH  17  18
ENDBRANCH   1  17
TORSDOF 6
ENDMDL
MODEL 4
REMARK VINA RESULT:      -7.9      7.605     10.900
REMARK  6 active torsions:
REMARK  status: ('A' for Active; 'I' for Inactive)
REMARK    1  A    between atoms: O_2  and  C_3 
REMARK    2  A    between atoms: C_6  and  C_7 
REMARK    3  A    between atoms: C_7  and  C_8 
REMARK    4  A    between atoms: C_8  and  C_9 
REMARK       I    between atoms: C_9  and  N_10 
REMARK    5  A    between atoms: N_10  and  N_11 
REMARK    6  A    between atoms: C_12  and  C_13 
ROOT
HETATM    1  C   UNL     1      -2.334   4.684 -31.514  1.00  0.00     0.237 C 
HETATM    2  N   UNL     1      -3.184   3.693 -31.041  1.00  0.00    -0.247 N 
HETATM    3  O   UNL     1      -1.375   4.509 -32.260  1.00  0.00    -0.272 OA
HETATM    4  H   UNL     1      -3.965   3.926 -30.439  1.00  0.00     0.192 HD
ENDROOT
BRANCH   2   5
HETATM    5  N   UNL     1      -2.978   2.395 -31.407  1.00  0.00    -0.184 NA
HETATM    6  C   UNL     1      -4.039   1.714 -31.700  1.00  0.00     0.152 C 
BRANCH   6   7
HETATM    7  C   UNL     1      -3.913   0.330 -32.103  1.00  0.00     0.011 A 
HETATM    8  C   UNL     1      -4.718  -0.377 -33.055  1.00  0.00     0.004 A 
HETATM    9  C   UNL     1      -4.232  -1.685 -33.121  1.00  0.00     0.043 A 
HETATM   10  C   UNL     1      -5.819  -0.031 -33.866  1.00  0.00     0.014 A 
HETATM   11  C   UNL     1      -4.788  -2.660 -33.958  1.00  0.00     0.030 A 
HETATM   12  N   UNL     1      -3.175  -1.771 -32.246  1.00  0.00    -0.364 N 
HETATM   13  C   UNL     1      -5.878  -2.290 -34.750  1.00  0.00     0.002 A 
HETATM   14  C   UNL     1      -6.388  -0.996 -34.708  1.00  0.00     0.001 A 
HETATM   15  H   UNL     1      -2.627  -2.605 -32.084  1.00  0.00     0.165 HD
HETATM   16  C   UNL     1      -2.977  -0.568 -31.627  1.00  0.00     0.102 A 
ENDBRANCH   6   7
ENDBRANCH   2   5
BRANCH   1  17
HETATM   17  C   UNL     1      -2.680   6.058 -30.985  1.00  0.00     0.109 C 
BRANCH  17  18
HETATM   18  C   UNL     1      -1.558   7.042 -31.297  1.00  0.00     0.048 C 
BRANCH  18  19
HETATM   19  C   UNL     1      -0.935   7.599 -30.042  1.00  0.00    -0.058 A 
HETATM   20  C   UNL     1      -1.586   8.581 -29.290  1.00  0.00     0.010 A 
HETATM   21  C   UNL     1      -0.994   9.087 -28.130  1.00  0.00     0.037 A 
HETATM   22  C   UNL     1       0.253   8.625 -27.704  1.00  0.00     0.068 A 
HETATM   23  C   UNL     1       0.914   7.656 -28.459  1.00  0.00     0.037 A 
HETATM   24  C   UNL     1       0.322   7.147 -29.620  1.00  0.00     0.010 A 
BRANCH  22  25
HETATM   25  O   UNL     1       0.714   9.198 -26.551  1.00  0.00    -0.356 OA
HETATM   26  C   UNL     1       1.961   8.725 -26.056  1.00  0.00     0.210 C 
ENDBRANCH  22  25
ENDBRANCH  18  19
ENDBRANCH  17  18
ENDBRANCH   1  17
TORSDOF 6
ENDMDL
MODEL 5
REMARK VINA RESULT:      -7.8      4.748      8.874
REMARK  6 active torsions:
REMARK  status: ('A' for Active; 'I' for Inactive)
REMARK    1  A    between atoms: O_2  and  C_3 
REMARK    2  A    between atoms: C_6  and  C_7 
REMARK    3  A    between atoms: C_7  and  C_8 
REMARK    4  A    between atoms: C_8  and  C_9 
REMARK       I    between atoms: C_9  and  N_10 
REMARK    5  A    between atoms: N_10  and  N_11 
REMARK    6  A    between atoms: C_12  and  C_13 
ROOT
HETATM    1  C   UNL     1      -7.542   1.455 -32.913  1.00  0.00     0.237 C 
HETATM    2  N   UNL     1      -6.593   2.079 -33.710  1.00  0.00    -0.247 N 
HETATM    3  O   UNL     1      -7.859   1.794 -31.776  1.00  0.00    -0.272 OA
HETATM    4  H   UNL     1      -6.401   1.742 -34.646  1.00  0.00     0.192 HD
ENDROOT
BRANCH   2   5
HETATM    5  N   UNL     1      -5.924   3.170 -33.236  1.00  0.00    -0.184 NA
HETATM    6  C   UNL     1      -4.748   2.945 -32.745  1.00  0.00     0.152 C 
BRANCH   6   7
HETATM    7  C   UNL     1      -3.966   4.046 -32.224  1.00  0.00     0.011 A 
HETATM    8  C   UNL     1      -2.964   4.804 -32.912  1.00  0.00     0.004 A 
HETATM    9  C   UNL     1      -2.480   5.761 -32.017  1.00  0.00     0.043 A 
HETATM   10  C   UNL     1      -2.417   4.767 -34.212  1.00  0.00     0.014 A 
HETATM   11  C   UNL     1      -1.482   6.683 -32.357  1.00  0.00     0.030 A 
HETATM   12  N   UNL     1      -3.159   5.592 -30.833  1.00  0.00    -0.364 N 
HETATM   13  C   UNL     1      -0.958   6.623 -33.652  1.00  0.00     0.002 A 
HETATM   14  C   UNL     1      -1.417   5.681 -34.568  1.00  0.00     0.001 A 
HETATM   15  H   UNL     1      -3.015   6.148 -30.002  1.00  0.00     0.165 HD
HETATM   16  C   UNL     1      -4.051   4.563 -30.946  1.00  0.00     0.102 A 
ENDBRANCH   6   7
ENDBRANCH   2   5
BRANCH   1  17
HETATM   17  C   UNL     1      -8.162   0.244 -33.574  1.00  0.00     0.109 C 
BRANCH  17  18
HETATM   18  C   UNL     1      -7.416  -0.097 -34.860  1.00  0.00     0.048 C 
BRANCH  18  19
HETATM   19  C   UNL     1      -6.559  -1.327 -34.704  1.00  0.00    -0.058 A 
HETATM   20  C   UNL     1      -7.059  -2.596 -35.013  1.00  0.00     0.010 A 
HETATM   21  C   UNL     1      -6.251  -3.725 -34.861  1.00  0.00     0.037 A 
HETATM   22  C   UNL     1      -4.938  -3.609 -34.398  1.00  0.00     0.068 A 
HETATM   23  C   UNL     1      -4.441  -2.348 -34.073  1.00  0.00     0.037 A 
HETATM   24  C   UNL     1      -5.247  -1.214 -34.226  1.00  0.00     0.010 A 
BRANCH  22  25
HETATM   25  O   UNL     1      -4.257  -4.791 -34.303  1.00  0.00    -0.356 OA
HETATM   26  C   UNL     1      -3.311  -4.900 -33.246  1.00  0.00     0.210 C 
ENDBRANCH  22  25
ENDBRANCH  18  19
ENDBRANCH  17  18
ENDBRANCH   1  17
TORSDOF 6
ENDMDL
MODEL 6
REMARK VINA RESULT:      -7.6      5.194      8.171
REMARK  6 active torsions:
REMARK  status: ('A' for Active; 'I' for Inactive)
REMARK    1  A    between atoms: O_2  and  C_3 
REMARK    2  A    between atoms: C_6  and  C_7 
REMARK    3  A    between atoms: C_7  and  C_8 
REMARK    4  A    between atoms: C_8  and  C_9 
REMARK       I    between atoms: C_9  and  N_10 
REMARK    5  A    between atoms: N_10  and  N_11 
REMARK    6  A    between atoms: C_12  and  C_13 
ROOT
HETATM    1  C   UNL     1      -3.575   0.014 -32.570  1.00  0.00     0.237 C 
HETATM    2  N   UNL     1      -3.828   1.240 -31.972  1.00  0.00    -0.247 N 
HETATM    3  O   UNL     1      -2.718  -0.204 -33.423  1.00  0.00    -0.272 OA
HETATM    4  H   UNL     1      -4.547   1.331 -31.264  1.00  0.00     0.192 HD
ENDROOT
BRANCH   2   5
HETATM    5  N   UNL     1      -3.089   2.332 -32.327  1.00  0.00    -0.184 NA
HETATM    6  C   UNL     1      -3.728   3.455 -32.383  1.00  0.00     0.152 C 
BRANCH   6   7
HETATM    7  C   UNL     1      -3.021   4.665 -32.746  1.00  0.00     0.011 A 
HETATM    8  C   UNL     1      -1.876   5.232 -32.099  1.00  0.00     0.004 A 
HETATM    9  C   UNL     1      -1.539   6.396 -32.794  1.00  0.00     0.043 A 
HETATM   10  C   UNL     1      -1.093   4.869 -30.982  1.00  0.00     0.014 A 
HETATM   11  C   UNL     1      -0.460   7.211 -32.432  1.00  0.00     0.030 A 
HETATM   12  N   UNL     1      -2.442   6.531 -33.822  1.00  0.00    -0.364 N 
HETATM   13  C   UNL     1       0.299   6.828 -31.323  1.00  0.00     0.002 A 
HETATM   14  C   UNL     1      -0.010   5.675 -30.607  1.00  0.00     0.001 A 
HETATM   15  H   UNL     1      -2.442   7.287 -34.493  1.00  0.00     0.165 HD
HETATM   16  C   UNL     1      -3.338   5.499 -33.801  1.00  0.00     0.102 A 
ENDBRANCH   6   7
ENDBRANCH   2   5
BRANCH   1  17
HETATM   17  C   UNL     1      -4.504  -1.078 -32.091  1.00  0.00     0.109 C 
BRANCH  17  18
HETATM   18  C   UNL     1      -5.267  -1.678 -33.268  1.00  0.00     0.048 C 
BRANCH  18  19
HETATM   19  C   UNL     1      -6.489  -0.866 -33.617  1.00  0.00    -0.058 A 
HETATM   20  C   UNL     1      -7.334  -0.373 -32.618  1.00  0.00     0.010 A 
HETATM   21  C   UNL     1      -8.463   0.376 -32.959  1.00  0.00     0.037 A 
HETATM   22  C   UNL     1      -8.768   0.642 -34.295  1.00  0.00     0.068 A 
HETATM   23  C   UNL     1      -7.936   0.139 -35.295  1.00  0.00     0.037 A 
HETATM   24  C   UNL     1      -6.804  -0.610 -34.957  1.00  0.00     0.010 A 
BRANCH  22  25
HETATM   25  O   UNL     1      -9.895   1.391 -34.488  1.00  0.00    -0.356 OA
HETATM   26  C   UNL     1     -10.911   1.285 -33.498  1.00  0.00     0.210 C 
ENDBRANCH  22  25
ENDBRANCH  18  19
ENDBRANCH  17  18
ENDBRANCH   1  17
TORSDOF 6
ENDMDL
MODEL 7
REMARK VINA RESULT:      -7.6      6.483      9.963
REMARK  6 active torsions:
REMARK  status: ('A' for Active; 'I' for Inactive)
REMARK    1  A    between atoms: O_2  and  C_3 
REMARK    2  A    between atoms: C_6  and  C_7 
REMARK    3  A    between atoms: C_7  and  C_8 
REMARK    4  A    between atoms: C_8  and  C_9 
REMARK       I    between atoms: C_9  and  N_10 
REMARK    5  A    between atoms: N_10  and  N_11 
REMARK    6  A    between atoms: C_12  and  C_13 
ROOT
HETATM    1  C   UNL     1      -4.833   2.615 -31.289  1.00  0.00     0.237 C 
HETATM    2  N   UNL     1      -3.710   2.904 -32.051  1.00  0.00    -0.247 N 
HETATM    3  O   UNL     1      -4.952   2.815 -30.083  1.00  0.00    -0.272 OA
HETATM    4  H   UNL     1      -3.700   2.721 -33.047  1.00  0.00     0.192 HD
ENDROOT
BRANCH   2   5
HETATM    5  N   UNL     1      -2.615   3.462 -31.457  1.00  0.00    -0.184 NA
HETATM    6  C   UNL     1      -2.370   4.694 -31.763  1.00  0.00     0.152 C 
BRANCH   6   7
HETATM    7  C   UNL     1      -1.230   5.366 -31.176  1.00  0.00     0.011 A 
HETATM    8  C   UNL     1      -1.244   6.396 -30.181  1.00  0.00     0.004 A 
HETATM    9  C   UNL     1       0.084   6.740 -29.919  1.00  0.00     0.043 A 
HETATM   10  C   UNL     1      -2.262   7.075 -29.477  1.00  0.00     0.014 A 
HETATM   11  C   UNL     1       0.445   7.723 -28.990  1.00  0.00     0.030 A 
HETATM   12  N   UNL     1       0.874   5.951 -30.722  1.00  0.00    -0.364 N 
HETATM   13  C   UNL     1      -0.583   8.380 -28.308  1.00  0.00     0.002 A 
HETATM   14  C   UNL     1      -1.917   8.063 -28.545  1.00  0.00     0.001 A 
HETATM   15  H   UNL     1       1.884   5.982 -30.745  1.00  0.00     0.165 HD
HETATM   16  C   UNL     1       0.096   5.125 -31.482  1.00  0.00     0.102 A 
ENDBRANCH   6   7
ENDBRANCH   2   5
BRANCH   1  17
HETATM   17  C   UNL     1      -5.940   1.970 -32.092  1.00  0.00     0.109 C 
BRANCH  17  18
HETATM   18  C   UNL     1      -6.257   0.585 -31.540  1.00  0.00     0.048 C 
BRANCH  18  19
HETATM   19  C   UNL     1      -6.071  -0.490 -32.580  1.00  0.00    -0.058 A 
HETATM   20  C   UNL     1      -4.826  -1.097 -32.773  1.00  0.00     0.010 A 
HETATM   21  C   UNL     1      -4.671  -2.091 -33.743  1.00  0.00     0.037 A 
HETATM   22  C   UNL     1      -5.749  -2.493 -34.534  1.00  0.00     0.068 A 
HETATM   23  C   UNL     1      -6.988  -1.879 -34.356  1.00  0.00     0.037 A 
HETATM   24  C   UNL     1      -7.147  -0.885 -33.385  1.00  0.00     0.010 A 
BRANCH  22  25
HETATM   25  O   UNL     1      -5.461  -3.478 -35.438  1.00  0.00    -0.356 OA
HETATM   26  C   UNL     1      -6.323  -4.609 -35.446  1.00  0.00     0.210 C 
ENDBRANCH  22  25
ENDBRANCH  18  19
ENDBRANCH  17  18
ENDBRANCH   1  17
TORSDOF 6
ENDMDL
MODEL 8
REMARK VINA RESULT:      -7.6      6.911     10.431
REMARK  6 active torsions:
REMARK  status: ('A' for Active; 'I' for Inactive)
REMARK    1  A    between atoms: O_2  and  C_3 
REMARK    2  A    between atoms: C_6  and  C_7 
REMARK    3  A    between atoms: C_7  and  C_8 
REMARK    4  A    between atoms: C_8  and  C_9 
REMARK       I    between atoms: C_9  and  N_10 
REMARK    5  A    between atoms: N_10  and  N_11 
REMARK    6  A    between atoms: C_12  and  C_13 
ROOT
HETATM    1  C   UNL     1      -3.030   5.504 -34.346  1.00  0.00     0.237 C 
HETATM    2  N   UNL     1      -3.469   4.735 -33.278  1.00  0.00    -0.247 N 
HETATM    3  O   UNL     1      -3.605   5.628 -35.424  1.00  0.00    -0.272 OA
HETATM    4  H   UNL     1      -2.939   4.699 -32.415  1.00  0.00     0.192 HD
ENDROOT
BRANCH   2   5
HETATM    5  N   UNL     1      -4.636   4.035 -33.382  1.00  0.00    -0.184 NA
HETATM    6  C   UNL     1      -4.734   2.981 -32.638  1.00  0.00     0.152 C 
BRANCH   6   7
HETATM    7  C   UNL     1      -5.940   2.182 -32.682  1.00  0.00     0.011 A 
HETATM    8  C   UNL     1      -6.083   0.848 -33.183  1.00  0.00     0.004 A 
HETATM    9  C   UNL     1      -7.422   0.484 -33.022  1.00  0.00     0.043 A 
HETATM   10  C   UNL     1      -5.201  -0.089 -33.763  1.00  0.00     0.014 A 
HETATM   11  C   UNL     1      -7.921  -0.766 -33.408  1.00  0.00     0.030 A 
HETATM   12  N   UNL     1      -8.068   1.554 -32.447  1.00  0.00    -0.364 N 
HETATM   13  C   UNL     1      -7.025  -1.673 -33.980  1.00  0.00     0.002 A 
HETATM   14  C   UNL     1      -5.685  -1.343 -34.156  1.00  0.00     0.001 A 
HETATM   15  H   UNL     1      -9.051   1.576 -32.214  1.00  0.00     0.165 HD
HETATM   16  C   UNL     1      -7.188   2.580 -32.242  1.00  0.00     0.102 A 
ENDBRANCH   6   7
ENDBRANCH   2   5
BRANCH   1  17
HETATM   17  C   UNL     1      -1.706   6.183 -34.078  1.00  0.00     0.109 C 
BRANCH  17  18
HETATM   18  C   UNL     1      -1.921   7.470 -33.290  1.00  0.00     0.048 C 
BRANCH  18  19
HETATM   19  C   UNL     1      -1.236   7.429 -31.948  1.00  0.00    -0.058 A 
HETATM   20  C   UNL     1      -1.769   8.106 -30.846  1.00  0.00     0.010 A 
HETATM   21  C   UNL     1      -1.120   8.057 -29.610  1.00  0.00     0.037 A 
HETATM   22  C   UNL     1       0.067   7.338 -29.453  1.00  0.00     0.068 A 
HETATM   23  C   UNL     1       0.610   6.674 -30.552  1.00  0.00     0.037 A 
HETATM   24  C   UNL     1      -0.038   6.719 -31.791  1.00  0.00     0.010 A 
BRANCH  22  25
HETATM   25  O   UNL     1       0.593   7.368 -28.191  1.00  0.00    -0.356 OA
HETATM   26  C   UNL     1       1.406   8.488 -27.863  1.00  0.00     0.210 C 
ENDBRANCH  22  25
ENDBRANCH  18  19
ENDBRANCH  17  18
ENDBRANCH   1  17
TORSDOF 6
ENDMDL
MODEL 9
REMARK VINA RESULT:      -7.6      7.608     10.883
REMARK  6 active torsions:
REMARK  status: ('A' for Active; 'I' for Inactive)
REMARK    1  A    between atoms: O_2  and  C_3 
REMARK    2  A    between atoms: C_6  and  C_7 
REMARK    3  A    between atoms: C_7  and  C_8 
REMARK    4  A    between atoms: C_8  and  C_9 
REMARK       I    between atoms: C_9  and  N_10 
REMARK    5  A    between atoms: N_10  and  N_11 
REMARK    6  A    between atoms: C_12  and  C_13 
ROOT
HETATM    1  C   UNL     1      -2.002   4.758 -31.672  1.00  0.00     0.237 C 
HETATM    2  N   UNL     1      -2.643   3.605 -31.243  1.00  0.00    -0.247 N 
HETATM    3  O   UNL     1      -2.330   5.444 -32.636  1.00  0.00    -0.272 OA
HETATM    4  H   UNL     1      -2.314   3.104 -30.426  1.00  0.00     0.192 HD
ENDROOT
BRANCH   2   5
HETATM    5  N   UNL     1      -3.740   3.150 -31.916  1.00  0.00    -0.184 NA
HETATM    6  C   UNL     1      -3.842   1.865 -32.031  1.00  0.00     0.152 C 
BRANCH   6   7
HETATM    7  C   UNL     1      -4.976   1.296 -32.726  1.00  0.00     0.011 A 
HETATM    8  C   UNL     1      -5.077  -0.011 -33.305  1.00  0.00     0.004 A 
HETATM    9  C   UNL     1      -6.350  -0.120 -33.867  1.00  0.00     0.043 A 
HETATM   10  C   UNL     1      -4.203  -1.114 -33.409  1.00  0.00     0.014 A 
HETATM   11  C   UNL     1      -6.795  -1.275 -34.523  1.00  0.00     0.030 A 
HETATM   12  N   UNL     1      -6.999   1.071 -33.640  1.00  0.00    -0.364 N 
HETATM   13  C   UNL     1      -5.909  -2.352 -34.611  1.00  0.00     0.002 A 
HETATM   14  C   UNL     1      -4.632  -2.276 -34.063  1.00  0.00     0.001 A 
HETATM   15  H   UNL     1      -7.942   1.280 -33.937  1.00  0.00     0.165 HD
HETATM   16  C   UNL     1      -6.182   1.929 -32.959  1.00  0.00     0.102 A 
ENDBRANCH   6   7
ENDBRANCH   2   5
BRANCH   1  17
HETATM   17  C   UNL     1      -0.787   5.102 -30.839  1.00  0.00     0.109 C 
BRANCH  17  18
HETATM   18  C   UNL     1      -0.292   6.503 -31.179  1.00  0.00     0.048 C 
BRANCH  18  19
HETATM   19  C   UNL     1      -0.290   7.405 -29.971  1.00  0.00    -0.058 A 
HETATM   20  C   UNL     1       0.797   7.427 -29.091  1.00  0.00     0.010 A 
HETATM   21  C   UNL     1       0.782   8.268 -27.976  1.00  0.00     0.037 A 
HETATM   22  C   UNL     1      -0.312   9.097 -27.719  1.00  0.00     0.068 A 
HETATM   23  C   UNL     1      -1.405   9.068 -28.586  1.00  0.00     0.037 A 
HETATM   24  C   UNL     1      -1.392   8.227 -29.705  1.00  0.00     0.010 A 
BRANCH  22  25
HETATM   25  O   UNL     1      -0.194   9.874 -26.601  1.00  0.00    -0.356 OA
HETATM   26  C   UNL     1      -0.257   9.204 -25.347  1.00  0.00     0.210 C 
ENDBRANCH  22  25
ENDBRANCH  18  19
ENDBRANCH  17  18
ENDBRANCH   1  17
TORSDOF 6
ENDMDL
MODEL 10
REMARK VINA RESULT:      -7.5      2.527      9.676
REMARK  6 active torsions:
REMARK  status: ('A' for Active; 'I' for Inactive)
REMARK    1  A    between atoms: O_2  and  C_3 
REMARK    2  A    between atoms: C_6  and  C_7 
REMARK    3  A    between atoms: C_7  and  C_8 
REMARK    4  A    between atoms: C_8  and  C_9 
REMARK       I    between atoms: C_9  and  N_10 
REMARK    5  A    between atoms: N_10  and  N_11 
REMARK    6  A    between atoms: C_12  and  C_13 
ROOT
HETATM    1  C   UNL     1      -8.820   1.912 -34.272  1.00  0.00     0.237 C 
HETATM    2  N   UNL     1      -9.987   1.301 -34.708  1.00  0.00    -0.247 N 
HETATM    3  O   UNL     1      -8.757   2.935 -33.595  1.00  0.00    -0.272 OA
HETATM    4  H   UNL     1      -9.952   0.447 -35.252  1.00  0.00     0.192 HD
ENDROOT
BRANCH   2   5
HETATM    5  N   UNL     1     -11.197   1.844 -34.383  1.00  0.00    -0.184 NA
HETATM    6  C   UNL     1     -12.069   1.027 -33.886  1.00  0.00     0.152 C 
BRANCH   6   7
HETATM    7  C   UNL     1     -13.377   1.518 -33.509  1.00  0.00     0.011 A 
HETATM    8  C   UNL     1     -13.680   2.687 -32.738  1.00  0.00     0.004 A 
HETATM    9  C   UNL     1     -15.070   2.764 -32.626  1.00  0.00     0.043 A 
HETATM   10  C   UNL     1     -12.903   3.690 -32.119  1.00  0.00     0.014 A 
HETATM   11  C   UNL     1     -15.721   3.790 -31.932  1.00  0.00     0.030 A 
HETATM   12  N   UNL     1     -15.593   1.685 -33.302  1.00  0.00    -0.364 N 
HETATM   13  C   UNL     1     -14.927   4.770 -31.328  1.00  0.00     0.002 A 
HETATM   14  C   UNL     1     -13.539   4.723 -31.419  1.00  0.00     0.001 A 
HETATM   15  H   UNL     1     -16.579   1.482 -33.389  1.00  0.00     0.165 HD
HETATM   16  C   UNL     1     -14.585   0.929 -33.833  1.00  0.00     0.102 A 
ENDBRANCH   6   7
ENDBRANCH   2   5
BRANCH   1  17
HETATM   17  C   UNL     1      -7.572   1.205 -34.748  1.00  0.00     0.109 C 
BRANCH  17  18
HETATM   18  C   UNL     1      -6.735   0.750 -33.557  1.00  0.00     0.048 C 
BRANCH  18  19
HETATM   19  C   UNL     1      -6.100  -0.596 -33.798  1.00  0.00    -0.058 A 
HETATM   20  C   UNL     1      -6.765  -1.585 -34.530  1.00  0.00     0.010 A 
HETATM   21  C   UNL     1      -6.163  -2.827 -34.742  1.00  0.00     0.037 A 
HETATM   22  C   UNL     1      -4.893  -3.103 -34.230  1.00  0.00     0.068 A 
HETATM   23  C   UNL     1      -4.232  -2.126 -33.487  1.00  0.00     0.037 A 
HETATM   24  C   UNL     1      -4.833  -0.880 -33.273  1.00  0.00     0.010 A 
BRANCH  22  25
HETATM   25  O   UNL     1      -4.418  -4.353 -34.517  1.00  0.00    -0.356 OA
HETATM   26  C   UNL     1      -3.564  -4.950 -33.550  1.00  0.00     0.210 C 
ENDBRANCH  22  25
ENDBRANCH  18  19
ENDBRANCH  17  18
ENDBRANCH   1  17
TORSDOF 6
ENDMDL
