MODEL 1
REMARK VINA RESULT:      -9.4      0.000      0.000
REMARK  6 active torsions:
REMARK  status: ('A' for Active; 'I' for Inactive)
REMARK    1  A    between atoms: C_5  and  N_6 
REMARK       I    between atoms: N_6  and  C_7 
REMARK       I    between atoms: C_7  and  N_8 
REMARK    2  A    between atoms: N_8  and  C_9 
REMARK    3  A    between atoms: C_9  and  C_10 
REMARK       I    between atoms: C_10  and  N_11 
REMARK    4  A    between atoms: N_11  and  N_12 
REMARK       I    between atoms: N_12  and  C_13 
REMARK       I    between atoms: C_13  and  N_14 
REMARK    5  A    between atoms: N_14  and  C_15 
REMARK    6  A    between atoms: C_17  and  C_18 
ROOT
HETATM    1  C   UNL     1      -5.556   3.973 -32.658  1.00  0.00     0.253 C 
HETATM    2  N   UNL     1      -4.922   2.822 -32.228  1.00  0.00    -0.265 N 
HETATM    3  O   UNL     1      -6.759   4.172 -32.488  1.00  0.00    -0.270 OA
HETATM    4  H   UNL     1      -3.900   2.807 -32.202  1.00  0.00     0.190 HD
ENDROOT
BRANCH   2   5
HETATM    5  N   UNL     1      -5.614   1.967 -31.364  1.00  0.00    -0.249 N 
HETATM    6  C   UNL     1      -5.941   0.668 -31.699  1.00  0.00     0.339 C 
HETATM    7  N   UNL     1      -5.371   0.242 -32.875  1.00  0.00    -0.308 N 
HETATM    8  O   UNL     1      -6.668   0.016 -30.958  1.00  0.00    -0.245 OA
HETATM    9  H   UNL     1      -4.917   0.977 -33.400  1.00  0.00     0.170 HD
HETATM   10  H   UNL     1      -6.156   2.395 -30.616  1.00  0.00     0.192 HD
BRANCH   7  11
HETATM   11  C   UNL     1      -5.436  -1.032 -33.466  1.00  0.00     0.037 A 
HETATM   12  C   UNL     1      -4.521  -2.057 -33.214  1.00  0.00     0.045 A 
HETATM   13  C   UNL     1      -4.637  -3.304 -33.852  1.00  0.00     0.050 A 
HETATM   14  C   UNL     1      -5.699  -3.518 -34.743  1.00  0.00     0.016 A 
HETATM   15  C   UNL     1      -6.615  -2.501 -35.002  1.00  0.00     0.003 A 
HETATM   16  C   UNL     1      -6.481  -1.264 -34.369  1.00  0.00     0.029 A 
BRANCH  13  17
HETATM   17  C   UNL     1      -3.657  -4.414 -33.565  1.00  0.00     0.417 C 
HETATM   18  F   UNL     1      -4.243  -5.605 -33.262  1.00  0.00    -0.166 F 
HETATM   19  F   UNL     1      -2.828  -4.659 -34.617  1.00  0.00    -0.166 F 
HETATM   20  F   UNL     1      -2.839  -4.128 -32.510  1.00  0.00    -0.166 F 
ENDBRANCH  13  17
ENDBRANCH   7  11
ENDBRANCH   2   5
BRANCH   1  21
HETATM   21  C   UNL     1      -4.689   4.895 -33.522  1.00  0.00     0.228 C 
BRANCH  21  22
HETATM   22  N   UNL     1      -3.271   4.920 -33.198  1.00  0.00    -0.334 N 
HETATM   23  C   UNL     1      -2.301   5.211 -34.098  1.00  0.00     0.322 C 
HETATM   24  N   UNL     1      -1.068   5.520 -33.622  1.00  0.00    -0.293 N 
HETATM   25  O   UNL     1      -2.498   5.141 -35.312  1.00  0.00    -0.247 OA
HETATM   26  H   UNL     1      -0.383   5.661 -34.350  1.00  0.00     0.172 HD
HETATM   27  H   UNL     1      -3.016   5.145 -32.237  1.00  0.00     0.164 HD
BRANCH  24  28
HETATM   28  C   UNL     1      -0.657   5.717 -32.299  1.00  0.00     0.131 A 
HETATM   29  N   UNL     1      -0.565   4.663 -31.458  1.00  0.00    -0.243 NA
HETATM   30  C   UNL     1      -0.182   4.916 -30.183  1.00  0.00     0.125 A 
HETATM   31  C   UNL     1       0.104   6.183 -29.689  1.00  0.00    -0.044 A 
HETATM   32  C   UNL     1       0.550   6.382 -28.275  1.00  0.00     0.049 C 
HETATM   33  C   UNL     1       0.016   7.249 -30.581  1.00  0.00     0.012 A 
HETATM   34  C   UNL     1      -0.373   7.017 -31.898  1.00  0.00     0.051 A 
ENDBRANCH  24  28
ENDBRANCH  21  22
ENDBRANCH   1  21
TORSDOF 6
ENDMDL
MODEL 2
REMARK VINA RESULT:      -9.2      1.685      2.088
REMARK  6 active torsions:
REMARK  status: ('A' for Active; 'I' for Inactive)
REMARK    1  A    between atoms: C_5  and  N_6 
REMARK       I    between atoms: N_6  and  C_7 
REMARK       I    between atoms: C_7  and  N_8 
REMARK    2  A    between atoms: N_8  and  C_9 
REMARK    3  A    between atoms: C_9  and  C_10 
REMARK       I    between atoms: C_10  and  N_11 
REMARK    4  A    between atoms: N_11  and  N_12 
REMARK       I    between atoms: N_12  and  C_13 
REMARK       I    between atoms: C_13  and  N_14 
REMARK    5  A    between atoms: N_14  and  C_15 
REMARK    6  A    between atoms: C_17  and  C_18 
ROOT
HETATM    1  C   UNL     1      -6.731   4.423 -32.780  1.00  0.00     0.253 C 
HETATM    2  N   UNL     1      -7.269   3.383 -33.514  1.00  0.00    -0.265 N 
HETATM    3  O   UNL     1      -7.029   4.630 -31.603  1.00  0.00    -0.270 OA
HETATM    4  H   UNL     1      -6.830   3.132 -34.403  1.00  0.00     0.190 HD
ENDROOT
BRANCH   2   5
HETATM    5  N   UNL     1      -7.989   2.394 -32.836  1.00  0.00    -0.249 N 
HETATM    6  C   UNL     1      -7.632   1.060 -32.856  1.00  0.00     0.339 C 
HETATM    7  N   UNL     1      -6.415   0.825 -33.449  1.00  0.00    -0.308 N 
HETATM    8  O   UNL     1      -8.381   0.226 -32.360  1.00  0.00    -0.245 OA
HETATM    9  H   UNL     1      -6.023   1.632 -33.913  1.00  0.00     0.170 HD
HETATM   10  H   UNL     1      -8.954   2.605 -32.590  1.00  0.00     0.192 HD
BRANCH   7  11
HETATM   11  C   UNL     1      -5.726  -0.394 -33.573  1.00  0.00     0.037 A 
HETATM   12  C   UNL     1      -6.286  -1.555 -34.112  1.00  0.00     0.045 A 
HETATM   13  C   UNL     1      -5.543  -2.747 -34.192  1.00  0.00     0.050 A 
HETATM   14  C   UNL     1      -4.217  -2.756 -33.736  1.00  0.00     0.016 A 
HETATM   15  C   UNL     1      -3.651  -1.603 -33.195  1.00  0.00     0.003 A 
HETATM   16  C   UNL     1      -4.404  -0.430 -33.112  1.00  0.00     0.029 A 
BRANCH  13  17
HETATM   17  C   UNL     1      -6.145  -3.994 -34.790  1.00  0.00     0.417 C 
HETATM   18  F   UNL     1      -7.466  -4.159 -34.509  1.00  0.00    -0.166 F 
HETATM   19  F   UNL     1      -6.043  -4.019 -36.148  1.00  0.00    -0.166 F 
HETATM   20  F   UNL     1      -5.530  -5.131 -34.353  1.00  0.00    -0.166 F 
ENDBRANCH  13  17
ENDBRANCH   7  11
ENDBRANCH   2   5
BRANCH   1  21
HETATM   21  C   UNL     1      -5.880   5.405 -33.592  1.00  0.00     0.228 C 
BRANCH  21  22
HETATM   22  N   UNL     1      -4.442   5.197 -33.535  1.00  0.00    -0.334 N 
HETATM   23  C   UNL     1      -3.631   5.259 -34.618  1.00  0.00     0.322 C 
HETATM   24  N   UNL     1      -2.294   5.371 -34.404  1.00  0.00    -0.293 N 
HETATM   25  O   UNL     1      -4.068   5.158 -35.765  1.00  0.00    -0.247 OA
HETATM   26  H   UNL     1      -1.750   5.347 -35.254  1.00  0.00     0.172 HD
HETATM   27  H   UNL     1      -3.971   5.427 -32.660  1.00  0.00     0.164 HD
BRANCH  24  28
HETATM   28  C   UNL     1      -1.608   5.566 -33.200  1.00  0.00     0.131 A 
HETATM   29  N   UNL     1      -1.607   4.596 -32.260  1.00  0.00    -0.243 NA
HETATM   30  C   UNL     1      -0.943   4.848 -31.106  1.00  0.00     0.125 A 
HETATM   31  C   UNL     1      -0.283   6.038 -30.827  1.00  0.00    -0.044 A 
HETATM   32  C   UNL     1       0.455   6.234 -29.541  1.00  0.00     0.049 C 
HETATM   33  C   UNL     1      -0.286   7.016 -31.820  1.00  0.00     0.012 A 
HETATM   34  C   UNL     1      -0.960   6.781 -33.017  1.00  0.00     0.051 A 
ENDBRANCH  24  28
ENDBRANCH  21  22
ENDBRANCH   1  21
TORSDOF 6
ENDMDL
MODEL 3
REMARK VINA RESULT:      -9.1      2.055      2.743
REMARK  6 active torsions:
REMARK  status: ('A' for Active; 'I' for Inactive)
REMARK    1  A    between atoms: C_5  and  N_6 
REMARK       I    between atoms: N_6  and  C_7 
REMARK       I    between atoms: C_7  and  N_8 
REMARK    2  A    between atoms: N_8  and  C_9 
REMARK    3  A    between atoms: C_9  and  C_10 
REMARK       I    between atoms: C_10  and  N_11 
REMARK    4  A    between atoms: N_11  and  N_12 
REMARK       I    between atoms: N_12  and  C_13 
REMARK       I    between atoms: C_13  and  N_14 
REMARK    5  A    between atoms: N_14  and  C_15 
REMARK    6  A    between atoms: C_17  and  C_18 
ROOT
HETATM    1  C   UNL     1      -4.872   4.730 -30.478  1.00  0.00     0.253 C 
HETATM    2  N   UNL     1      -4.420   3.425 -30.410  1.00  0.00    -0.265 N 
HETATM    3  O   UNL     1      -6.054   5.033 -30.312  1.00  0.00    -0.270 OA
HETATM    4  H   UNL     1      -3.414   3.258 -30.340  1.00  0.00     0.190 HD
ENDROOT
BRANCH   2   5
HETATM    5  N   UNL     1      -5.285   2.449 -29.903  1.00  0.00    -0.249 N 
HETATM    6  C   UNL     1      -5.966   1.559 -30.710  1.00  0.00     0.339 C 
HETATM    7  N   UNL     1      -5.579   1.604 -32.029  1.00  0.00    -0.308 N 
HETATM    8  O   UNL     1      -6.813   0.822 -30.219  1.00  0.00    -0.245 OA
HETATM    9  H   UNL     1      -4.963   2.374 -32.248  1.00  0.00     0.170 HD
HETATM   10  H   UNL     1      -5.660   2.596 -28.969  1.00  0.00     0.192 HD
BRANCH   7  11
HETATM   11  C   UNL     1      -6.011   0.794 -33.093  1.00  0.00     0.037 A 
HETATM   12  C   UNL     1      -5.621  -0.536 -33.270  1.00  0.00     0.045 A 
HETATM   13  C   UNL     1      -6.080  -1.285 -34.368  1.00  0.00     0.050 A 
HETATM   14  C   UNL     1      -6.954  -0.684 -35.286  1.00  0.00     0.016 A 
HETATM   15  C   UNL     1      -7.346   0.643 -35.119  1.00  0.00     0.003 A 
HETATM   16  C   UNL     1      -6.874   1.377 -34.029  1.00  0.00     0.029 A 
BRANCH  13  17
HETATM   17  C   UNL     1      -5.671  -2.726 -34.547  1.00  0.00     0.417 C 
HETATM   18  F   UNL     1      -4.704  -3.136 -33.681  1.00  0.00    -0.166 F 
HETATM   19  F   UNL     1      -6.714  -3.585 -34.382  1.00  0.00    -0.166 F 
HETATM   20  F   UNL     1      -5.178  -2.977 -35.794  1.00  0.00    -0.166 F 
ENDBRANCH  13  17
ENDBRANCH   7  11
ENDBRANCH   2   5
BRANCH   1  21
HETATM   21  C   UNL     1      -3.826   5.743 -30.954  1.00  0.00     0.228 C 
BRANCH  21  22
HETATM   22  N   UNL     1      -2.486   5.574 -30.415  1.00  0.00    -0.334 N 
HETATM   23  C   UNL     1      -1.470   4.995 -31.099  1.00  0.00     0.322 C 
HETATM   24  N   UNL     1      -0.207   5.180 -30.635  1.00  0.00    -0.293 N 
HETATM   25  O   UNL     1      -1.672   4.270 -32.074  1.00  0.00    -0.247 OA
HETATM   26  H   UNL     1       0.489   4.668 -31.156  1.00  0.00     0.172 HD
HETATM   27  H   UNL     1      -2.175   6.249 -29.717  1.00  0.00     0.164 HD
BRANCH  24  28
HETATM   28  C   UNL     1       0.238   6.008 -29.598  1.00  0.00     0.131 A 
HETATM   29  N   UNL     1       0.317   5.528 -28.338  1.00  0.00    -0.243 NA
HETATM   30  C   UNL     1       0.736   6.381 -27.372  1.00  0.00     0.125 A 
HETATM   31  C   UNL     1       1.071   7.711 -27.594  1.00  0.00    -0.044 A 
HETATM   32  C   UNL     1       1.553   8.586 -26.482  1.00  0.00     0.049 C 
HETATM   33  C   UNL     1       0.994   8.176 -28.904  1.00  0.00     0.012 A 
HETATM   34  C   UNL     1       0.569   7.319 -29.918  1.00  0.00     0.051 A 
ENDBRANCH  24  28
ENDBRANCH  21  22
ENDBRANCH   1  21
TORSDOF 6
ENDMDL
MODEL 4
REMARK VINA RESULT:      -9.0      4.330      9.068
REMARK  6 active torsions:
REMARK  status: ('A' for Active; 'I' for Inactive)
REMARK    1  A    between atoms: C_5  and  N_6 
REMARK       I    between atoms: N_6  and  C_7 
REMARK       I    between atoms: C_7  and  N_8 
REMARK    2  A    between atoms: N_8  and  C_9 
REMARK    3  A    between atoms: C_9  and  C_10 
REMARK       I    between atoms: C_10  and  N_11 
REMARK    4  A    between atoms: N_11  and  N_12 
REMARK       I    between atoms: N_12  and  C_13 
REMARK       I    between atoms: C_13  and  N_14 
REMARK    5  A    between atoms: N_14  and  C_15 
REMARK    6  A    between atoms: C_17  and  C_18 
ROOT
HETATM    1  C   UNL     1      -6.544   2.276 -29.923  1.00  0.00     0.253 C 
HETATM    2  N   UNL     1      -5.635   3.109 -29.297  1.00  0.00    -0.265 N 
HETATM    3  O   UNL     1      -7.682   2.640 -30.222  1.00  0.00    -0.270 OA
HETATM    4  H   UNL     1      -4.652   2.829 -29.270  1.00  0.00     0.190 HD
ENDROOT
BRANCH   2   5
HETATM    5  N   UNL     1      -5.932   4.474 -29.215  1.00  0.00    -0.249 N 
HETATM    6  C   UNL     1      -5.093   5.454 -29.707  1.00  0.00     0.339 C 
HETATM    7  N   UNL     1      -4.038   4.960 -30.438  1.00  0.00    -0.308 N 
HETATM    8  O   UNL     1      -5.341   6.633 -29.481  1.00  0.00    -0.245 OA
HETATM    9  H   UNL     1      -3.942   3.956 -30.390  1.00  0.00     0.170 HD
HETATM   10  H   UNL     1      -6.610   4.763 -28.513  1.00  0.00     0.192 HD
BRANCH   7  11
HETATM   11  C   UNL     1      -3.048   5.675 -31.133  1.00  0.00     0.037 A 
HETATM   12  C   UNL     1      -1.725   5.797 -30.698  1.00  0.00     0.045 A 
HETATM   13  C   UNL     1      -0.787   6.542 -31.436  1.00  0.00     0.050 A 
HETATM   14  C   UNL     1      -1.191   7.154 -32.631  1.00  0.00     0.016 A 
HETATM   15  C   UNL     1      -2.508   7.039 -33.071  1.00  0.00     0.003 A 
HETATM   16  C   UNL     1      -3.431   6.306 -32.323  1.00  0.00     0.029 A 
BRANCH  13  17
HETATM   17  C   UNL     1       0.644   6.658 -30.973  1.00  0.00     0.417 C 
HETATM   18  F   UNL     1       0.800   7.397 -29.841  1.00  0.00    -0.166 F 
HETATM   19  F   UNL     1       1.204   5.445 -30.712  1.00  0.00    -0.166 F 
HETATM   20  F   UNL     1       1.448   7.243 -31.907  1.00  0.00    -0.166 F 
ENDBRANCH  13  17
ENDBRANCH   7  11
ENDBRANCH   2   5
BRANCH   1  21
HETATM   21  C   UNL     1      -6.091   0.818 -30.050  1.00  0.00     0.228 C 
BRANCH  21  22
HETATM   22  N   UNL     1      -5.688   0.392 -31.380  1.00  0.00    -0.334 N 
HETATM   23  C   UNL     1      -4.467   0.646 -31.912  1.00  0.00     0.322 C 
HETATM   24  N   UNL     1      -4.092  -0.064 -33.007  1.00  0.00    -0.293 N 
HETATM   25  O   UNL     1      -3.736   1.532 -31.468  1.00  0.00    -0.247 OA
HETATM   26  H   UNL     1      -3.201   0.224 -33.384  1.00  0.00     0.172 HD
HETATM   27  H   UNL     1      -6.128  -0.447 -31.756  1.00  0.00     0.164 HD
BRANCH  24  28
HETATM   28  C   UNL     1      -4.737  -1.145 -33.620  1.00  0.00     0.131 A 
HETATM   29  N   UNL     1      -5.989  -0.996 -34.105  1.00  0.00    -0.243 NA
HETATM   30  C   UNL     1      -6.571  -2.082 -34.670  1.00  0.00     0.125 A 
HETATM   31  C   UNL     1      -5.970  -3.331 -34.765  1.00  0.00    -0.044 A 
HETATM   32  C   UNL     1      -6.663  -4.477 -35.428  1.00  0.00     0.049 C 
HETATM   33  C   UNL     1      -4.673  -3.453 -34.270  1.00  0.00     0.012 A 
HETATM   34  C   UNL     1      -4.050  -2.351 -33.686  1.00  0.00     0.051 A 
ENDBRANCH  24  28
ENDBRANCH  21  22
ENDBRANCH   1  21
TORSDOF 6
ENDMDL
MODEL 5
REMARK VINA RESULT:      -9.0      2.731      3.705
REMARK  6 active torsions:
REMARK  status: ('A' for Active; 'I' for Inactive)
REMARK    1  A    between atoms: C_5  and  N_6 
REMARK       I    between atoms: N_6  and  C_7 
REMARK       I    between atoms: C_7  and  N_8 
REMARK    2  A    between atoms: N_8  and  C_9 
REMARK    3  A    between atoms: C_9  and  C_10 
REMARK       I    between atoms: C_10  and  N_11 
REMARK    4  A    between atoms: N_11  and  N_12 
REMARK       I    between atoms: N_12  and  C_13 
REMARK       I    between atoms: C_13  and  N_14 
REMARK    5  A    between atoms: N_14  and  C_15 
REMARK    6  A    between atoms: C_17  and  C_18 
ROOT
HETATM    1  C   UNL     1      -3.737   5.415 -31.019  1.00  0.00     0.253 C 
HETATM    2  N   UNL     1      -3.700   4.078 -30.671  1.00  0.00    -0.265 N 
HETATM    3  O   UNL     1      -4.788   6.012 -31.252  1.00  0.00    -0.270 OA
HETATM    4  H   UNL     1      -2.834   3.696 -30.283  1.00  0.00     0.190 HD
ENDROOT
BRANCH   2   5
HETATM    5  N   UNL     1      -4.902   3.444 -30.339  1.00  0.00    -0.249 N 
HETATM    6  C   UNL     1      -5.247   2.194 -30.813  1.00  0.00     0.339 C 
HETATM    7  N   UNL     1      -4.229   1.561 -31.488  1.00  0.00    -0.308 N 
HETATM    8  O   UNL     1      -6.371   1.755 -30.601  1.00  0.00    -0.245 OA
HETATM    9  H   UNL     1      -3.429   2.151 -31.668  1.00  0.00     0.170 HD
HETATM   10  H   UNL     1      -5.664   4.032 -30.007  1.00  0.00     0.192 HD
BRANCH   7  11
HETATM   11  C   UNL     1      -4.217   0.266 -32.032  1.00  0.00     0.037 A 
HETATM   12  C   UNL     1      -5.098  -0.172 -33.024  1.00  0.00     0.045 A 
HETATM   13  C   UNL     1      -5.040  -1.489 -33.514  1.00  0.00     0.050 A 
HETATM   14  C   UNL     1      -4.070  -2.364 -33.004  1.00  0.00     0.016 A 
HETATM   15  C   UNL     1      -3.188  -1.937 -32.013  1.00  0.00     0.003 A 
HETATM   16  C   UNL     1      -3.265  -0.629 -31.529  1.00  0.00     0.029 A 
BRANCH  13  17
HETATM   17  C   UNL     1      -5.982  -1.954 -34.597  1.00  0.00     0.417 C 
HETATM   18  F   UNL     1      -7.036  -2.682 -34.137  1.00  0.00    -0.166 F 
HETATM   19  F   UNL     1      -6.517  -0.916 -35.298  1.00  0.00    -0.166 F 
HETATM   20  F   UNL     1      -5.364  -2.744 -35.522  1.00  0.00    -0.166 F 
ENDBRANCH  13  17
ENDBRANCH   7  11
ENDBRANCH   2   5
BRANCH   1  21
HETATM   21  C   UNL     1      -2.364   6.047 -31.272  1.00  0.00     0.228 C 
BRANCH  21  22
HETATM   22  N   UNL     1      -1.438   6.023 -30.152  1.00  0.00    -0.334 N 
HETATM   23  C   UNL     1      -0.194   5.488 -30.218  1.00  0.00     0.322 C 
HETATM   24  N   UNL     1       0.685   5.806 -29.233  1.00  0.00    -0.293 N 
HETATM   25  O   UNL     1       0.125   4.690 -31.100  1.00  0.00    -0.247 OA
HETATM   26  H   UNL     1       1.567   5.321 -29.313  1.00  0.00     0.172 HD
HETATM   27  H   UNL     1      -1.526   6.763 -29.457  1.00  0.00     0.164 HD
BRANCH  24  28
HETATM   28  C   UNL     1       0.546   6.730 -28.192  1.00  0.00     0.131 A 
HETATM   29  N   UNL     1      -0.210   6.425 -27.114  1.00  0.00    -0.243 NA
HETATM   30  C   UNL     1      -0.324   7.366 -26.147  1.00  0.00     0.125 A 
HETATM   31  C   UNL     1       0.269   8.621 -26.202  1.00  0.00    -0.044 A 
HETATM   32  C   UNL     1       0.122   9.600 -25.081  1.00  0.00     0.049 C 
HETATM   33  C   UNL     1       1.055   8.905 -27.317  1.00  0.00     0.012 A 
HETATM   34  C   UNL     1       1.192   7.953 -28.326  1.00  0.00     0.051 A 
ENDBRANCH  24  28
ENDBRANCH  21  22
ENDBRANCH   1  21
TORSDOF 6
ENDMDL
MODEL 6
REMARK VINA RESULT:      -9.0      2.009      2.705
REMARK  6 active torsions:
REMARK  status: ('A' for Active; 'I' for Inactive)
REMARK    1  A    between atoms: C_5  and  N_6 
REMARK       I    between atoms: N_6  and  C_7 
REMARK       I    between atoms: C_7  and  N_8 
REMARK    2  A    between atoms: N_8  and  C_9 
REMARK    3  A    between atoms: C_9  and  C_10 
REMARK       I    between atoms: C_10  and  N_11 
REMARK    4  A    between atoms: N_11  and  N_12 
REMARK       I    between atoms: N_12  and  C_13 
REMARK       I    between atoms: C_13  and  N_14 
REMARK    5  A    between atoms: N_14  and  C_15 
REMARK    6  A    between atoms: C_17  and  C_18 
ROOT
HETATM    1  C   UNL     1      -5.375   4.437 -30.962  1.00  0.00     0.253 C 
HETATM    2  N   UNL     1      -4.734   3.478 -30.200  1.00  0.00    -0.265 N 
HETATM    3  O   UNL     1      -6.550   4.331 -31.313  1.00  0.00    -0.270 OA
HETATM    4  H   UNL     1      -3.842   3.716 -29.762  1.00  0.00     0.190 HD
ENDROOT
BRANCH   2   5
HETATM    5  N   UNL     1      -5.508   2.473 -29.609  1.00  0.00    -0.249 N 
HETATM    6  C   UNL     1      -5.619   1.203 -30.139  1.00  0.00     0.339 C 
HETATM    7  N   UNL     1      -4.764   0.968 -31.189  1.00  0.00    -0.308 N 
HETATM    8  O   UNL     1      -6.421   0.413 -29.654  1.00  0.00    -0.245 OA
HETATM    9  H   UNL     1      -4.283   1.793 -31.518  1.00  0.00     0.170 HD
HETATM   10  H   UNL     1      -6.242   2.766 -28.967  1.00  0.00     0.192 HD
BRANCH   7  11
HETATM   11  C   UNL     1      -4.567  -0.226 -31.904  1.00  0.00     0.037 A 
HETATM   12  C   UNL     1      -5.393  -0.657 -32.945  1.00  0.00     0.045 A 
HETATM   13  C   UNL     1      -5.147  -1.873 -33.608  1.00  0.00     0.050 A 
HETATM   14  C   UNL     1      -4.045  -2.649 -33.222  1.00  0.00     0.016 A 
HETATM   15  C   UNL     1      -3.217  -2.229 -32.184  1.00  0.00     0.003 A 
HETATM   16  C   UNL     1      -3.480  -1.025 -31.527  1.00  0.00     0.029 A 
BRANCH  13  17
HETATM   17  C   UNL     1      -6.031  -2.327 -34.743  1.00  0.00     0.417 C 
HETATM   18  F   UNL     1      -6.518  -1.309 -35.505  1.00  0.00    -0.166 F 
HETATM   19  F   UNL     1      -5.384  -3.163 -35.601  1.00  0.00    -0.166 F 
HETATM   20  F   UNL     1      -7.125  -3.017 -34.309  1.00  0.00    -0.166 F 
ENDBRANCH  13  17
ENDBRANCH   7  11
ENDBRANCH   2   5
BRANCH   1  21
HETATM   21  C   UNL     1      -4.461   5.549 -31.488  1.00  0.00     0.228 C 
BRANCH  21  22
HETATM   22  N   UNL     1      -3.052   5.424 -31.154  1.00  0.00    -0.334 N 
HETATM   23  C   UNL     1      -2.080   5.199 -32.071  1.00  0.00     0.322 C 
HETATM   24  N   UNL     1      -0.793   5.422 -31.698  1.00  0.00    -0.293 N 
HETATM   25  O   UNL     1      -2.332   4.749 -33.189  1.00  0.00    -0.247 OA
HETATM   26  H   UNL     1      -0.122   5.172 -32.410  1.00  0.00     0.172 HD
HETATM   27  H   UNL     1      -2.723   5.919 -30.325  1.00  0.00     0.164 HD
BRANCH  24  28
HETATM   28  C   UNL     1      -0.303   5.987 -30.516  1.00  0.00     0.131 A 
HETATM   29  N   UNL     1      -0.490   7.303 -30.269  1.00  0.00    -0.243 NA
HETATM   30  C   UNL     1       0.024   7.799 -29.118  1.00  0.00     0.125 A 
HETATM   31  C   UNL     1       0.738   7.049 -28.192  1.00  0.00    -0.044 A 
HETATM   32  C   UNL     1       1.251   7.660 -26.928  1.00  0.00     0.049 C 
HETATM   33  C   UNL     1       0.904   5.693 -28.464  1.00  0.00     0.012 A 
HETATM   34  C   UNL     1       0.383   5.155 -29.639  1.00  0.00     0.051 A 
ENDBRANCH  24  28
ENDBRANCH  21  22
ENDBRANCH   1  21
TORSDOF 6
ENDMDL
MODEL 7
REMARK VINA RESULT:      -8.7      5.170      9.828
REMARK  6 active torsions:
REMARK  status: ('A' for Active; 'I' for Inactive)
REMARK    1  A    between atoms: C_5  and  N_6 
REMARK       I    between atoms: N_6  and  C_7 
REMARK       I    between atoms: C_7  and  N_8 
REMARK    2  A    between atoms: N_8  and  C_9 
REMARK    3  A    between atoms: C_9  and  C_10 
REMARK       I    between atoms: C_10  and  N_11 
REMARK    4  A    between atoms: N_11  and  N_12 
REMARK       I    between atoms: N_12  and  C_13 
REMARK       I    between atoms: C_13  and  N_14 
REMARK    5  A    between atoms: N_14  and  C_15 
REMARK    6  A    between atoms: C_17  and  C_18 
ROOT
HETATM    1  C   UNL     1      -4.688   5.088 -34.109  1.00  0.00     0.253 C 
HETATM    2  N   UNL     1      -4.186   5.934 -33.138  1.00  0.00    -0.265 N 
HETATM    3  O   UNL     1      -4.434   5.225 -35.306  1.00  0.00    -0.270 OA
HETATM    4  H   UNL     1      -4.251   5.649 -32.158  1.00  0.00     0.190 HD
ENDROOT
BRANCH   2   5
HETATM    5  N   UNL     1      -3.168   6.825 -33.496  1.00  0.00    -0.249 N 
HETATM    6  C   UNL     1      -2.106   7.122 -32.666  1.00  0.00     0.339 C 
HETATM    7  N   UNL     1      -2.046   6.331 -31.543  1.00  0.00    -0.308 N 
HETATM    8  O   UNL     1      -1.324   8.014 -32.977  1.00  0.00    -0.245 OA
HETATM    9  H   UNL     1      -2.861   5.749 -31.409  1.00  0.00     0.170 HD
HETATM   10  H   UNL     1      -3.374   7.497 -34.232  1.00  0.00     0.192 HD
BRANCH   7  11
HETATM   11  C   UNL     1      -1.065   6.317 -30.536  1.00  0.00     0.037 A 
HETATM   12  C   UNL     1      -0.787   7.403 -29.703  1.00  0.00     0.045 A 
HETATM   13  C   UNL     1       0.220   7.325 -28.724  1.00  0.00     0.050 A 
HETATM   14  C   UNL     1       0.940   6.131 -28.581  1.00  0.00     0.016 A 
HETATM   15  C   UNL     1       0.671   5.043 -29.408  1.00  0.00     0.003 A 
HETATM   16  C   UNL     1      -0.325   5.138 -30.383  1.00  0.00     0.029 A 
BRANCH  13  17
HETATM   17  C   UNL     1       0.506   8.495 -27.815  1.00  0.00     0.417 C 
HETATM   18  F   UNL     1      -0.303   9.569 -28.025  1.00  0.00    -0.166 F 
HETATM   19  F   UNL     1       0.371   8.172 -26.499  1.00  0.00    -0.166 F 
HETATM   20  F   UNL     1       1.781   8.962 -27.952  1.00  0.00    -0.166 F 
ENDBRANCH  13  17
ENDBRANCH   7  11
ENDBRANCH   2   5
BRANCH   1  21
HETATM   21  C   UNL     1      -5.729   4.084 -33.604  1.00  0.00     0.228 C 
BRANCH  21  22
HETATM   22  N   UNL     1      -5.253   2.726 -33.396  1.00  0.00    -0.334 N 
HETATM   23  C   UNL     1      -4.635   2.313 -32.263  1.00  0.00     0.322 C 
HETATM   24  N   UNL     1      -4.528   0.976 -32.050  1.00  0.00    -0.293 N 
HETATM   25  O   UNL     1      -4.127   3.108 -31.471  1.00  0.00    -0.247 OA
HETATM   26  H   UNL     1      -4.001   0.744 -31.221  1.00  0.00     0.172 HD
HETATM   27  H   UNL     1      -5.740   1.979 -33.889  1.00  0.00     0.164 HD
BRANCH  24  28
HETATM   28  C   UNL     1      -5.086  -0.080 -32.781  1.00  0.00     0.131 A 
HETATM   29  N   UNL     1      -6.424  -0.150 -32.950  1.00  0.00    -0.243 NA
HETATM   30  C   UNL     1      -6.909  -1.205 -33.649  1.00  0.00     0.125 A 
HETATM   31  C   UNL     1      -6.122  -2.218 -34.183  1.00  0.00    -0.044 A 
HETATM   32  C   UNL     1      -6.725  -3.338 -34.968  1.00  0.00     0.049 C 
HETATM   33  C   UNL     1      -4.744  -2.113 -34.006  1.00  0.00     0.012 A 
HETATM   34  C   UNL     1      -4.219  -1.037 -33.294  1.00  0.00     0.051 A 
ENDBRANCH  24  28
ENDBRANCH  21  22
ENDBRANCH   1  21
TORSDOF 6
ENDMDL
MODEL 8
REMARK VINA RESULT:      -8.7      2.334      3.350
REMARK  6 active torsions:
REMARK  status: ('A' for Active; 'I' for Inactive)
REMARK    1  A    between atoms: C_5  and  N_6 
REMARK       I    between atoms: N_6  and  C_7 
REMARK       I    between atoms: C_7  and  N_8 
REMARK    2  A    between atoms: N_8  and  C_9 
REMARK    3  A    between atoms: C_9  and  C_10 
REMARK       I    between atoms: C_10  and  N_11 
REMARK    4  A    between atoms: N_11  and  N_12 
REMARK       I    between atoms: N_12  and  C_13 
REMARK       I    between atoms: C_13  and  N_14 
REMARK    5  A    between atoms: N_14  and  C_15 
REMARK    6  A    between atoms: C_17  and  C_18 
ROOT
HETATM    1  C   UNL     1      -8.347   3.888 -31.098  1.00  0.00     0.253 C 
HETATM    2  N   UNL     1      -9.161   3.395 -32.101  1.00  0.00    -0.265 N 
HETATM    3  O   UNL     1      -8.307   3.393 -29.971  1.00  0.00    -0.270 OA
HETATM    4  H   UNL     1      -8.995   3.702 -33.062  1.00  0.00     0.190 HD
ENDROOT
BRANCH   2   5
HETATM    5  N   UNL     1      -9.779   2.156 -31.906  1.00  0.00    -0.249 N 
HETATM    6  C   UNL     1      -9.209   0.963 -32.304  1.00  0.00     0.339 C 
HETATM    7  N   UNL     1      -7.912   1.091 -32.742  1.00  0.00    -0.308 N 
HETATM    8  O   UNL     1      -9.860  -0.073 -32.232  1.00  0.00    -0.245 OA
HETATM    9  H   UNL     1      -7.609   2.049 -32.849  1.00  0.00     0.170 HD
HETATM   10  H   UNL     1     -10.786   2.154 -31.759  1.00  0.00     0.192 HD
BRANCH   7  11
HETATM   11  C   UNL     1      -7.024   0.080 -33.147  1.00  0.00     0.037 A 
HETATM   12  C   UNL     1      -5.772  -0.138 -32.565  1.00  0.00     0.045 A 
HETATM   13  C   UNL     1      -4.926  -1.160 -33.031  1.00  0.00     0.050 A 
HETATM   14  C   UNL     1      -5.358  -1.975 -34.086  1.00  0.00     0.016 A 
HETATM   15  C   UNL     1      -6.603  -1.763 -34.675  1.00  0.00     0.003 A 
HETATM   16  C   UNL     1      -7.429  -0.738 -34.208  1.00  0.00     0.029 A 
BRANCH  13  17
HETATM   17  C   UNL     1      -3.583  -1.404 -32.388  1.00  0.00     0.417 C 
HETATM   18  F   UNL     1      -3.169  -2.700 -32.449  1.00  0.00    -0.166 F 
HETATM   19  F   UNL     1      -2.593  -0.665 -32.961  1.00  0.00    -0.166 F 
HETATM   20  F   UNL     1      -3.571  -1.076 -31.064  1.00  0.00    -0.166 F 
ENDBRANCH  13  17
ENDBRANCH   7  11
ENDBRANCH   2   5
BRANCH   1  21
HETATM   21  C   UNL     1      -7.638   5.203 -31.440  1.00  0.00     0.228 C 
BRANCH  21  22
HETATM   22  N   UNL     1      -6.384   5.079 -32.165  1.00  0.00    -0.334 N 
HETATM   23  C   UNL     1      -6.294   5.094 -33.517  1.00  0.00     0.322 C 
HETATM   24  N   UNL     1      -5.070   5.296 -34.069  1.00  0.00    -0.293 N 
HETATM   25  O   UNL     1      -7.269   4.872 -34.236  1.00  0.00    -0.247 OA
HETATM   26  H   UNL     1      -5.070   5.230 -35.076  1.00  0.00     0.172 HD
HETATM   27  H   UNL     1      -5.540   5.407 -31.697  1.00  0.00     0.164 HD
BRANCH  24  28
HETATM   28  C   UNL     1      -3.864   5.628 -33.441  1.00  0.00     0.131 A 
HETATM   29  N   UNL     1      -3.829   6.628 -32.533  1.00  0.00    -0.243 NA
HETATM   30  C   UNL     1      -2.631   6.919 -31.972  1.00  0.00     0.125 A 
HETATM   31  C   UNL     1      -1.443   6.268 -32.283  1.00  0.00    -0.044 A 
HETATM   32  C   UNL     1      -0.161   6.624 -31.601  1.00  0.00     0.049 C 
HETATM   33  C   UNL     1      -1.510   5.231 -33.211  1.00  0.00     0.012 A 
HETATM   34  C   UNL     1      -2.731   4.909 -33.801  1.00  0.00     0.051 A 
ENDBRANCH  24  28
ENDBRANCH  21  22
ENDBRANCH   1  21
TORSDOF 6
ENDMDL
MODEL 9
REMARK VINA RESULT:      -8.7      5.903      8.746
REMARK  6 active torsions:
REMARK  status: ('A' for Active; 'I' for Inactive)
REMARK    1  A    between atoms: C_5  and  N_6 
REMARK       I    between atoms: N_6  and  C_7 
REMARK       I    between atoms: C_7  and  N_8 
REMARK    2  A    between atoms: N_8  and  C_9 
REMARK    3  A    between atoms: C_9  and  C_10 
REMARK       I    between atoms: C_10  and  N_11 
REMARK    4  A    between atoms: N_11  and  N_12 
REMARK       I    between atoms: N_12  and  C_13 
REMARK       I    between atoms: C_13  and  N_14 
REMARK    5  A    between atoms: N_14  and  C_15 
REMARK    6  A    between atoms: C_17  and  C_18 
ROOT
HETATM    1  C   UNL     1      -6.459   4.337 -29.950  1.00  0.00     0.253 C 
HETATM    2  N   UNL     1      -5.384   4.441 -29.088  1.00  0.00    -0.265 N 
HETATM    3  O   UNL     1      -7.608   4.633 -29.619  1.00  0.00    -0.270 OA
HETATM    4  H   UNL     1      -4.439   4.392 -29.475  1.00  0.00     0.190 HD
ENDROOT
BRANCH   2   5
HETATM    5  N   UNL     1      -5.564   5.126 -27.882  1.00  0.00    -0.249 N 
HETATM    6  C   UNL     1      -4.690   6.095 -27.432  1.00  0.00     0.339 C 
HETATM    7  N   UNL     1      -3.735   6.448 -28.357  1.00  0.00    -0.308 N 
HETATM    8  O   UNL     1      -4.825   6.557 -26.305  1.00  0.00    -0.245 OA
HETATM    9  H   UNL     1      -3.716   5.852 -29.173  1.00  0.00     0.170 HD
HETATM   10  H   UNL     1      -6.162   4.690 -27.182  1.00  0.00     0.192 HD
BRANCH   7  11
HETATM   11  C   UNL     1      -2.746   7.441 -28.255  1.00  0.00     0.037 A 
HETATM   12  C   UNL     1      -1.411   7.182 -27.934  1.00  0.00     0.045 A 
HETATM   13  C   UNL     1      -0.475   8.227 -27.834  1.00  0.00     0.050 A 
HETATM   14  C   UNL     1      -0.894   9.543 -28.076  1.00  0.00     0.016 A 
HETATM   15  C   UNL     1      -2.223   9.811 -28.395  1.00  0.00     0.003 A 
HETATM   16  C   UNL     1      -3.144   8.764 -28.480  1.00  0.00     0.029 A 
BRANCH  13  17
HETATM   17  C   UNL     1       0.969   7.942 -27.503  1.00  0.00     0.417 C 
HETATM   18  F   UNL     1       1.858   8.622 -28.279  1.00  0.00    -0.166 F 
HETATM   19  F   UNL     1       1.277   8.255 -26.215  1.00  0.00    -0.166 F 
HETATM   20  F   UNL     1       1.287   6.623 -27.649  1.00  0.00    -0.166 F 
ENDBRANCH  13  17
ENDBRANCH   7  11
ENDBRANCH   2   5
BRANCH   1  21
HETATM   21  C   UNL     1      -6.143   3.656 -31.286  1.00  0.00     0.228 C 
BRANCH  21  22
HETATM   22  N   UNL     1      -5.047   4.232 -32.049  1.00  0.00    -0.334 N 
HETATM   23  C   UNL     1      -5.220   4.947 -33.187  1.00  0.00     0.322 C 
HETATM   24  N   UNL     1      -4.178   5.697 -33.628  1.00  0.00    -0.293 N 
HETATM   25  O   UNL     1      -6.258   4.881 -33.845  1.00  0.00    -0.247 OA
HETATM   26  H   UNL     1      -4.357   6.150 -34.512  1.00  0.00     0.172 HD
HETATM   27  H   UNL     1      -4.201   4.479 -31.537  1.00  0.00     0.164 HD
BRANCH  24  28
HETATM   28  C   UNL     1      -2.953   5.958 -33.003  1.00  0.00     0.131 A 
HETATM   29  N   UNL     1      -2.035   4.974 -32.881  1.00  0.00    -0.243 NA
HETATM   30  C   UNL     1      -0.875   5.278 -32.249  1.00  0.00     0.125 A 
HETATM   31  C   UNL     1      -0.582   6.525 -31.711  1.00  0.00    -0.044 A 
HETATM   32  C   UNL     1       0.732   6.796 -31.052  1.00  0.00     0.049 C 
HETATM   33  C   UNL     1      -1.539   7.526 -31.864  1.00  0.00     0.012 A 
HETATM   34  C   UNL     1      -2.740   7.240 -32.512  1.00  0.00     0.051 A 
ENDBRANCH  24  28
ENDBRANCH  21  22
ENDBRANCH   1  21
TORSDOF 6
ENDMDL
MODEL 10
REMARK VINA RESULT:      -8.6      6.642      9.777
REMARK  6 active torsions:
REMARK  status: ('A' for Active; 'I' for Inactive)
REMARK    1  A    between atoms: C_5  and  N_6 
REMARK       I    between atoms: N_6  and  C_7 
REMARK       I    between atoms: C_7  and  N_8 
REMARK    2  A    between atoms: N_8  and  C_9 
REMARK    3  A    between atoms: C_9  and  C_10 
REMARK       I    between atoms: C_10  and  N_11 
REMARK    4  A    between atoms: N_11  and  N_12 
REMARK       I    between atoms: N_12  and  C_13 
REMARK       I    between atoms: C_13  and  N_14 
REMARK    5  A    between atoms: N_14  and  C_15 
REMARK    6  A    between atoms: C_17  and  C_18 
ROOT
HETATM    1  C   UNL     1     -11.138   3.011 -35.145  1.00  0.00     0.253 C 
HETATM    2  N   UNL     1     -10.166   2.200 -34.589  1.00  0.00    -0.265 N 
HETATM    3  O   UNL     1     -11.056   4.240 -35.149  1.00  0.00    -0.270 OA
HETATM    4  H   UNL     1     -10.180   1.201 -34.805  1.00  0.00     0.190 HD
ENDROOT
BRANCH   2   5
HETATM    5  N   UNL     1      -8.943   2.778 -34.233  1.00  0.00    -0.249 N 
HETATM    6  C   UNL     1      -7.809   2.033 -33.976  1.00  0.00     0.339 C 
HETATM    7  N   UNL     1      -7.947   0.699 -34.277  1.00  0.00    -0.308 N 
HETATM    8  O   UNL     1      -6.809   2.586 -33.533  1.00  0.00    -0.245 OA
HETATM    9  H   UNL     1      -8.893   0.425 -34.502  1.00  0.00     0.170 HD
HETATM   10  H   UNL     1      -8.966   3.721 -33.852  1.00  0.00     0.192 HD
BRANCH   7  11
HETATM   11  C   UNL     1      -6.977  -0.317 -34.205  1.00  0.00     0.037 A 
HETATM   12  C   UNL     1      -7.230  -1.659 -34.501  1.00  0.00     0.045 A 
HETATM   13  C   UNL     1      -6.216  -2.627 -34.393  1.00  0.00     0.050 A 
HETATM   14  C   UNL     1      -4.932  -2.228 -33.996  1.00  0.00     0.016 A 
HETATM   15  C   UNL     1      -4.671  -0.892 -33.697  1.00  0.00     0.003 A 
HETATM   16  C   UNL     1      -5.691   0.057 -33.799  1.00  0.00     0.029 A 
BRANCH  13  17
HETATM   17  C   UNL     1      -6.488  -4.072 -34.729  1.00  0.00     0.417 C 
HETATM   18  F   UNL     1      -7.609  -4.574 -34.143  1.00  0.00    -0.166 F 
HETATM   19  F   UNL     1      -6.640  -4.273 -36.067  1.00  0.00    -0.166 F 
HETATM   20  F   UNL     1      -5.471  -4.898 -34.345  1.00  0.00    -0.166 F 
ENDBRANCH  13  17
ENDBRANCH   7  11
ENDBRANCH   2   5
BRANCH   1  21
HETATM   21  C   UNL     1     -12.406   2.274 -35.592  1.00  0.00     0.228 C 
BRANCH  21  22
HETATM   22  N   UNL     1     -13.459   2.163 -34.596  1.00  0.00    -0.334 N 
HETATM   23  C   UNL     1     -13.436   1.270 -33.577  1.00  0.00     0.322 C 
HETATM   24  N   UNL     1     -14.292   1.469 -32.541  1.00  0.00    -0.293 N 
HETATM   25  O   UNL     1     -12.715   0.272 -33.602  1.00  0.00    -0.247 OA
HETATM   26  H   UNL     1     -14.264   0.731 -31.852  1.00  0.00     0.172 HD
HETATM   27  H   UNL     1     -13.997   3.004 -34.388  1.00  0.00     0.164 HD
BRANCH  24  28
HETATM   28  C   UNL     1     -15.134   2.558 -32.290  1.00  0.00     0.131 A 
HETATM   29  N   UNL     1     -14.606   3.774 -32.033  1.00  0.00    -0.243 NA
HETATM   30  C   UNL     1     -15.470   4.787 -31.778  1.00  0.00     0.125 A 
HETATM   31  C   UNL     1     -16.852   4.648 -31.749  1.00  0.00    -0.044 A 
HETATM   32  C   UNL     1     -17.744   5.818 -31.488  1.00  0.00     0.049 C 
HETATM   33  C   UNL     1     -17.370   3.386 -32.032  1.00  0.00     0.012 A 
HETATM   34  C   UNL     1     -16.505   2.328 -32.301  1.00  0.00     0.051 A 
ENDBRANCH  24  28
ENDBRANCH  21  22
ENDBRANCH   1  21
TORSDOF 6
ENDMDL
