MODEL 1
REMARK VINA RESULT:      -8.6      0.000      0.000
REMARK  6 active torsions:
REMARK  status: ('A' for Active; 'I' for Inactive)
REMARK    1  A    between atoms: C_3  and  C_4 
REMARK       I    between atoms: C_4  and  N_5 
REMARK    2  A    between atoms: N_5  and  C_6 
REMARK    3  A    between atoms: C_6  and  C_7 
REMARK    4  A    between atoms: C_7  and  N_8 
REMARK    5  A    between atoms: C_7  and  C_14 
REMARK    6  A    between atoms: C_21  and  C_22 
ROOT
HETATM    1  C   UNL     1      -4.618   2.329 -31.964  1.00  0.00     0.272 C 
HETATM    2  N   UNL     1      -3.434   2.873 -32.426  1.00  0.00    -0.354 N 
HETATM    3  O   UNL     1      -5.230   2.789 -31.007  1.00  0.00    -0.266 OA
HETATM    4  H   UNL     1      -2.979   2.289 -33.129  1.00  0.00     0.162 HD
ENDROOT
BRANCH   1   5
HETATM    5  C   UNL     1      -5.070   1.185 -32.774  1.00  0.00     0.152 A 
HETATM    6  C   UNL     1      -4.641  -0.174 -32.706  1.00  0.00     0.003 A 
HETATM    7  C   UNL     1      -3.586  -0.731 -31.817  1.00  0.00     0.053 C 
HETATM    8  C   UNL     1      -5.404  -0.841 -33.653  1.00  0.00     0.069 A 
HETATM    9  N   UNL     1      -6.187   0.124 -34.229  1.00  0.00    -0.276 N 
HETATM   10  N   UNL     1      -6.011   1.359 -33.728  1.00  0.00    -0.168 NA
HETATM   11  H   UNL     1      -6.876  -0.011 -34.964  1.00  0.00     0.189 HD
BRANCH   8  12
HETATM   12  C   UNL     1      -5.479  -2.246 -34.049  1.00  0.00    -0.007 A 
HETATM   13  C   UNL     1      -4.360  -3.083 -33.936  1.00  0.00     0.014 A 
HETATM   14  C   UNL     1      -4.433  -4.421 -34.332  1.00  0.00     0.001 A 
HETATM   15  C   UNL     1      -5.623  -4.935 -34.843  1.00  0.00     0.000 A 
HETATM   16  C   UNL     1      -6.741  -4.113 -34.958  1.00  0.00     0.001 A 
HETATM   17  C   UNL     1      -6.669  -2.775 -34.565  1.00  0.00     0.014 A 
ENDBRANCH   8  12
ENDBRANCH   1   5
BRANCH   2  18
HETATM   18  C   UNL     1      -2.690   3.863 -31.684  1.00  0.00     0.156 C 
BRANCH  18  19
HETATM   19  C   UNL     1      -2.350   5.166 -32.470  1.00  0.00     0.209 C 
BRANCH  19  20
HETATM   20  N   UNL     1      -1.038   5.829 -32.014  1.00  0.00    -0.065 N 
HETATM   21  H   UNL     1      -0.533   6.082 -32.869  1.00  0.00     0.280 HD
HETATM   22  C   UNL     1      -0.056   4.980 -31.224  1.00  0.00     0.235 C 
HETATM   23  C   UNL     1       0.277   5.805 -29.994  1.00  0.00     0.029 C 
HETATM   24  C   UNL     1       0.071   7.238 -30.439  1.00  0.00     0.029 C 
HETATM   25  C   UNL     1      -1.173   7.161 -31.299  1.00  0.00     0.235 C 
ENDBRANCH  19  20
BRANCH  19  26
HETATM   26  C   UNL     1      -2.295   4.919 -34.011  1.00  0.00     0.010 C 
HETATM   27  C   UNL     1      -3.562   5.424 -34.718  1.00  0.00     0.011 C 
HETATM   28  C   UNL     1      -1.083   5.584 -34.680  1.00  0.00     0.011 C 
ENDBRANCH  19  26
ENDBRANCH  18  19
ENDBRANCH   2  18
TORSDOF 6
ENDMDL
MODEL 2
REMARK VINA RESULT:      -8.5      1.975      2.914
REMARK  6 active torsions:
REMARK  status: ('A' for Active; 'I' for Inactive)
REMARK    1  A    between atoms: C_3  and  C_4 
REMARK       I    between atoms: C_4  and  N_5 
REMARK    2  A    between atoms: N_5  and  C_6 
REMARK    3  A    between atoms: C_6  and  C_7 
REMARK    4  A    between atoms: C_7  and  N_8 
REMARK    5  A    between atoms: C_7  and  C_14 
REMARK    6  A    between atoms: C_21  and  C_22 
ROOT
HETATM    1  C   UNL     1      -6.838   2.674 -33.471  1.00  0.00     0.272 C 
HETATM    2  N   UNL     1      -6.165   3.591 -34.256  1.00  0.00    -0.354 N 
HETATM    3  O   UNL     1      -7.459   2.992 -32.463  1.00  0.00    -0.266 OA
HETATM    4  H   UNL     1      -5.581   3.149 -34.967  1.00  0.00     0.162 HD
ENDROOT
BRANCH   1   5
HETATM    5  C   UNL     1      -6.763   1.304 -34.008  1.00  0.00     0.152 A 
HETATM    6  C   UNL     1      -5.961   0.216 -33.550  1.00  0.00     0.003 A 
HETATM    7  C   UNL     1      -4.973   0.243 -32.438  1.00  0.00     0.053 C 
HETATM    8  C   UNL     1      -6.295  -0.849 -34.375  1.00  0.00     0.069 A 
HETATM    9  N   UNL     1      -7.213  -0.346 -35.259  1.00  0.00    -0.276 N 
HETATM   10  N   UNL     1      -7.516   0.951 -35.072  1.00  0.00    -0.168 NA
HETATM   11  H   UNL     1      -7.678  -0.853 -36.006  1.00  0.00     0.189 HD
BRANCH   8  12
HETATM   12  C   UNL     1      -5.866  -2.245 -34.406  1.00  0.00    -0.007 A 
HETATM   13  C   UNL     1      -4.543  -2.595 -34.098  1.00  0.00     0.014 A 
HETATM   14  C   UNL     1      -4.134  -3.930 -34.146  1.00  0.00     0.001 A 
HETATM   15  C   UNL     1      -5.039  -4.927 -34.501  1.00  0.00     0.000 A 
HETATM   16  C   UNL     1      -6.356  -4.591 -34.808  1.00  0.00     0.001 A 
HETATM   17  C   UNL     1      -6.766  -3.257 -34.763  1.00  0.00     0.014 A 
ENDBRANCH   8  12
ENDBRANCH   1   5
BRANCH   2  18
HETATM   18  C   UNL     1      -5.924   4.951 -33.832  1.00  0.00     0.156 C 
BRANCH  18  19
HETATM   19  C   UNL     1      -4.661   5.154 -32.940  1.00  0.00     0.209 C 
BRANCH  19  20
HETATM   20  N   UNL     1      -3.538   5.937 -33.642  1.00  0.00    -0.065 N 
HETATM   21  H   UNL     1      -3.927   6.859 -33.865  1.00  0.00     0.280 HD
HETATM   22  C   UNL     1      -3.030   5.402 -34.971  1.00  0.00     0.235 C 
HETATM   23  C   UNL     1      -1.521   5.345 -34.821  1.00  0.00     0.029 C 
HETATM   24  C   UNL     1      -1.206   6.418 -33.801  1.00  0.00     0.029 C 
HETATM   25  C   UNL     1      -2.329   6.283 -32.793  1.00  0.00     0.235 C 
ENDBRANCH  19  20
BRANCH  19  26
HETATM   26  C   UNL     1      -5.009   5.852 -31.587  1.00  0.00     0.010 C 
HETATM   27  C   UNL     1      -6.280   6.708 -31.693  1.00  0.00     0.011 C 
HETATM   28  C   UNL     1      -5.203   4.857 -30.434  1.00  0.00     0.011 C 
ENDBRANCH  19  26
ENDBRANCH  18  19
ENDBRANCH   2  18
TORSDOF 6
ENDMDL
MODEL 3
REMARK VINA RESULT:      -8.4      1.458      3.230
REMARK  6 active torsions:
REMARK  status: ('A' for Active; 'I' for Inactive)
REMARK    1  A    between atoms: C_3  and  C_4 
REMARK       I    between atoms: C_4  and  N_5 
REMARK    2  A    between atoms: N_5  and  C_6 
REMARK    3  A    between atoms: C_6  and  C_7 
REMARK    4  A    between atoms: C_7  and  N_8 
REMARK    5  A    between atoms: C_7  and  C_14 
REMARK    6  A    between atoms: C_21  and  C_22 
ROOT
HETATM    1  C   UNL     1      -3.962   2.860 -31.168  1.00  0.00     0.272 C 
HETATM    2  N   UNL     1      -2.737   3.403 -31.508  1.00  0.00    -0.354 N 
HETATM    3  O   UNL     1      -4.847   3.509 -30.623  1.00  0.00    -0.266 OA
HETATM    4  H   UNL     1      -2.064   2.699 -31.815  1.00  0.00     0.162 HD
ENDROOT
BRANCH   1   5
HETATM    5  C   UNL     1      -4.090   1.450 -31.576  1.00  0.00     0.152 A 
HETATM    6  C   UNL     1      -4.934   0.892 -32.581  1.00  0.00     0.003 A 
HETATM    7  C   UNL     1      -5.924   1.622 -33.419  1.00  0.00     0.053 C 
HETATM    8  C   UNL     1      -4.641  -0.464 -32.586  1.00  0.00     0.069 A 
HETATM    9  N   UNL     1      -3.702  -0.633 -31.603  1.00  0.00    -0.276 N 
HETATM   10  N   UNL     1      -3.348   0.499 -30.969  1.00  0.00    -0.168 NA
HETATM   11  H   UNL     1      -3.255  -1.505 -31.333  1.00  0.00     0.189 HD
BRANCH   8  12
HETATM   12  C   UNL     1      -5.125  -1.576 -33.401  1.00  0.00    -0.007 A 
HETATM   13  C   UNL     1      -6.452  -1.608 -33.853  1.00  0.00     0.014 A 
HETATM   14  C   UNL     1      -6.915  -2.682 -34.618  1.00  0.00     0.001 A 
HETATM   15  C   UNL     1      -6.057  -3.732 -34.940  1.00  0.00     0.000 A 
HETATM   16  C   UNL     1      -4.736  -3.709 -34.499  1.00  0.00     0.001 A 
HETATM   17  C   UNL     1      -4.274  -2.638 -33.731  1.00  0.00     0.014 A 
ENDBRANCH   8  12
ENDBRANCH   1   5
BRANCH   2  18
HETATM   18  C   UNL     1      -2.300   4.696 -31.035  1.00  0.00     0.156 C 
BRANCH  18  19
HETATM   19  C   UNL     1      -1.561   5.574 -32.091  1.00  0.00     0.209 C 
BRANCH  19  20
HETATM   20  N   UNL     1      -2.448   5.965 -33.286  1.00  0.00    -0.065 N 
HETATM   21  H   UNL     1      -2.117   6.882 -33.601  1.00  0.00     0.280 HD
HETATM   22  C   UNL     1      -3.933   6.159 -33.029  1.00  0.00     0.235 C 
HETATM   23  C   UNL     1      -4.629   5.315 -34.082  1.00  0.00     0.029 C 
HETATM   24  C   UNL     1      -3.642   5.262 -35.230  1.00  0.00     0.029 C 
HETATM   25  C   UNL     1      -2.304   5.112 -34.534  1.00  0.00     0.235 C 
ENDBRANCH  19  20
BRANCH  19  26
HETATM   26  C   UNL     1      -0.955   6.864 -31.454  1.00  0.00     0.010 C 
HETATM   27  C   UNL     1      -1.632   7.220 -30.122  1.00  0.00     0.011 C 
HETATM   28  C   UNL     1       0.556   6.753 -31.203  1.00  0.00     0.011 C 
ENDBRANCH  19  26
ENDBRANCH  18  19
ENDBRANCH   2  18
TORSDOF 6
ENDMDL
MODEL 4
REMARK VINA RESULT:      -8.2      5.669      8.333
REMARK  6 active torsions:
REMARK  status: ('A' for Active; 'I' for Inactive)
REMARK    1  A    between atoms: C_3  and  C_4 
REMARK       I    between atoms: C_4  and  N_5 
REMARK    2  A    between atoms: N_5  and  C_6 
REMARK    3  A    between atoms: C_6  and  C_7 
REMARK    4  A    between atoms: C_7  and  N_8 
REMARK    5  A    between atoms: C_7  and  C_14 
REMARK    6  A    between atoms: C_21  and  C_22 
ROOT
HETATM    1  C   UNL     1      -8.595   2.475 -32.322  1.00  0.00     0.272 C 
HETATM    2  N   UNL     1      -9.940   2.265 -32.085  1.00  0.00    -0.354 N 
HETATM    3  O   UNL     1      -8.103   3.595 -32.405  1.00  0.00    -0.266 OA
HETATM    4  H   UNL     1     -10.212   1.287 -32.191  1.00  0.00     0.162 HD
ENDROOT
BRANCH   1   5
HETATM    5  C   UNL     1      -7.831   1.219 -32.412  1.00  0.00     0.152 A 
HETATM    6  C   UNL     1      -7.698   0.341 -33.529  1.00  0.00     0.003 A 
HETATM    7  C   UNL     1      -8.353   0.483 -34.857  1.00  0.00     0.053 C 
HETATM    8  C   UNL     1      -6.847  -0.666 -33.095  1.00  0.00     0.069 A 
HETATM    9  N   UNL     1      -6.562  -0.360 -31.791  1.00  0.00    -0.276 N 
HETATM   10  N   UNL     1      -7.141   0.768 -31.342  1.00  0.00    -0.168 NA
HETATM   11  H   UNL     1      -5.960  -0.884 -31.162  1.00  0.00     0.189 HD
BRANCH   8  12
HETATM   12  C   UNL     1      -6.284  -1.838 -33.763  1.00  0.00    -0.007 A 
HETATM   13  C   UNL     1      -4.896  -1.992 -33.889  1.00  0.00     0.014 A 
HETATM   14  C   UNL     1      -4.364  -3.106 -34.543  1.00  0.00     0.001 A 
HETATM   15  C   UNL     1      -5.211  -4.076 -35.075  1.00  0.00     0.000 A 
HETATM   16  C   UNL     1      -6.591  -3.934 -34.954  1.00  0.00     0.001 A 
HETATM   17  C   UNL     1      -7.125  -2.819 -34.303  1.00  0.00     0.014 A 
ENDBRANCH   8  12
ENDBRANCH   1   5
BRANCH   2  18
HETATM   18  C   UNL     1     -10.920   3.324 -32.161  1.00  0.00     0.156 C 
BRANCH  18  19
HETATM   19  C   UNL     1     -12.072   3.090 -33.184  1.00  0.00     0.209 C 
BRANCH  19  20
HETATM   20  N   UNL     1     -13.239   2.267 -32.611  1.00  0.00    -0.065 N 
HETATM   21  H   UNL     1     -12.882   1.814 -31.764  1.00  0.00     0.280 HD
HETATM   22  C   UNL     1     -13.781   1.127 -33.457  1.00  0.00     0.235 C 
HETATM   23  C   UNL     1     -15.282   1.347 -33.501  1.00  0.00     0.029 C 
HETATM   24  C   UNL     1     -15.587   2.093 -32.219  1.00  0.00     0.029 C 
HETATM   25  C   UNL     1     -14.426   3.058 -32.091  1.00  0.00     0.235 C 
ENDBRANCH  19  20
BRANCH  19  26
HETATM   26  C   UNL     1     -12.622   4.433 -33.761  1.00  0.00     0.010 C 
HETATM   27  C   UNL     1     -11.739   5.628 -33.371  1.00  0.00     0.011 C 
HETATM   28  C   UNL     1     -12.750   4.418 -35.291  1.00  0.00     0.011 C 
ENDBRANCH  19  26
ENDBRANCH  18  19
ENDBRANCH   2  18
TORSDOF 6
ENDMDL
MODEL 5
REMARK VINA RESULT:      -8.1      2.077      2.906
REMARK  6 active torsions:
REMARK  status: ('A' for Active; 'I' for Inactive)
REMARK    1  A    between atoms: C_3  and  C_4 
REMARK       I    between atoms: C_4  and  N_5 
REMARK    2  A    between atoms: N_5  and  C_6 
REMARK    3  A    between atoms: C_6  and  C_7 
REMARK    4  A    between atoms: C_7  and  N_8 
REMARK    5  A    between atoms: C_7  and  C_14 
REMARK    6  A    between atoms: C_21  and  C_22 
ROOT
HETATM    1  C   UNL     1      -6.688   2.643 -33.187  1.00  0.00     0.272 C 
HETATM    2  N   UNL     1      -6.053   3.648 -33.892  1.00  0.00    -0.354 N 
HETATM    3  O   UNL     1      -7.323   2.853 -32.159  1.00  0.00    -0.266 OA
HETATM    4  H   UNL     1      -5.450   3.290 -34.633  1.00  0.00     0.162 HD
ENDROOT
BRANCH   1   5
HETATM    5  C   UNL     1      -6.555   1.326 -33.833  1.00  0.00     0.152 A 
HETATM    6  C   UNL     1      -5.938   0.146 -33.319  1.00  0.00     0.003 A 
HETATM    7  C   UNL     1      -5.240   0.001 -32.014  1.00  0.00     0.053 C 
HETATM    8  C   UNL     1      -6.120  -0.813 -34.306  1.00  0.00     0.069 A 
HETATM    9  N   UNL     1      -6.777  -0.167 -35.320  1.00  0.00    -0.276 N 
HETATM   10  N   UNL     1      -7.053   1.126 -35.072  1.00  0.00    -0.168 NA
HETATM   11  H   UNL     1      -7.078  -0.571 -36.202  1.00  0.00     0.189 HD
BRANCH   8  12
HETATM   12  C   UNL     1      -5.764  -2.228 -34.384  1.00  0.00    -0.007 A 
HETATM   13  C   UNL     1      -6.714  -3.186 -34.765  1.00  0.00     0.014 A 
HETATM   14  C   UNL     1      -6.372  -4.540 -34.821  1.00  0.00     0.001 A 
HETATM   15  C   UNL     1      -5.080  -4.949 -34.501  1.00  0.00     0.000 A 
HETATM   16  C   UNL     1      -4.127  -4.006 -34.124  1.00  0.00     0.001 A 
HETATM   17  C   UNL     1      -4.468  -2.653 -34.064  1.00  0.00     0.014 A 
ENDBRANCH   8  12
ENDBRANCH   1   5
BRANCH   2  18
HETATM   18  C   UNL     1      -5.869   4.978 -33.358  1.00  0.00     0.156 C 
BRANCH  18  19
HETATM   19  C   UNL     1      -4.446   5.276 -32.794  1.00  0.00     0.209 C 
BRANCH  19  20
HETATM   20  N   UNL     1      -4.433   5.532 -31.277  1.00  0.00    -0.065 N 
HETATM   21  H   UNL     1      -3.936   4.740 -30.857  1.00  0.00     0.280 HD
HETATM   22  C   UNL     1      -5.771   5.572 -30.557  1.00  0.00     0.235 C 
HETATM   23  C   UNL     1      -5.748   6.862 -29.756  1.00  0.00     0.029 C 
HETATM   24  C   UNL     1      -4.277   7.114 -29.496  1.00  0.00     0.029 C 
HETATM   25  C   UNL     1      -3.620   6.723 -30.804  1.00  0.00     0.235 C 
ENDBRANCH  19  20
BRANCH  19  26
HETATM   26  C   UNL     1      -3.433   4.138 -33.135  1.00  0.00     0.010 C 
HETATM   27  C   UNL     1      -2.083   4.695 -33.612  1.00  0.00     0.011 C 
HETATM   28  C   UNL     1      -3.166   3.201 -31.948  1.00  0.00     0.011 C 
ENDBRANCH  19  26
ENDBRANCH  18  19
ENDBRANCH   2  18
TORSDOF 6
ENDMDL
MODEL 6
REMARK VINA RESULT:      -8.1      2.000      2.880
REMARK  6 active torsions:
REMARK  status: ('A' for Active; 'I' for Inactive)
REMARK    1  A    between atoms: C_3  and  C_4 
REMARK       I    between atoms: C_4  and  N_5 
REMARK    2  A    between atoms: N_5  and  C_6 
REMARK    3  A    between atoms: C_6  and  C_7 
REMARK    4  A    between atoms: C_7  and  N_8 
REMARK    5  A    between atoms: C_7  and  C_14 
REMARK    6  A    between atoms: C_21  and  C_22 
ROOT
HETATM    1  C   UNL     1      -3.833   2.302 -31.806  1.00  0.00     0.272 C 
HETATM    2  N   UNL     1      -2.948   2.998 -32.608  1.00  0.00    -0.354 N 
HETATM    3  O   UNL     1      -4.508   2.842 -30.938  1.00  0.00    -0.266 OA
HETATM    4  H   UNL     1      -2.360   2.385 -33.173  1.00  0.00     0.162 HD
ENDROOT
BRANCH   1   5
HETATM    5  C   UNL     1      -3.901   0.870 -32.148  1.00  0.00     0.152 A 
HETATM    6  C   UNL     1      -4.847   0.203 -32.983  1.00  0.00     0.003 A 
HETATM    7  C   UNL     1      -6.021   0.813 -33.663  1.00  0.00     0.053 C 
HETATM    8  C   UNL     1      -4.439  -1.124 -32.999  1.00  0.00     0.069 A 
HETATM    9  N   UNL     1      -3.340  -1.173 -32.182  1.00  0.00    -0.276 N 
HETATM   10  N   UNL     1      -2.988   0.010 -31.647  1.00  0.00    -0.168 NA
HETATM   11  H   UNL     1      -2.780  -1.993 -31.967  1.00  0.00     0.189 HD
BRANCH   8  12
HETATM   12  C   UNL     1      -4.950  -2.304 -33.691  1.00  0.00    -0.007 A 
HETATM   13  C   UNL     1      -6.234  -2.304 -34.255  1.00  0.00     0.014 A 
HETATM   14  C   UNL     1      -6.725  -3.443 -34.901  1.00  0.00     0.001 A 
HETATM   15  C   UNL     1      -5.939  -4.589 -34.991  1.00  0.00     0.000 A 
HETATM   16  C   UNL     1      -4.661  -4.600 -34.436  1.00  0.00     0.001 A 
HETATM   17  C   UNL     1      -4.171  -3.464 -33.788  1.00  0.00     0.014 A 
ENDBRANCH   8  12
ENDBRANCH   1   5
BRANCH   2  18
HETATM   18  C   UNL     1      -2.557   4.362 -32.334  1.00  0.00     0.156 C 
BRANCH  18  19
HETATM   19  C   UNL     1      -3.289   5.445 -33.184  1.00  0.00     0.209 C 
BRANCH  19  20
HETATM   20  N   UNL     1      -4.151   6.402 -32.341  1.00  0.00    -0.065 N 
HETATM   21  H   UNL     1      -3.863   7.350 -32.600  1.00  0.00     0.280 HD
HETATM   22  C   UNL     1      -3.990   6.350 -30.831  1.00  0.00     0.235 C 
HETATM   23  C   UNL     1      -5.402   6.216 -30.289  1.00  0.00     0.029 C 
HETATM   24  C   UNL     1      -6.271   6.864 -31.346  1.00  0.00     0.029 C 
HETATM   25  C   UNL     1      -5.638   6.409 -32.645  1.00  0.00     0.235 C 
ENDBRANCH  19  20
BRANCH  19  26
HETATM   26  C   UNL     1      -2.293   6.277 -34.052  1.00  0.00     0.010 C 
HETATM   27  C   UNL     1      -1.469   7.255 -33.201  1.00  0.00     0.011 C 
HETATM   28  C   UNL     1      -1.314   5.399 -34.845  1.00  0.00     0.011 C 
ENDBRANCH  19  26
ENDBRANCH  18  19
ENDBRANCH   2  18
TORSDOF 6
ENDMDL
MODEL 7
REMARK VINA RESULT:      -7.8      5.433      7.669
REMARK  6 active torsions:
REMARK  status: ('A' for Active; 'I' for Inactive)
REMARK    1  A    between atoms: C_3  and  C_4 
REMARK       I    between atoms: C_4  and  N_5 
REMARK    2  A    between atoms: N_5  and  C_6 
REMARK    3  A    between atoms: C_6  and  C_7 
REMARK    4  A    between atoms: C_7  and  N_8 
REMARK    5  A    between atoms: C_7  and  C_14 
REMARK    6  A    between atoms: C_21  and  C_22 
ROOT
HETATM    1  C   UNL     1      -8.223   2.105 -33.195  1.00  0.00     0.272 C 
HETATM    2  N   UNL     1      -9.605   2.086 -33.196  1.00  0.00    -0.354 N 
HETATM    3  O   UNL     1      -7.572   2.996 -32.663  1.00  0.00    -0.266 OA
HETATM    4  H   UNL     1      -9.990   1.362 -33.803  1.00  0.00     0.162 HD
ENDROOT
BRANCH   1   5
HETATM    5  C   UNL     1      -7.639   0.922 -33.852  1.00  0.00     0.152 A 
HETATM    6  C   UNL     1      -6.976  -0.188 -33.251  1.00  0.00     0.003 A 
HETATM    7  C   UNL     1      -6.680  -0.373 -31.805  1.00  0.00     0.053 C 
HETATM    8  C   UNL     1      -6.658  -1.032 -34.306  1.00  0.00     0.069 A 
HETATM    9  N   UNL     1      -7.104  -0.387 -35.430  1.00  0.00    -0.276 N 
HETATM   10  N   UNL     1      -7.697   0.797 -35.196  1.00  0.00    -0.168 NA
HETATM   11  H   UNL     1      -7.041  -0.722 -36.387  1.00  0.00     0.189 HD
BRANCH   8  12
HETATM   12  C   UNL     1      -6.015  -2.343 -34.363  1.00  0.00    -0.007 A 
HETATM   13  C   UNL     1      -6.726  -3.473 -34.790  1.00  0.00     0.014 A 
HETATM   14  C   UNL     1      -6.110  -4.726 -34.826  1.00  0.00     0.001 A 
HETATM   15  C   UNL     1      -4.780  -4.863 -34.437  1.00  0.00     0.000 A 
HETATM   16  C   UNL     1      -4.063  -3.747 -34.012  1.00  0.00     0.001 A 
HETATM   17  C   UNL     1      -4.678  -2.494 -33.973  1.00  0.00     0.014 A 
ENDBRANCH   8  12
ENDBRANCH   1   5
BRANCH   2  18
HETATM   18  C   UNL     1     -10.399   3.225 -32.796  1.00  0.00     0.156 C 
BRANCH  18  19
HETATM   19  C   UNL     1     -11.942   3.021 -32.884  1.00  0.00     0.209 C 
BRANCH  19  20
HETATM   20  N   UNL     1     -12.688   3.458 -31.610  1.00  0.00    -0.065 N 
HETATM   21  H   UNL     1     -12.518   2.726 -30.913  1.00  0.00     0.280 HD
HETATM   22  C   UNL     1     -14.202   3.574 -31.684  1.00  0.00     0.235 C 
HETATM   23  C   UNL     1     -14.519   4.951 -31.128  1.00  0.00     0.029 C 
HETATM   24  C   UNL     1     -13.373   5.244 -30.183  1.00  0.00     0.029 C 
HETATM   25  C   UNL     1     -12.164   4.704 -30.920  1.00  0.00     0.235 C 
ENDBRANCH  19  20
BRANCH  19  26
HETATM   26  C   UNL     1     -12.558   3.752 -34.119  1.00  0.00     0.010 C 
HETATM   27  C   UNL     1     -11.697   4.943 -34.568  1.00  0.00     0.011 C 
HETATM   28  C   UNL     1     -12.751   2.824 -35.327  1.00  0.00     0.011 C 
ENDBRANCH  19  26
ENDBRANCH  18  19
ENDBRANCH   2  18
TORSDOF 6
ENDMDL
MODEL 8
REMARK VINA RESULT:      -7.8      1.743      2.648
REMARK  6 active torsions:
REMARK  status: ('A' for Active; 'I' for Inactive)
REMARK    1  A    between atoms: C_3  and  C_4 
REMARK       I    between atoms: C_4  and  N_5 
REMARK    2  A    between atoms: N_5  and  C_6 
REMARK    3  A    between atoms: C_6  and  C_7 
REMARK    4  A    between atoms: C_7  and  N_8 
REMARK    5  A    between atoms: C_7  and  C_14 
REMARK    6  A    between atoms: C_21  and  C_22 
ROOT
HETATM    1  C   UNL     1      -4.986   2.062 -31.217  1.00  0.00     0.272 C 
HETATM    2  N   UNL     1      -5.224   3.172 -32.006  1.00  0.00    -0.354 N 
HETATM    3  O   UNL     1      -5.050   2.092 -29.994  1.00  0.00    -0.266 OA
HETATM    4  H   UNL     1      -4.987   3.018 -32.987  1.00  0.00     0.162 HD
ENDROOT
BRANCH   1   5
HETATM    5  C   UNL     1      -4.701   0.854 -32.010  1.00  0.00     0.152 A 
HETATM    6  C   UNL     1      -5.568  -0.243 -32.295  1.00  0.00     0.003 A 
HETATM    7  C   UNL     1      -6.959  -0.430 -31.804  1.00  0.00     0.053 C 
HETATM    8  C   UNL     1      -4.824  -1.088 -33.106  1.00  0.00     0.069 A 
HETATM    9  N   UNL     1      -3.598  -0.488 -33.225  1.00  0.00    -0.276 N 
HETATM   10  N   UNL     1      -3.485   0.684 -32.573  1.00  0.00    -0.168 NA
HETATM   11  H   UNL     1      -2.803  -0.830 -33.756  1.00  0.00     0.189 HD
BRANCH   8  12
HETATM   12  C   UNL     1      -5.140  -2.352 -33.769  1.00  0.00    -0.007 A 
HETATM   13  C   UNL     1      -4.238  -3.425 -33.733  1.00  0.00     0.014 A 
HETATM   14  C   UNL     1      -4.539  -4.625 -34.383  1.00  0.00     0.001 A 
HETATM   15  C   UNL     1      -5.742  -4.765 -35.072  1.00  0.00     0.000 A 
HETATM   16  C   UNL     1      -6.646  -3.706 -35.112  1.00  0.00     0.001 A 
HETATM   17  C   UNL     1      -6.345  -2.505 -34.465  1.00  0.00     0.014 A 
ENDBRANCH   8  12
ENDBRANCH   1   5
BRANCH   2  18
HETATM   18  C   UNL     1      -5.323   4.507 -31.463  1.00  0.00     0.156 C 
BRANCH  18  19
HETATM   19  C   UNL     1      -4.107   5.436 -31.761  1.00  0.00     0.209 C 
BRANCH  19  20
HETATM   20  N   UNL     1      -3.163   4.878 -32.840  1.00  0.00    -0.065 N 
HETATM   21  H   UNL     1      -3.343   3.871 -32.886  1.00  0.00     0.280 HD
HETATM   22  C   UNL     1      -1.667   4.991 -32.596  1.00  0.00     0.235 C 
HETATM   23  C   UNL     1      -1.107   5.616 -33.860  1.00  0.00     0.029 C 
HETATM   24  C   UNL     1      -2.083   5.206 -34.943  1.00  0.00     0.029 C 
HETATM   25  C   UNL     1      -3.431   5.330 -34.264  1.00  0.00     0.235 C 
ENDBRANCH  19  20
BRANCH  19  26
HETATM   26  C   UNL     1      -4.558   6.876 -32.163  1.00  0.00     0.010 C 
HETATM   27  C   UNL     1      -6.083   7.042 -32.086  1.00  0.00     0.011 C 
HETATM   28  C   UNL     1      -3.918   7.968 -31.293  1.00  0.00     0.011 C 
ENDBRANCH  19  26
ENDBRANCH  18  19
ENDBRANCH   2  18
TORSDOF 6
ENDMDL
MODEL 9
REMARK VINA RESULT:      -7.7      5.089      7.335
REMARK  6 active torsions:
REMARK  status: ('A' for Active; 'I' for Inactive)
REMARK    1  A    between atoms: C_3  and  C_4 
REMARK       I    between atoms: C_4  and  N_5 
REMARK    2  A    between atoms: N_5  and  C_6 
REMARK    3  A    between atoms: C_6  and  C_7 
REMARK    4  A    between atoms: C_7  and  N_8 
REMARK    5  A    between atoms: C_7  and  C_14 
REMARK    6  A    between atoms: C_21  and  C_22 
ROOT
HETATM    1  C   UNL     1      -7.558   2.509 -32.983  1.00  0.00     0.272 C 
HETATM    2  N   UNL     1      -8.939   2.549 -32.953  1.00  0.00    -0.354 N 
HETATM    3  O   UNL     1      -6.865   3.520 -33.018  1.00  0.00    -0.266 OA
HETATM    4  H   UNL     1      -9.364   1.629 -33.076  1.00  0.00     0.162 HD
ENDROOT
BRANCH   1   5
HETATM    5  C   UNL     1      -7.029   1.136 -32.920  1.00  0.00     0.152 A 
HETATM    6  C   UNL     1      -6.971   0.159 -33.959  1.00  0.00     0.003 A 
HETATM    7  C   UNL     1      -7.487   0.304 -35.347  1.00  0.00     0.053 C 
HETATM    8  C   UNL     1      -6.352  -0.941 -33.384  1.00  0.00     0.069 A 
HETATM    9  N   UNL     1      -6.116  -0.584 -32.083  1.00  0.00    -0.276 N 
HETATM   10  N   UNL     1      -6.515   0.660 -31.765  1.00  0.00    -0.168 NA
HETATM   11  H   UNL     1      -5.667  -1.151 -31.369  1.00  0.00     0.189 HD
BRANCH   8  12
HETATM   12  C   UNL     1      -5.960  -2.244 -33.919  1.00  0.00    -0.007 A 
HETATM   13  C   UNL     1      -6.913  -3.101 -34.486  1.00  0.00     0.014 A 
HETATM   14  C   UNL     1      -6.536  -4.353 -34.980  1.00  0.00     0.001 A 
HETATM   15  C   UNL     1      -5.205  -4.758 -34.914  1.00  0.00     0.000 A 
HETATM   16  C   UNL     1      -4.249  -3.914 -34.355  1.00  0.00     0.001 A 
HETATM   17  C   UNL     1      -4.625  -2.664 -33.858  1.00  0.00     0.014 A 
ENDBRANCH   8  12
ENDBRANCH   1   5
BRANCH   2  18
HETATM   18  C   UNL     1      -9.689   3.757 -33.209  1.00  0.00     0.156 C 
BRANCH  18  19
HETATM   19  C   UNL     1     -11.115   3.540 -33.801  1.00  0.00     0.209 C 
BRANCH  19  20
HETATM   20  N   UNL     1     -12.235   4.129 -32.925  1.00  0.00    -0.065 N 
HETATM   21  H   UNL     1     -12.684   4.859 -33.485  1.00  0.00     0.280 HD
HETATM   22  C   UNL     1     -11.829   4.827 -31.637  1.00  0.00     0.235 C 
HETATM   23  C   UNL     1     -12.695   4.200 -30.559  1.00  0.00     0.029 C 
HETATM   24  C   UNL     1     -13.937   3.745 -31.296  1.00  0.00     0.029 C 
HETATM   25  C   UNL     1     -13.390   3.199 -32.600  1.00  0.00     0.235 C 
ENDBRANCH  19  20
BRANCH  19  26
HETATM   26  C   UNL     1     -11.239   4.111 -35.249  1.00  0.00     0.010 C 
HETATM   27  C   UNL     1     -12.245   3.317 -36.095  1.00  0.00     0.011 C 
HETATM   28  C   UNL     1     -11.659   5.588 -35.275  1.00  0.00     0.011 C 
ENDBRANCH  19  26
ENDBRANCH  18  19
ENDBRANCH   2  18
TORSDOF 6
ENDMDL
MODEL 10
REMARK VINA RESULT:      -7.6      2.328      4.162
REMARK  6 active torsions:
REMARK  status: ('A' for Active; 'I' for Inactive)
REMARK    1  A    between atoms: C_3  and  C_4 
REMARK       I    between atoms: C_4  and  N_5 
REMARK    2  A    between atoms: N_5  and  C_6 
REMARK    3  A    between atoms: C_6  and  C_7 
REMARK    4  A    between atoms: C_7  and  N_8 
REMARK    5  A    between atoms: C_7  and  C_14 
REMARK    6  A    between atoms: C_21  and  C_22 
ROOT
HETATM    1  C   UNL     1      -4.578   5.584 -31.308  1.00  0.00     0.272 C 
HETATM    2  N   UNL     1      -3.419   5.510 -30.559  1.00  0.00    -0.354 N 
HETATM    3  O   UNL     1      -5.041   6.644 -31.712  1.00  0.00    -0.266 OA
HETATM    4  H   UNL     1      -3.252   4.578 -30.180  1.00  0.00     0.162 HD
ENDROOT
BRANCH   1   5
HETATM    5  C   UNL     1      -5.150   4.257 -31.599  1.00  0.00     0.152 A 
HETATM    6  C   UNL     1      -5.332   3.630 -32.868  1.00  0.00     0.003 A 
HETATM    7  C   UNL     1      -5.021   4.211 -34.202  1.00  0.00     0.053 C 
HETATM    8  C   UNL     1      -5.871   2.384 -32.579  1.00  0.00     0.069 A 
HETATM    9  N   UNL     1      -6.005   2.356 -31.216  1.00  0.00    -0.276 N 
HETATM   10  N   UNL     1      -5.584   3.471 -30.591  1.00  0.00    -0.168 NA
HETATM   11  H   UNL     1      -6.365   1.589 -30.657  1.00  0.00     0.189 HD
BRANCH   8  12
HETATM   12  C   UNL     1      -6.248   1.253 -33.423  1.00  0.00    -0.007 A 
HETATM   13  C   UNL     1      -5.559   0.034 -33.337  1.00  0.00     0.014 A 
HETATM   14  C   UNL     1      -5.913  -1.039 -34.159  1.00  0.00     0.001 A 
HETATM   15  C   UNL     1      -6.957  -0.907 -35.071  1.00  0.00     0.000 A 
HETATM   16  C   UNL     1      -7.650   0.298 -35.163  1.00  0.00     0.001 A 
HETATM   17  C   UNL     1      -7.296   1.372 -34.345  1.00  0.00     0.014 A 
ENDBRANCH   8  12
ENDBRANCH   1   5
BRANCH   2  18
HETATM   18  C   UNL     1      -2.792   6.675 -29.979  1.00  0.00     0.156 C 
BRANCH  18  19
HETATM   19  C   UNL     1      -1.260   6.803 -30.237  1.00  0.00     0.209 C 
BRANCH  19  20
HETATM   20  N   UNL     1      -0.898   6.887 -31.730  1.00  0.00    -0.065 N 
HETATM   21  H   UNL     1       0.077   7.198 -31.772  1.00  0.00     0.280 HD
HETATM   22  C   UNL     1      -1.659   7.888 -32.584  1.00  0.00     0.235 C 
HETATM   23  C   UNL     1      -2.147   7.093 -33.782  1.00  0.00     0.029 C 
HETATM   24  C   UNL     1      -1.139   5.971 -33.921  1.00  0.00     0.029 C 
HETATM   25  C   UNL     1      -0.861   5.571 -32.486  1.00  0.00     0.235 C 
ENDBRANCH  19  20
BRANCH  19  26
HETATM   26  C   UNL     1      -0.642   8.024 -29.486  1.00  0.00     0.010 C 
HETATM   27  C   UNL     1      -1.624   8.632 -28.474  1.00  0.00     0.011 C 
HETATM   28  C   UNL     1       0.652   7.672 -28.737  1.00  0.00     0.011 C 
ENDBRANCH  19  26
ENDBRANCH  18  19
ENDBRANCH   2  18
TORSDOF 6
ENDMDL
