MODEL 1
REMARK VINA RESULT:      -8.6      0.000      0.000
REMARK  5 active torsions:
REMARK  status: ('A' for Active; 'I' for Inactive)
REMARK    1  A    between atoms: C_8  and  N_9 
REMARK       I    between atoms: N_9  and  C_10 
REMARK    2  A    between atoms: C_10  and  C_11 
REMARK    3  A    between atoms: C_11  and  C_12 
REMARK    4  A    between atoms: C_14  and  N_15 
REMARK       I    between atoms: N_15  and  C_16 
REMARK       I    between atoms: C_16  and  N_17 
REMARK    5  A    between atoms: N_17  and  C_18 
ROOT
HETATM    1  C   UNL     1      -9.867   2.898 -34.381  1.00  0.00     0.052 A 
HETATM    2  N   UNL     1      -8.671   3.291 -33.797  1.00  0.00    -0.228 NA
HETATM    3  C   UNL     1      -8.498   4.578 -33.961  1.00  0.00     0.174 A 
HETATM    4  S   UNL     1      -9.728   5.405 -34.807  1.00  0.00    -0.062 SA
HETATM    5  C   UNL     1     -10.577   3.924 -34.980  1.00  0.00     0.081 A 
ENDROOT
BRANCH   1   6
HETATM    6  C   UNL     1     -10.236   1.455 -34.335  1.00  0.00     0.163 C 
BRANCH   6   7
HETATM    7  C   UNL     1      -9.166   0.588 -33.689  1.00  0.00     0.227 C 
HETATM    8  N   UNL     1      -8.026   0.437 -34.464  1.00  0.00    -0.326 N 
HETATM    9  H   UNL     1      -7.939   1.104 -35.232  1.00  0.00     0.169 HD
HETATM   10  O   UNL     1      -9.382   0.053 -32.602  1.00  0.00    -0.273 OA
BRANCH   8  11
HETATM   11  C   UNL     1      -6.957  -0.475 -34.268  1.00  0.00     0.042 A 
HETATM   12  C   UNL     1      -5.783  -0.042 -33.603  1.00  0.00    -0.014 A 
HETATM   13  C   UNL     1      -5.692   1.346 -33.023  1.00  0.00     0.052 C 
HETATM   14  C   UNL     1      -4.682  -0.923 -33.529  1.00  0.00     0.042 A 
HETATM   15 CL   UNL     1      -3.173  -0.466 -32.813  1.00  0.00    -0.084 Cl
HETATM   16  C   UNL     1      -4.759  -2.216 -34.051  1.00  0.00     0.024 A 
HETATM   17  C   UNL     1      -5.926  -2.647 -34.664  1.00  0.00     0.004 A 
HETATM   18  C   UNL     1      -7.013  -1.781 -34.775  1.00  0.00     0.030 A 
ENDBRANCH   8  11
ENDBRANCH   6   7
ENDBRANCH   1   6
BRANCH   3  19
HETATM   19  N   UNL     1      -7.490   5.383 -33.511  1.00  0.00    -0.287 N 
HETATM   20  C   UNL     1      -6.164   5.107 -33.773  1.00  0.00     0.326 C 
HETATM   21  N   UNL     1      -5.333   5.897 -32.989  1.00  0.00    -0.309 N 
HETATM   22  O   UNL     1      -5.774   4.257 -34.562  1.00  0.00    -0.247 OA
HETATM   23  H   UNL     1      -5.772   6.645 -32.476  1.00  0.00     0.170 HD
HETATM   24  H   UNL     1      -7.761   6.177 -32.961  1.00  0.00     0.172 HD
BRANCH  21  25
HETATM   25  C   UNL     1      -3.941   5.758 -32.805  1.00  0.00     0.036 A 
HETATM   26  C   UNL     1      -2.979   6.288 -33.671  1.00  0.00     0.032 A 
HETATM   27  C   UNL     1      -1.617   6.059 -33.445  1.00  0.00     0.044 A 
HETATM   28  C   UNL     1      -1.219   5.302 -32.353  1.00  0.00     0.116 A 
HETATM   29  F   UNL     1       0.084   5.076 -32.142  1.00  0.00    -0.206 F 
HETATM   30  C   UNL     1      -2.156   4.773 -31.476  1.00  0.00     0.044 A 
HETATM   31  C   UNL     1      -3.517   5.000 -31.703  1.00  0.00     0.032 A 
ENDBRANCH  21  25
ENDBRANCH   3  19
TORSDOF 5
ENDMDL
MODEL 2
REMARK VINA RESULT:      -8.4      3.662      7.782
REMARK  5 active torsions:
REMARK  status: ('A' for Active; 'I' for Inactive)
REMARK    1  A    between atoms: C_8  and  N_9 
REMARK       I    between atoms: N_9  and  C_10 
REMARK    2  A    between atoms: C_10  and  C_11 
REMARK    3  A    between atoms: C_11  and  C_12 
REMARK    4  A    between atoms: C_14  and  N_15 
REMARK       I    between atoms: N_15  and  C_16 
REMARK       I    between atoms: C_16  and  N_17 
REMARK    5  A    between atoms: N_17  and  C_18 
ROOT
HETATM    1  C   UNL     1      -6.813   3.858 -30.069  1.00  0.00     0.052 A 
HETATM    2  N   UNL     1      -6.264   3.085 -31.082  1.00  0.00    -0.228 NA
HETATM    3  C   UNL     1      -7.209   2.421 -31.696  1.00  0.00     0.174 A 
HETATM    4  S   UNL     1      -8.798   2.664 -31.125  1.00  0.00    -0.062 SA
HETATM    5  C   UNL     1      -8.188   3.753 -29.948  1.00  0.00     0.081 A 
ENDROOT
BRANCH   1   6
HETATM    6  C   UNL     1      -5.895   4.670 -29.221  1.00  0.00     0.163 C 
BRANCH   6   7
HETATM    7  C   UNL     1      -5.024   5.620 -30.028  1.00  0.00     0.227 C 
HETATM    8  N   UNL     1      -3.917   5.012 -30.601  1.00  0.00    -0.326 N 
HETATM    9  H   UNL     1      -3.952   3.992 -30.624  1.00  0.00     0.169 HD
HETATM   10  O   UNL     1      -5.303   6.817 -30.079  1.00  0.00    -0.273 OA
BRANCH   8  11
HETATM   11  C   UNL     1      -2.800   5.639 -31.210  1.00  0.00     0.042 A 
HETATM   12  C   UNL     1      -2.555   5.443 -32.592  1.00  0.00    -0.014 A 
HETATM   13  C   UNL     1      -3.516   4.652 -33.440  1.00  0.00     0.052 C 
HETATM   14  C   UNL     1      -1.371   5.970 -33.152  1.00  0.00     0.042 A 
HETATM   15 CL   UNL     1      -0.935   5.717 -34.809  1.00  0.00    -0.084 Cl
HETATM   16  C   UNL     1      -0.479   6.716 -32.379  1.00  0.00     0.024 A 
HETATM   17  C   UNL     1      -0.745   6.940 -31.037  1.00  0.00     0.004 A 
HETATM   18  C   UNL     1      -1.894   6.401 -30.457  1.00  0.00     0.030 A 
ENDBRANCH   8  11
ENDBRANCH   6   7
ENDBRANCH   1   6
BRANCH   3  19
HETATM   19  N   UNL     1      -7.122   1.584 -32.773  1.00  0.00    -0.287 N 
HETATM   20  C   UNL     1      -6.911   0.228 -32.628  1.00  0.00     0.326 C 
HETATM   21  N   UNL     1      -6.587  -0.352 -33.847  1.00  0.00    -0.309 N 
HETATM   22  O   UNL     1      -6.967  -0.374 -31.564  1.00  0.00    -0.247 OA
HETATM   23  H   UNL     1      -6.701   0.223 -34.667  1.00  0.00     0.170 HD
HETATM   24  H   UNL     1      -7.201   2.008 -33.679  1.00  0.00     0.172 HD
BRANCH  21  25
HETATM   25  C   UNL     1      -6.090  -1.653 -34.072  1.00  0.00     0.036 A 
HETATM   26  C   UNL     1      -4.745  -2.014 -33.937  1.00  0.00     0.032 A 
HETATM   27  C   UNL     1      -4.326  -3.315 -34.232  1.00  0.00     0.044 A 
HETATM   28  C   UNL     1      -5.251  -4.256 -34.658  1.00  0.00     0.116 A 
HETATM   29  F   UNL     1      -4.848  -5.500 -34.948  1.00  0.00    -0.206 F 
HETATM   30  C   UNL     1      -6.593  -3.924 -34.792  1.00  0.00     0.044 A 
HETATM   31  C   UNL     1      -7.011  -2.622 -34.499  1.00  0.00     0.032 A 
ENDBRANCH  21  25
ENDBRANCH   3  19
TORSDOF 5
ENDMDL
MODEL 3
REMARK VINA RESULT:      -8.4      2.052      2.209
REMARK  5 active torsions:
REMARK  status: ('A' for Active; 'I' for Inactive)
REMARK    1  A    between atoms: C_8  and  N_9 
REMARK       I    between atoms: N_9  and  C_10 
REMARK    2  A    between atoms: C_10  and  C_11 
REMARK    3  A    between atoms: C_11  and  C_12 
REMARK    4  A    between atoms: C_14  and  N_15 
REMARK       I    between atoms: N_15  and  C_16 
REMARK       I    between atoms: C_16  and  N_17 
REMARK    5  A    between atoms: N_17  and  C_18 
ROOT
HETATM    1  C   UNL     1      -8.663   2.162 -33.242  1.00  0.00     0.052 A 
HETATM    2  N   UNL     1      -7.344   2.238 -32.820  1.00  0.00    -0.228 NA
HETATM    3  C   UNL     1      -7.227   3.151 -31.890  1.00  0.00     0.174 A 
HETATM    4  S   UNL     1      -8.657   3.973 -31.453  1.00  0.00    -0.062 SA
HETATM    5  C   UNL     1      -9.522   3.038 -32.602  1.00  0.00     0.081 A 
ENDROOT
BRANCH   1   6
HETATM    6  C   UNL     1      -9.003   1.200 -34.329  1.00  0.00     0.163 C 
BRANCH   6   7
HETATM    7  C   UNL     1      -7.818   0.353 -34.767  1.00  0.00     0.227 C 
HETATM    8  N   UNL     1      -7.597  -0.756 -33.964  1.00  0.00    -0.326 N 
HETATM    9  H   UNL     1      -8.375  -1.002 -33.351  1.00  0.00     0.169 HD
HETATM   10  O   UNL     1      -7.128   0.709 -35.720  1.00  0.00    -0.273 OA
BRANCH   8  11
HETATM   11  C   UNL     1      -6.463  -1.608 -33.952  1.00  0.00     0.042 A 
HETATM   12  C   UNL     1      -5.453  -1.413 -32.978  1.00  0.00    -0.014 A 
HETATM   13  C   UNL     1      -5.612  -0.372 -31.900  1.00  0.00     0.052 C 
HETATM   14  C   UNL     1      -4.275  -2.186 -33.059  1.00  0.00     0.042 A 
HETATM   15 CL   UNL     1      -2.945  -1.970 -31.971  1.00  0.00    -0.084 Cl
HETATM   16  C   UNL     1      -4.121  -3.163 -34.045  1.00  0.00     0.024 A 
HETATM   17  C   UNL     1      -5.131  -3.377 -34.971  1.00  0.00     0.004 A 
HETATM   18  C   UNL     1      -6.290  -2.601 -34.927  1.00  0.00     0.030 A 
ENDBRANCH   8  11
ENDBRANCH   6   7
ENDBRANCH   1   6
BRANCH   3  19
HETATM   19  N   UNL     1      -6.126   3.521 -31.170  1.00  0.00    -0.287 N 
HETATM   20  C   UNL     1      -5.226   4.454 -31.641  1.00  0.00     0.326 C 
HETATM   21  N   UNL     1      -4.070   4.454 -30.872  1.00  0.00    -0.309 N 
HETATM   22  O   UNL     1      -5.407   5.160 -32.624  1.00  0.00    -0.247 OA
HETATM   23  H   UNL     1      -4.094   3.921 -30.017  1.00  0.00     0.170 HD
HETATM   24  H   UNL     1      -5.993   3.065 -30.285  1.00  0.00     0.172 HD
BRANCH  21  25
HETATM   25  C   UNL     1      -2.846   5.095 -31.163  1.00  0.00     0.036 A 
HETATM   26  C   UNL     1      -1.886   4.590 -32.045  1.00  0.00     0.032 A 
HETATM   27  C   UNL     1      -0.674   5.263 -32.236  1.00  0.00     0.044 A 
HETATM   28  C   UNL     1      -0.425   6.441 -31.548  1.00  0.00     0.116 A 
HETATM   29  F   UNL     1       0.739   7.080 -31.725  1.00  0.00    -0.206 F 
HETATM   30  C   UNL     1      -1.367   6.965 -30.673  1.00  0.00     0.044 A 
HETATM   31  C   UNL     1      -2.577   6.292 -30.481  1.00  0.00     0.032 A 
ENDBRANCH  21  25
ENDBRANCH   3  19
TORSDOF 5
ENDMDL
MODEL 4
REMARK VINA RESULT:      -8.4      4.644      7.754
REMARK  5 active torsions:
REMARK  status: ('A' for Active; 'I' for Inactive)
REMARK    1  A    between atoms: C_8  and  N_9 
REMARK       I    between atoms: N_9  and  C_10 
REMARK    2  A    between atoms: C_10  and  C_11 
REMARK    3  A    between atoms: C_11  and  C_12 
REMARK    4  A    between atoms: C_14  and  N_15 
REMARK       I    between atoms: N_15  and  C_16 
REMARK       I    between atoms: C_16  and  N_17 
REMARK    5  A    between atoms: N_17  and  C_18 
ROOT
HETATM    1  C   UNL     1      -8.323   3.862 -32.067  1.00  0.00     0.052 A 
HETATM    2  N   UNL     1      -8.525   2.893 -33.039  1.00  0.00    -0.228 NA
HETATM    3  C   UNL     1      -7.384   2.335 -33.353  1.00  0.00     0.174 A 
HETATM    4  S   UNL     1      -6.006   2.911 -32.528  1.00  0.00    -0.062 SA
HETATM    5  C   UNL     1      -7.006   4.009 -31.667  1.00  0.00     0.081 A 
ENDROOT
BRANCH   1   6
HETATM    6  C   UNL     1      -9.499   4.645 -31.593  1.00  0.00     0.163 C 
BRANCH   6   7
HETATM    7  C   UNL     1     -10.753   4.391 -32.417  1.00  0.00     0.227 C 
HETATM    8  N   UNL     1     -11.367   3.179 -32.141  1.00  0.00    -0.326 N 
HETATM    9  H   UNL     1     -11.062   2.731 -31.276  1.00  0.00     0.169 HD
HETATM   10  O   UNL     1     -11.101   5.204 -33.272  1.00  0.00    -0.273 OA
BRANCH   8  11
HETATM   11  C   UNL     1     -12.400   2.541 -32.875  1.00  0.00     0.042 A 
HETATM   12  C   UNL     1     -13.749   2.720 -32.483  1.00  0.00    -0.014 A 
HETATM   13  C   UNL     1     -14.106   3.651 -31.352  1.00  0.00     0.052 C 
HETATM   14  C   UNL     1     -14.752   1.980 -33.145  1.00  0.00     0.042 A 
HETATM   15 CL   UNL     1     -16.421   2.060 -32.689  1.00  0.00    -0.084 Cl
HETATM   16  C   UNL     1     -14.435   1.124 -34.203  1.00  0.00     0.024 A 
HETATM   17  C   UNL     1     -13.116   0.986 -34.609  1.00  0.00     0.004 A 
HETATM   18  C   UNL     1     -12.107   1.685 -33.947  1.00  0.00     0.030 A 
ENDBRANCH   8  11
ENDBRANCH   6   7
ENDBRANCH   1   6
BRANCH   3  19
HETATM   19  N   UNL     1      -7.128   1.312 -34.223  1.00  0.00    -0.287 N 
HETATM   20  C   UNL     1      -7.006   0.005 -33.797  1.00  0.00     0.326 C 
HETATM   21  N   UNL     1      -6.478  -0.793 -34.803  1.00  0.00    -0.309 N 
HETATM   22  O   UNL     1      -7.290  -0.389 -32.673  1.00  0.00    -0.247 OA
HETATM   23  H   UNL     1      -6.408  -0.379 -35.720  1.00  0.00     0.170 HD
HETATM   24  H   UNL     1      -7.013   1.561 -35.188  1.00  0.00     0.172 HD
BRANCH  21  25
HETATM   25  C   UNL     1      -6.002  -2.116 -34.688  1.00  0.00     0.036 A 
HETATM   26  C   UNL     1      -6.775  -3.253 -34.946  1.00  0.00     0.032 A 
HETATM   27  C   UNL     1      -6.241  -4.532 -34.755  1.00  0.00     0.044 A 
HETATM   28  C   UNL     1      -4.936  -4.674 -34.309  1.00  0.00     0.116 A 
HETATM   29  F   UNL     1      -4.429  -5.898 -34.118  1.00  0.00    -0.206 F 
HETATM   30  C   UNL     1      -4.148  -3.560 -34.053  1.00  0.00     0.044 A 
HETATM   31  C   UNL     1      -4.681  -2.281 -34.242  1.00  0.00     0.032 A 
ENDBRANCH  21  25
ENDBRANCH   3  19
TORSDOF 5
ENDMDL
MODEL 5
REMARK VINA RESULT:      -8.4      2.374      3.158
REMARK  5 active torsions:
REMARK  status: ('A' for Active; 'I' for Inactive)
REMARK    1  A    between atoms: C_8  and  N_9 
REMARK       I    between atoms: N_9  and  C_10 
REMARK    2  A    between atoms: C_10  and  C_11 
REMARK    3  A    between atoms: C_11  and  C_12 
REMARK    4  A    between atoms: C_14  and  N_15 
REMARK       I    between atoms: N_15  and  C_16 
REMARK       I    between atoms: C_16  and  N_17 
REMARK    5  A    between atoms: N_17  and  C_18 
ROOT
HETATM    1  C   UNL     1      -7.209   2.728 -33.911  1.00  0.00     0.052 A 
HETATM    2  N   UNL     1      -5.879   3.103 -34.040  1.00  0.00    -0.228 NA
HETATM    3  C   UNL     1      -5.758   4.388 -33.826  1.00  0.00     0.174 A 
HETATM    4  S   UNL     1      -7.195   5.234 -33.460  1.00  0.00    -0.062 SA
HETATM    5  C   UNL     1      -8.070   3.764 -33.595  1.00  0.00     0.081 A 
ENDROOT
BRANCH   1   6
HETATM    6  C   UNL     1      -7.567   1.301 -34.150  1.00  0.00     0.163 C 
BRANCH   6   7
HETATM    7  C   UNL     1      -6.784   0.336 -33.274  1.00  0.00     0.227 C 
HETATM    8  N   UNL     1      -5.584  -0.078 -33.831  1.00  0.00    -0.326 N 
HETATM    9  H   UNL     1      -5.261   0.487 -34.619  1.00  0.00     0.169 HD
HETATM   10  O   UNL     1      -7.258  -0.046 -32.205  1.00  0.00    -0.273 OA
BRANCH   8  11
HETATM   11  C   UNL     1      -4.739  -1.131 -33.394  1.00  0.00     0.042 A 
HETATM   12  C   UNL     1      -4.858  -2.413 -33.986  1.00  0.00    -0.014 A 
HETATM   13  C   UNL     1      -5.806  -2.647 -35.134  1.00  0.00     0.052 C 
HETATM   14  C   UNL     1      -4.100  -3.478 -33.453  1.00  0.00     0.042 A 
HETATM   15 CL   UNL     1      -4.232  -5.100 -34.046  1.00  0.00    -0.084 Cl
HETATM   16  C   UNL     1      -3.209  -3.270 -32.398  1.00  0.00     0.024 A 
HETATM   17  C   UNL     1      -3.067  -2.003 -31.851  1.00  0.00     0.004 A 
HETATM   18  C   UNL     1      -3.830  -0.945 -32.343  1.00  0.00     0.030 A 
ENDBRANCH   8  11
ENDBRANCH   6   7
ENDBRANCH   1   6
BRANCH   3  19
HETATM   19  N   UNL     1      -4.633   5.163 -33.806  1.00  0.00    -0.287 N 
HETATM   20  C   UNL     1      -3.724   5.104 -32.769  1.00  0.00     0.326 C 
HETATM   21  N   UNL     1      -2.830   6.164 -32.838  1.00  0.00    -0.309 N 
HETATM   22  O   UNL     1      -3.729   4.253 -31.890  1.00  0.00    -0.247 OA
HETATM   23  H   UNL     1      -2.851   6.720 -33.678  1.00  0.00     0.170 HD
HETATM   24  H   UNL     1      -4.508   5.795 -34.576  1.00  0.00     0.172 HD
BRANCH  21  25
HETATM   25  C   UNL     1      -1.908   6.573 -31.851  1.00  0.00     0.036 A 
HETATM   26  C   UNL     1      -2.208   7.466 -30.818  1.00  0.00     0.032 A 
HETATM   27  C   UNL     1      -1.219   7.862 -29.911  1.00  0.00     0.044 A 
HETATM   28  C   UNL     1       0.068   7.361 -30.035  1.00  0.00     0.116 A 
HETATM   29  F   UNL     1       1.016   7.746 -29.172  1.00  0.00    -0.206 F 
HETATM   30  C   UNL     1       0.388   6.466 -31.048  1.00  0.00     0.044 A 
HETATM   31  C   UNL     1      -0.600   6.073 -31.956  1.00  0.00     0.032 A 
ENDBRANCH  21  25
ENDBRANCH   3  19
TORSDOF 5
ENDMDL
MODEL 6
REMARK VINA RESULT:      -8.3      2.369      2.966
REMARK  5 active torsions:
REMARK  status: ('A' for Active; 'I' for Inactive)
REMARK    1  A    between atoms: C_8  and  N_9 
REMARK       I    between atoms: N_9  and  C_10 
REMARK    2  A    between atoms: C_10  and  C_11 
REMARK    3  A    between atoms: C_11  and  C_12 
REMARK    4  A    between atoms: C_14  and  N_15 
REMARK       I    between atoms: N_15  and  C_16 
REMARK       I    between atoms: C_16  and  N_17 
REMARK    5  A    between atoms: N_17  and  C_18 
ROOT
HETATM    1  C   UNL     1      -7.094   2.405 -33.726  1.00  0.00     0.052 A 
HETATM    2  N   UNL     1      -6.047   3.193 -34.179  1.00  0.00    -0.228 NA
HETATM    3  C   UNL     1      -5.767   4.112 -33.291  1.00  0.00     0.174 A 
HETATM    4  S   UNL     1      -6.713   4.106 -31.870  1.00  0.00    -0.062 SA
HETATM    5  C   UNL     1      -7.583   2.759 -32.481  1.00  0.00     0.081 A 
ENDROOT
BRANCH   1   6
HETATM    6  C   UNL     1      -7.592   1.314 -34.611  1.00  0.00     0.163 C 
BRANCH   6   7
HETATM    7  C   UNL     1      -7.326  -0.075 -34.050  1.00  0.00     0.227 C 
HETATM    8  N   UNL     1      -6.375  -0.791 -34.761  1.00  0.00    -0.326 N 
HETATM    9  H   UNL     1      -5.805  -0.232 -35.398  1.00  0.00     0.169 HD
HETATM   10  O   UNL     1      -7.973  -0.484 -33.087  1.00  0.00    -0.273 OA
BRANCH   8  11
HETATM   11  C   UNL     1      -6.065  -2.171 -34.651  1.00  0.00     0.042 A 
HETATM   12  C   UNL     1      -4.867  -2.569 -34.008  1.00  0.00    -0.014 A 
HETATM   13  C   UNL     1      -3.964  -1.551 -33.361  1.00  0.00     0.052 C 
HETATM   14  C   UNL     1      -4.514  -3.936 -34.019  1.00  0.00     0.042 A 
HETATM   15 CL   UNL     1      -3.032  -4.518 -33.337  1.00  0.00    -0.084 Cl
HETATM   16  C   UNL     1      -5.348  -4.891 -34.603  1.00  0.00     0.024 A 
HETATM   17  C   UNL     1      -6.540  -4.499 -35.195  1.00  0.00     0.004 A 
HETATM   18  C   UNL     1      -6.892  -3.150 -35.222  1.00  0.00     0.030 A 
ENDBRANCH   8  11
ENDBRANCH   6   7
ENDBRANCH   1   6
BRANCH   3  19
HETATM   19  N   UNL     1      -4.786   5.064 -33.305  1.00  0.00    -0.287 N 
HETATM   20  C   UNL     1      -3.651   4.955 -32.528  1.00  0.00     0.326 C 
HETATM   21  N   UNL     1      -2.953   6.155 -32.506  1.00  0.00    -0.309 N 
HETATM   22  O   UNL     1      -3.324   3.948 -31.914  1.00  0.00    -0.247 OA
HETATM   23  H   UNL     1      -3.254   6.866 -33.154  1.00  0.00     0.170 HD
HETATM   24  H   UNL     1      -4.941   5.860 -33.897  1.00  0.00     0.172 HD
BRANCH  21  25
HETATM   25  C   UNL     1      -1.880   6.507 -31.659  1.00  0.00     0.036 A 
HETATM   26  C   UNL     1      -0.534   6.454 -32.035  1.00  0.00     0.032 A 
HETATM   27  C   UNL     1       0.472   6.770 -31.116  1.00  0.00     0.044 A 
HETATM   28  C   UNL     1       0.132   7.142 -29.824  1.00  0.00     0.116 A 
HETATM   29  F   UNL     1       1.096   7.436 -28.943  1.00  0.00    -0.206 F 
HETATM   30  C   UNL     1      -1.198   7.210 -29.431  1.00  0.00     0.044 A 
HETATM   31  C   UNL     1      -2.204   6.892 -30.348  1.00  0.00     0.032 A 
ENDBRANCH  21  25
ENDBRANCH   3  19
TORSDOF 5
ENDMDL
MODEL 7
REMARK VINA RESULT:      -8.3      3.214      4.227
REMARK  5 active torsions:
REMARK  status: ('A' for Active; 'I' for Inactive)
REMARK    1  A    between atoms: C_8  and  N_9 
REMARK       I    between atoms: N_9  and  C_10 
REMARK    2  A    between atoms: C_10  and  C_11 
REMARK    3  A    between atoms: C_11  and  C_12 
REMARK    4  A    between atoms: C_14  and  N_15 
REMARK       I    between atoms: N_15  and  C_16 
REMARK       I    between atoms: C_16  and  N_17 
REMARK    5  A    between atoms: N_17  and  C_18 
ROOT
HETATM    1  C   UNL     1      -5.646   3.851 -33.494  1.00  0.00     0.052 A 
HETATM    2  N   UNL     1      -4.718   3.466 -32.538  1.00  0.00    -0.228 NA
HETATM    3  C   UNL     1      -3.597   4.116 -32.719  1.00  0.00     0.174 A 
HETATM    4  S   UNL     1      -3.564   5.218 -34.021  1.00  0.00    -0.062 SA
HETATM    5  C   UNL     1      -5.188   4.802 -34.388  1.00  0.00     0.081 A 
ENDROOT
BRANCH   1   6
HETATM    6  C   UNL     1      -6.986   3.198 -33.483  1.00  0.00     0.163 C 
BRANCH   6   7
HETATM    7  C   UNL     1      -6.925   1.720 -33.129  1.00  0.00     0.227 C 
HETATM    8  N   UNL     1      -6.025   0.998 -33.898  1.00  0.00    -0.326 N 
HETATM    9  H   UNL     1      -5.354   1.566 -34.418  1.00  0.00     0.169 HD
HETATM   10  O   UNL     1      -7.674   1.263 -32.267  1.00  0.00    -0.273 OA
BRANCH   8  11
HETATM   11  C   UNL     1      -5.892  -0.411 -33.986  1.00  0.00     0.042 A 
HETATM   12  C   UNL     1      -4.852  -1.060 -33.275  1.00  0.00    -0.014 A 
HETATM   13  C   UNL     1      -3.944  -0.283 -32.357  1.00  0.00     0.052 C 
HETATM   14  C   UNL     1      -4.657  -2.444 -33.472  1.00  0.00     0.042 A 
HETATM   15 CL   UNL     1      -3.365  -3.317 -32.719  1.00  0.00    -0.084 Cl
HETATM   16  C   UNL     1      -5.500  -3.178 -34.310  1.00  0.00     0.024 A 
HETATM   17  C   UNL     1      -6.542  -2.544 -34.971  1.00  0.00     0.004 A 
HETATM   18  C   UNL     1      -6.732  -1.171 -34.813  1.00  0.00     0.030 A 
ENDBRANCH   8  11
ENDBRANCH   6   7
ENDBRANCH   1   6
BRANCH   3  19
HETATM   19  N   UNL     1      -2.444   4.080 -31.986  1.00  0.00    -0.287 N 
HETATM   20  C   UNL     1      -2.186   4.997 -30.988  1.00  0.00     0.326 C 
HETATM   21  N   UNL     1      -0.858   4.927 -30.588  1.00  0.00    -0.309 N 
HETATM   22  O   UNL     1      -3.007   5.787 -30.540  1.00  0.00    -0.247 OA
HETATM   23  H   UNL     1      -0.319   4.151 -30.939  1.00  0.00     0.170 HD
HETATM   24  H   UNL     1      -1.782   3.364 -32.224  1.00  0.00     0.172 HD
BRANCH  21  25
HETATM   25  C   UNL     1      -0.162   5.836 -29.763  1.00  0.00     0.036 A 
HETATM   26  C   UNL     1       0.186   5.581 -28.433  1.00  0.00     0.032 A 
HETATM   27  C   UNL     1       0.829   6.559 -27.666  1.00  0.00     0.044 A 
HETATM   28  C   UNL     1       1.127   7.790 -28.232  1.00  0.00     0.116 A 
HETATM   29  F   UNL     1       1.736   8.728 -27.495  1.00  0.00    -0.206 F 
HETATM   30  C   UNL     1       0.799   8.063 -29.553  1.00  0.00     0.044 A 
HETATM   31  C   UNL     1       0.154   7.086 -30.318  1.00  0.00     0.032 A 
ENDBRANCH  21  25
ENDBRANCH   3  19
TORSDOF 5
ENDMDL
MODEL 8
REMARK VINA RESULT:      -8.1      4.634      7.496
REMARK  5 active torsions:
REMARK  status: ('A' for Active; 'I' for Inactive)
REMARK    1  A    between atoms: C_8  and  N_9 
REMARK       I    between atoms: N_9  and  C_10 
REMARK    2  A    between atoms: C_10  and  C_11 
REMARK    3  A    between atoms: C_11  and  C_12 
REMARK    4  A    between atoms: C_14  and  N_15 
REMARK       I    between atoms: N_15  and  C_16 
REMARK       I    between atoms: C_16  and  N_17 
REMARK    5  A    between atoms: N_17  and  C_18 
ROOT
HETATM    1  C   UNL     1      -4.829   1.553 -31.781  1.00  0.00     0.052 A 
HETATM    2  N   UNL     1      -5.854   1.813 -32.679  1.00  0.00    -0.228 NA
HETATM    3  C   UNL     1      -6.921   2.208 -32.032  1.00  0.00     0.174 A 
HETATM    4  S   UNL     1      -6.787   2.298 -30.333  1.00  0.00    -0.062 SA
HETATM    5  C   UNL     1      -5.160   1.764 -30.454  1.00  0.00     0.081 A 
ENDROOT
BRANCH   1   6
HETATM    6  C   UNL     1      -3.530   1.055 -32.316  1.00  0.00     0.163 C 
BRANCH   6   7
HETATM    7  C   UNL     1      -3.455  -0.462 -32.382  1.00  0.00     0.227 C 
HETATM    8  N   UNL     1      -3.977  -0.997 -33.550  1.00  0.00    -0.326 N 
HETATM    9  H   UNL     1      -4.113  -0.324 -34.306  1.00  0.00     0.169 HD
HETATM   10  O   UNL     1      -3.012  -1.098 -31.427  1.00  0.00    -0.273 OA
BRANCH   8  11
HETATM   11  C   UNL     1      -4.269  -2.357 -33.829  1.00  0.00     0.042 A 
HETATM   12  C   UNL     1      -5.451  -2.686 -34.538  1.00  0.00    -0.014 A 
HETATM   13  C   UNL     1      -6.352  -1.607 -35.078  1.00  0.00     0.052 C 
HETATM   14  C   UNL     1      -5.789  -4.048 -34.696  1.00  0.00     0.042 A 
HETATM   15 CL   UNL     1      -7.251  -4.558 -35.472  1.00  0.00    -0.084 Cl
HETATM   16  C   UNL     1      -4.955  -5.058 -34.211  1.00  0.00     0.024 A 
HETATM   17  C   UNL     1      -3.779  -4.728 -33.554  1.00  0.00     0.004 A 
HETATM   18  C   UNL     1      -3.442  -3.389 -33.360  1.00  0.00     0.030 A 
ENDBRANCH   8  11
ENDBRANCH   6   7
ENDBRANCH   1   6
BRANCH   3  19
HETATM   19  N   UNL     1      -8.133   2.609 -32.520  1.00  0.00    -0.287 N 
HETATM   20  C   UNL     1      -9.275   1.855 -32.346  1.00  0.00     0.326 C 
HETATM   21  N   UNL     1     -10.301   2.323 -33.156  1.00  0.00    -0.309 N 
HETATM   22  O   UNL     1      -9.361   0.884 -31.606  1.00  0.00    -0.247 OA
HETATM   23  H   UNL     1     -10.146   3.204 -33.620  1.00  0.00     0.170 HD
HETATM   24  H   UNL     1      -8.148   3.473 -33.029  1.00  0.00     0.172 HD
BRANCH  21  25
HETATM   25  C   UNL     1     -11.535   1.694 -33.428  1.00  0.00     0.036 A 
HETATM   26  C   UNL     1     -11.725   0.308 -33.427  1.00  0.00     0.032 A 
HETATM   27  C   UNL     1     -12.970  -0.237 -33.760  1.00  0.00     0.044 A 
HETATM   28  C   UNL     1     -14.023   0.603 -34.091  1.00  0.00     0.116 A 
HETATM   29  F   UNL     1     -15.212   0.079 -34.417  1.00  0.00    -0.206 F 
HETATM   30  C   UNL     1     -13.859   1.981 -34.090  1.00  0.00     0.044 A 
HETATM   31  C   UNL     1     -12.615   2.526 -33.759  1.00  0.00     0.032 A 
ENDBRANCH  21  25
ENDBRANCH   3  19
TORSDOF 5
ENDMDL
MODEL 9
REMARK VINA RESULT:      -8.1      4.175      8.167
REMARK  5 active torsions:
REMARK  status: ('A' for Active; 'I' for Inactive)
REMARK    1  A    between atoms: C_8  and  N_9 
REMARK       I    between atoms: N_9  and  C_10 
REMARK    2  A    between atoms: C_10  and  C_11 
REMARK    3  A    between atoms: C_11  and  C_12 
REMARK    4  A    between atoms: C_14  and  N_15 
REMARK       I    between atoms: N_15  and  C_16 
REMARK       I    between atoms: C_16  and  N_17 
REMARK    5  A    between atoms: N_17  and  C_18 
ROOT
HETATM    1  C   UNL     1      -6.497   5.300 -30.094  1.00  0.00     0.052 A 
HETATM    2  N   UNL     1      -5.676   4.185 -30.175  1.00  0.00    -0.228 NA
HETATM    3  C   UNL     1      -6.398   3.116 -30.391  1.00  0.00     0.174 A 
HETATM    4  S   UNL     1      -8.083   3.353 -30.514  1.00  0.00    -0.062 SA
HETATM    5  C   UNL     1      -7.845   5.033 -30.257  1.00  0.00     0.081 A 
ENDROOT
BRANCH   1   6
HETATM    6  C   UNL     1      -5.869   6.622 -29.816  1.00  0.00     0.163 C 
BRANCH   6   7
HETATM    7  C   UNL     1      -4.543   6.815 -30.536  1.00  0.00     0.227 C 
HETATM    8  N   UNL     1      -3.484   6.143 -29.946  1.00  0.00    -0.326 N 
HETATM    9  H   UNL     1      -3.754   5.425 -29.272  1.00  0.00     0.169 HD
HETATM   10  O   UNL     1      -4.477   7.558 -31.515  1.00  0.00    -0.273 OA
BRANCH   8  11
HETATM   11  C   UNL     1      -2.100   6.291 -30.220  1.00  0.00     0.042 A 
HETATM   12  C   UNL     1      -1.268   6.949 -29.280  1.00  0.00    -0.014 A 
HETATM   13  C   UNL     1      -1.817   7.411 -27.955  1.00  0.00     0.052 C 
HETATM   14  C   UNL     1       0.078   7.199 -29.624  1.00  0.00     0.042 A 
HETATM   15 CL   UNL     1       1.157   8.068 -28.585  1.00  0.00    -0.084 Cl
HETATM   16  C   UNL     1       0.602   6.764 -30.843  1.00  0.00     0.024 A 
HETATM   17  C   UNL     1      -0.207   6.084 -31.742  1.00  0.00     0.004 A 
HETATM   18  C   UNL     1      -1.548   5.855 -31.433  1.00  0.00     0.030 A 
ENDBRANCH   8  11
ENDBRANCH   6   7
ENDBRANCH   1   6
BRANCH   3  19
HETATM   19  N   UNL     1      -6.000   1.822 -30.582  1.00  0.00    -0.287 N 
HETATM   20  C   UNL     1      -5.825   1.292 -31.843  1.00  0.00     0.326 C 
HETATM   21  N   UNL     1      -5.694  -0.089 -31.782  1.00  0.00    -0.309 N 
HETATM   22  O   UNL     1      -5.820   1.945 -32.878  1.00  0.00    -0.247 OA
HETATM   23  H   UNL     1      -5.584  -0.494 -30.865  1.00  0.00     0.170 HD
HETATM   24  H   UNL     1      -5.860   1.269 -29.756  1.00  0.00     0.172 HD
BRANCH  21  25
HETATM   25  C   UNL     1      -5.722  -1.002 -32.858  1.00  0.00     0.036 A 
HETATM   26  C   UNL     1      -6.876  -1.335 -33.574  1.00  0.00     0.032 A 
HETATM   27  C   UNL     1      -6.827  -2.291 -34.594  1.00  0.00     0.044 A 
HETATM   28  C   UNL     1      -5.625  -2.913 -34.898  1.00  0.00     0.116 A 
HETATM   29  F   UNL     1      -5.581  -3.834 -35.869  1.00  0.00    -0.206 F 
HETATM   30  C   UNL     1      -4.465  -2.593 -34.205  1.00  0.00     0.044 A 
HETATM   31  C   UNL     1      -4.514  -1.638 -33.185  1.00  0.00     0.032 A 
ENDBRANCH  21  25
ENDBRANCH   3  19
TORSDOF 5
ENDMDL
MODEL 10
REMARK VINA RESULT:      -8.0      3.290      7.122
REMARK  5 active torsions:
REMARK  status: ('A' for Active; 'I' for Inactive)
REMARK    1  A    between atoms: C_8  and  N_9 
REMARK       I    between atoms: N_9  and  C_10 
REMARK    2  A    between atoms: C_10  and  C_11 
REMARK    3  A    between atoms: C_11  and  C_12 
REMARK    4  A    between atoms: C_14  and  N_15 
REMARK       I    between atoms: N_15  and  C_16 
REMARK       I    between atoms: C_16  and  N_17 
REMARK    5  A    between atoms: N_17  and  C_18 
ROOT
HETATM    1  C   UNL     1      -8.486   3.775 -32.322  1.00  0.00     0.052 A 
HETATM    2  N   UNL     1      -7.586   2.852 -32.834  1.00  0.00    -0.228 NA
HETATM    3  C   UNL     1      -8.158   2.150 -33.778  1.00  0.00     0.174 A 
HETATM    4  S   UNL     1      -9.785   2.532 -34.125  1.00  0.00    -0.062 SA
HETATM    5  C   UNL     1      -9.738   3.743 -32.911  1.00  0.00     0.081 A 
ENDROOT
BRANCH   1   6
HETATM    6  C   UNL     1      -8.038   4.656 -31.206  1.00  0.00     0.163 C 
BRANCH   6   7
HETATM    7  C   UNL     1      -6.529   4.657 -31.017  1.00  0.00     0.227 C 
HETATM    8  N   UNL     1      -5.835   5.236 -32.068  1.00  0.00    -0.326 N 
HETATM    9  H   UNL     1      -6.406   5.797 -32.702  1.00  0.00     0.169 HD
HETATM   10  O   UNL     1      -6.033   4.124 -30.025  1.00  0.00    -0.273 OA
BRANCH   8  11
HETATM   11  C   UNL     1      -4.438   5.193 -32.316  1.00  0.00     0.042 A 
HETATM   12  C   UNL     1      -3.650   6.343 -32.064  1.00  0.00    -0.014 A 
HETATM   13  C   UNL     1      -4.259   7.578 -31.452  1.00  0.00     0.052 C 
HETATM   14  C   UNL     1      -2.287   6.324 -32.433  1.00  0.00     0.042 A 
HETATM   15 CL   UNL     1      -1.255   7.703 -32.246  1.00  0.00    -0.084 Cl
HETATM   16  C   UNL     1      -1.707   5.182 -32.988  1.00  0.00     0.024 A 
HETATM   17  C   UNL     1      -2.476   4.046 -33.194  1.00  0.00     0.004 A 
HETATM   18  C   UNL     1      -3.831   4.055 -32.865  1.00  0.00     0.030 A 
ENDBRANCH   8  11
ENDBRANCH   6   7
ENDBRANCH   1   6
BRANCH   3  19
HETATM   19  N   UNL     1      -7.631   1.173 -34.575  1.00  0.00    -0.287 N 
HETATM   20  C   UNL     1      -7.468  -0.123 -34.130  1.00  0.00     0.326 C 
HETATM   21  N   UNL     1      -6.671  -0.847 -35.006  1.00  0.00    -0.309 N 
HETATM   22  O   UNL     1      -7.934  -0.563 -33.087  1.00  0.00    -0.247 OA
HETATM   23  H   UNL     1      -6.458  -0.412 -35.890  1.00  0.00     0.170 HD
HETATM   24  H   UNL     1      -7.347   1.449 -35.497  1.00  0.00     0.172 HD
BRANCH  21  25
HETATM   25  C   UNL     1      -6.099  -2.120 -34.792  1.00  0.00     0.036 A 
HETATM   26  C   UNL     1      -6.759  -3.328 -35.040  1.00  0.00     0.032 A 
HETATM   27  C   UNL     1      -6.138  -4.548 -34.750  1.00  0.00     0.044 A 
HETATM   28  C   UNL     1      -4.858  -4.559 -34.216  1.00  0.00     0.116 A 
HETATM   29  F   UNL     1      -4.268  -5.727 -33.931  1.00  0.00    -0.206 F 
HETATM   30  C   UNL     1      -4.181  -3.372 -33.970  1.00  0.00     0.044 A 
HETATM   31  C   UNL     1      -4.801  -2.153 -34.257  1.00  0.00     0.032 A 
ENDBRANCH  21  25
ENDBRANCH   3  19
TORSDOF 5
ENDMDL
