MODEL 1
REMARK VINA RESULT:      -9.1      0.000      0.000
REMARK  4 active torsions:
REMARK  status: ('A' for Active; 'I' for Inactive)
REMARK    1  A    between atoms: C_2  and  C_3 
REMARK    2  A    between atoms: C_4  and  C_5 
REMARK       I    between atoms: C_5  and  N_6 
REMARK    3  A    between atoms: N_6  and  C_7 
REMARK    4  A    between atoms: C_14  and  C_15 
REMARK       I    between atoms: C_15  and  N_16 
ROOT
HETATM    1  C   UNL     1      -3.293   3.881 -32.752  1.00  0.00     0.035 A 
HETATM    2  C   UNL     1      -2.303   4.063 -31.776  1.00  0.00     0.046 A 
HETATM    3  C   UNL     1      -1.457   5.194 -31.844  1.00  0.00     0.030 A 
HETATM    4  C   UNL     1      -1.633   6.101 -32.882  1.00  0.00     0.063 A 
HETATM    5  N   UNL     1      -0.683   7.064 -32.687  1.00  0.00    -0.277 N 
HETATM    6  H   UNL     1      -0.515   7.885 -33.258  1.00  0.00     0.189 HD
HETATM    7  N   UNL     1       0.096   6.868 -31.611  1.00  0.00    -0.168 NA
HETATM    8  C   UNL     1      -0.372   5.716 -31.078  1.00  0.00     0.156 A 
HETATM    9  C   UNL     1      -2.612   5.955 -33.866  1.00  0.00     0.034 A 
HETATM   10  C   UNL     1      -3.437   4.827 -33.776  1.00  0.00     0.032 A 
ENDROOT
BRANCH   1  11
HETATM   11  N   UNL     1      -4.174   2.779 -32.784  1.00  0.00    -0.327 N 
HETATM   12  C   UNL     1      -5.516   2.761 -32.468  1.00  0.00     0.227 C 
HETATM   13  O   UNL     1      -6.199   3.709 -32.113  1.00  0.00    -0.273 OA
HETATM   14  H   UNL     1      -3.756   1.895 -33.029  1.00  0.00     0.169 HD
BRANCH  12  15
HETATM   15  C   UNL     1      -6.187   1.426 -32.545  1.00  0.00     0.087 A 
HETATM   16  C   UNL     1      -6.343   0.763 -33.906  1.00  0.00     0.032 A 
HETATM   17  C   UNL     1      -7.560   1.147 -33.095  1.00  0.00     0.025 A 
BRANCH  16  18
HETATM   18  C   UNL     1      -5.973  -0.689 -34.083  1.00  0.00    -0.053 A 
HETATM   19  C   UNL     1      -4.694  -1.160 -33.739  1.00  0.00     0.009 A 
HETATM   20  C   UNL     1      -4.355  -2.510 -33.873  1.00  0.00     0.024 A 
HETATM   21  C   UNL     1      -5.299  -3.415 -34.350  1.00  0.00     0.034 A 
HETATM   22  C   UNL     1      -6.574  -2.980 -34.691  1.00  0.00     0.024 A 
HETATM   23 CL   UNL     1      -4.886  -5.077 -34.510  1.00  0.00    -0.084 Cl
HETATM   24  C   UNL     1      -6.907  -1.629 -34.553  1.00  0.00     0.009 A 
ENDBRANCH  16  18
ENDBRANCH  12  15
ENDBRANCH   1  11
BRANCH   8  25
HETATM   25  C   UNL     1       0.223   5.147 -29.861  1.00  0.00     0.270 C 
HETATM   26  N   UNL     1      -0.273   5.673 -28.698  1.00  0.00    -0.365 N 
HETATM   27  H   UNL     1      -0.988   6.390 -28.757  1.00  0.00     0.159 HD
HETATM   28  H   UNL     1       0.074   5.343 -27.813  1.00  0.00     0.159 HD
HETATM   29  O   UNL     1       1.086   4.277 -29.844  1.00  0.00    -0.266 OA
ENDBRANCH   8  25
TORSDOF 4
ENDMDL
MODEL 2
REMARK VINA RESULT:      -9.1      1.442      1.733
REMARK  4 active torsions:
REMARK  status: ('A' for Active; 'I' for Inactive)
REMARK    1  A    between atoms: C_2  and  C_3 
REMARK    2  A    between atoms: C_4  and  C_5 
REMARK       I    between atoms: C_5  and  N_6 
REMARK    3  A    between atoms: N_6  and  C_7 
REMARK    4  A    between atoms: C_14  and  C_15 
REMARK       I    between atoms: C_15  and  N_16 
ROOT
HETATM    1  C   UNL     1      -2.834   3.934 -32.269  1.00  0.00     0.035 A 
HETATM    2  C   UNL     1      -1.936   4.201 -31.227  1.00  0.00     0.046 A 
HETATM    3  C   UNL     1      -1.036   5.286 -31.343  1.00  0.00     0.030 A 
HETATM    4  C   UNL     1      -1.069   6.063 -32.494  1.00  0.00     0.063 A 
HETATM    5  N   UNL     1      -0.099   7.010 -32.319  1.00  0.00    -0.277 N 
HETATM    6  H   UNL     1       0.161   7.749 -32.964  1.00  0.00     0.189 HD
HETATM    7  N   UNL     1       0.563   6.922 -31.155  1.00  0.00    -0.168 NA
HETATM    8  C   UNL     1      -0.007   5.861 -30.538  1.00  0.00     0.156 A 
HETATM    9  C   UNL     1      -1.954   5.831 -33.547  1.00  0.00     0.034 A 
HETATM   10  C   UNL     1      -2.835   4.751 -33.408  1.00  0.00     0.032 A 
ENDROOT
BRANCH   1  11
HETATM   11  N   UNL     1      -3.758   2.866 -32.258  1.00  0.00    -0.327 N 
HETATM   12  C   UNL     1      -3.619   1.635 -31.652  1.00  0.00     0.227 C 
HETATM   13  O   UNL     1      -2.667   1.244 -30.995  1.00  0.00    -0.273 OA
HETATM   14  H   UNL     1      -4.599   3.015 -32.792  1.00  0.00     0.169 HD
BRANCH  12  15
HETATM   15  C   UNL     1      -4.750   0.678 -31.854  1.00  0.00     0.087 A 
HETATM   16  C   UNL     1      -5.296   0.477 -33.261  1.00  0.00     0.032 A 
HETATM   17  C   UNL     1      -6.178   1.037 -32.168  1.00  0.00     0.025 A 
BRANCH  16  18
HETATM   18  C   UNL     1      -5.527  -0.919 -33.785  1.00  0.00    -0.053 A 
HETATM   19  C   UNL     1      -6.824  -1.391 -34.051  1.00  0.00     0.009 A 
HETATM   20  C   UNL     1      -7.042  -2.673 -34.565  1.00  0.00     0.024 A 
HETATM   21  C   UNL     1      -5.957  -3.505 -34.827  1.00  0.00     0.034 A 
HETATM   22  C   UNL     1      -4.661  -3.064 -34.581  1.00  0.00     0.024 A 
HETATM   23 CL   UNL     1      -6.221  -5.081 -35.464  1.00  0.00    -0.084 Cl
HETATM   24  C   UNL     1      -4.452  -1.780 -34.069  1.00  0.00     0.009 A 
ENDBRANCH  16  18
ENDBRANCH  12  15
ENDBRANCH   1  11
BRANCH   8  25
HETATM   25  C   UNL     1       0.442   5.426 -29.208  1.00  0.00     0.270 C 
HETATM   26  N   UNL     1       1.168   4.266 -29.217  1.00  0.00    -0.365 N 
HETATM   27  H   UNL     1       1.340   3.808 -30.105  1.00  0.00     0.159 HD
HETATM   28  H   UNL     1       1.520   3.890 -28.352  1.00  0.00     0.159 HD
HETATM   29  O   UNL     1       0.209   6.019 -28.161  1.00  0.00    -0.266 OA
ENDBRANCH   8  25
TORSDOF 4
ENDMDL
MODEL 3
REMARK VINA RESULT:      -8.4      6.367      9.029
REMARK  4 active torsions:
REMARK  status: ('A' for Active; 'I' for Inactive)
REMARK    1  A    between atoms: C_2  and  C_3 
REMARK    2  A    between atoms: C_4  and  C_5 
REMARK       I    between atoms: C_5  and  N_6 
REMARK    3  A    between atoms: N_6  and  C_7 
REMARK    4  A    between atoms: C_14  and  C_15 
REMARK       I    between atoms: C_15  and  N_16 
ROOT
HETATM    1  C   UNL     1     -10.668   2.555 -33.811  1.00  0.00     0.035 A 
HETATM    2  C   UNL     1     -11.997   2.223 -33.514  1.00  0.00     0.046 A 
HETATM    3  C   UNL     1     -12.852   3.202 -32.957  1.00  0.00     0.030 A 
HETATM    4  C   UNL     1     -12.349   4.475 -32.721  1.00  0.00     0.063 A 
HETATM    5  N   UNL     1     -13.388   5.181 -32.184  1.00  0.00    -0.277 N 
HETATM    6  H   UNL     1     -13.382   6.151 -31.886  1.00  0.00     0.189 HD
HETATM    7  N   UNL     1     -14.527   4.484 -32.052  1.00  0.00    -0.168 NA
HETATM    8  C   UNL     1     -14.213   3.257 -32.528  1.00  0.00     0.156 A 
HETATM    9  C   UNL     1     -11.034   4.842 -33.011  1.00  0.00     0.034 A 
HETATM   10  C   UNL     1     -10.208   3.855 -33.562  1.00  0.00     0.032 A 
ENDROOT
BRANCH   1  11
HETATM   11  N   UNL     1      -9.732   1.647 -34.351  1.00  0.00    -0.327 N 
HETATM   12  C   UNL     1      -9.093   0.608 -33.707  1.00  0.00     0.227 C 
HETATM   13  O   UNL     1      -9.234   0.271 -32.541  1.00  0.00    -0.273 OA
HETATM   14  H   UNL     1      -9.475   1.808 -35.313  1.00  0.00     0.169 HD
BRANCH  12  15
HETATM   15  C   UNL     1      -8.106  -0.160 -34.527  1.00  0.00     0.087 A 
HETATM   16  C   UNL     1      -6.623  -0.011 -34.216  1.00  0.00     0.032 A 
HETATM   17  C   UNL     1      -7.171   0.408 -35.561  1.00  0.00     0.025 A 
BRANCH  16  18
HETATM   18  C   UNL     1      -5.754  -1.238 -34.096  1.00  0.00    -0.053 A 
HETATM   19  C   UNL     1      -4.675  -1.280 -33.196  1.00  0.00     0.009 A 
HETATM   20  C   UNL     1      -3.883  -2.425 -33.060  1.00  0.00     0.024 A 
HETATM   21  C   UNL     1      -4.165  -3.554 -33.823  1.00  0.00     0.034 A 
HETATM   22  C   UNL     1      -5.230  -3.545 -34.717  1.00  0.00     0.024 A 
HETATM   23 CL   UNL     1      -3.197  -4.965 -33.655  1.00  0.00    -0.084 Cl
HETATM   24  C   UNL     1      -6.018  -2.397 -34.846  1.00  0.00     0.009 A 
ENDBRANCH  16  18
ENDBRANCH  12  15
ENDBRANCH   1  11
BRANCH   8  25
HETATM   25  C   UNL     1     -15.209   2.177 -32.560  1.00  0.00     0.270 C 
HETATM   26  N   UNL     1     -15.239   1.482 -33.739  1.00  0.00    -0.365 N 
HETATM   27  H   UNL     1     -14.598   1.750 -34.477  1.00  0.00     0.159 HD
HETATM   28  H   UNL     1     -15.889   0.722 -33.854  1.00  0.00     0.159 HD
HETATM   29  O   UNL     1     -15.962   1.891 -31.637  1.00  0.00    -0.266 OA
ENDBRANCH   8  25
TORSDOF 4
ENDMDL
MODEL 4
REMARK VINA RESULT:      -8.4      4.511      8.690
REMARK  4 active torsions:
REMARK  status: ('A' for Active; 'I' for Inactive)
REMARK    1  A    between atoms: C_2  and  C_3 
REMARK    2  A    between atoms: C_4  and  C_5 
REMARK       I    between atoms: C_5  and  N_6 
REMARK    3  A    between atoms: N_6  and  C_7 
REMARK    4  A    between atoms: C_14  and  C_15 
REMARK       I    between atoms: C_15  and  N_16 
ROOT
HETATM    1  C   UNL     1      -5.930  -0.365 -33.609  1.00  0.00     0.035 A 
HETATM    2  C   UNL     1      -5.077  -1.467 -33.455  1.00  0.00     0.046 A 
HETATM    3  C   UNL     1      -5.422  -2.704 -34.047  1.00  0.00     0.030 A 
HETATM    4  C   UNL     1      -6.603  -2.793 -34.772  1.00  0.00     0.063 A 
HETATM    5  N   UNL     1      -6.665  -4.088 -35.206  1.00  0.00    -0.277 N 
HETATM    6  H   UNL     1      -7.396  -4.513 -35.766  1.00  0.00     0.189 HD
HETATM    7  N   UNL     1      -5.626  -4.851 -34.833  1.00  0.00    -0.168 NA
HETATM    8  C   UNL     1      -4.847  -4.009 -34.116  1.00  0.00     0.156 A 
HETATM    9  C   UNL     1      -7.472  -1.716 -34.951  1.00  0.00     0.034 A 
HETATM   10  C   UNL     1      -7.108  -0.502 -34.356  1.00  0.00     0.032 A 
ENDROOT
BRANCH   1  11
HETATM   11  N   UNL     1      -5.685   0.905 -33.044  1.00  0.00    -0.327 N 
HETATM   12  C   UNL     1      -6.185   1.416 -31.865  1.00  0.00     0.227 C 
HETATM   13  O   UNL     1      -6.929   0.850 -31.077  1.00  0.00    -0.273 OA
HETATM   14  H   UNL     1      -5.107   1.521 -33.594  1.00  0.00     0.169 HD
BRANCH  12  15
HETATM   15  C   UNL     1      -5.790   2.822 -31.543  1.00  0.00     0.087 A 
HETATM   16  C   UNL     1      -4.409   3.078 -30.957  1.00  0.00     0.032 A 
HETATM   17  C   UNL     1      -5.653   3.418 -30.168  1.00  0.00     0.025 A 
BRANCH  16  18
HETATM   18  C   UNL     1      -3.543   4.176 -31.524  1.00  0.00    -0.053 A 
HETATM   19  C   UNL     1      -3.629   5.493 -31.040  1.00  0.00     0.009 A 
HETATM   20  C   UNL     1      -2.808   6.508 -31.542  1.00  0.00     0.024 A 
HETATM   21  C   UNL     1      -1.879   6.216 -32.537  1.00  0.00     0.034 A 
HETATM   22  C   UNL     1      -1.767   4.921 -33.031  1.00  0.00     0.024 A 
HETATM   23 CL   UNL     1      -0.865   7.461 -33.152  1.00  0.00    -0.084 Cl
HETATM   24  C   UNL     1      -2.590   3.911 -32.523  1.00  0.00     0.009 A 
ENDBRANCH  16  18
ENDBRANCH  12  15
ENDBRANCH   1  11
BRANCH   8  25
HETATM   25  C   UNL     1      -3.584  -4.466 -33.519  1.00  0.00     0.270 C 
HETATM   26  N   UNL     1      -2.872  -5.326 -34.311  1.00  0.00    -0.365 N 
HETATM   27  H   UNL     1      -3.250  -5.576 -35.218  1.00  0.00     0.159 HD
HETATM   28  H   UNL     1      -1.992  -5.691 -33.987  1.00  0.00     0.159 HD
HETATM   29  O   UNL     1      -3.168  -4.130 -32.416  1.00  0.00    -0.266 OA
ENDBRANCH   8  25
TORSDOF 4
ENDMDL
MODEL 5
REMARK VINA RESULT:      -8.3      2.248      2.891
REMARK  4 active torsions:
REMARK  status: ('A' for Active; 'I' for Inactive)
REMARK    1  A    between atoms: C_2  and  C_3 
REMARK    2  A    between atoms: C_4  and  C_5 
REMARK       I    between atoms: C_5  and  N_6 
REMARK    3  A    between atoms: N_6  and  C_7 
REMARK    4  A    between atoms: C_14  and  C_15 
REMARK       I    between atoms: C_15  and  N_16 
ROOT
HETATM    1  C   UNL     1      -5.207   3.617 -31.957  1.00  0.00     0.035 A 
HETATM    2  C   UNL     1      -4.281   4.386 -32.676  1.00  0.00     0.046 A 
HETATM    3  C   UNL     1      -3.789   5.588 -32.116  1.00  0.00     0.030 A 
HETATM    4  C   UNL     1      -4.238   5.975 -30.860  1.00  0.00     0.063 A 
HETATM    5  N   UNL     1      -3.603   7.155 -30.595  1.00  0.00    -0.277 N 
HETATM    6  H   UNL     1      -3.694   7.728 -29.763  1.00  0.00     0.189 HD
HETATM    7  N   UNL     1      -2.775   7.572 -31.565  1.00  0.00    -0.168 NA
HETATM    8  C   UNL     1      -2.877   6.612 -32.513  1.00  0.00     0.156 A 
HETATM    9  C   UNL     1      -5.154   5.230 -30.114  1.00  0.00     0.034 A 
HETATM   10  C   UNL     1      -5.625   4.045 -30.690  1.00  0.00     0.032 A 
ENDROOT
BRANCH   1  11
HETATM   11  N   UNL     1      -5.770   2.414 -32.435  1.00  0.00    -0.327 N 
HETATM   12  C   UNL     1      -6.952   2.250 -33.125  1.00  0.00     0.227 C 
HETATM   13  O   UNL     1      -7.731   3.128 -33.465  1.00  0.00    -0.273 OA
HETATM   14  H   UNL     1      -5.260   1.575 -32.206  1.00  0.00     0.169 HD
BRANCH  12  15
HETATM   15  C   UNL     1      -7.322   0.840 -33.460  1.00  0.00     0.087 A 
HETATM   16  C   UNL     1      -6.682   0.185 -34.675  1.00  0.00     0.032 A 
HETATM   17  C   UNL     1      -8.178   0.392 -34.613  1.00  0.00     0.025 A 
BRANCH  16  18
HETATM   18  C   UNL     1      -6.100  -1.203 -34.563  1.00  0.00    -0.053 A 
HETATM   19  C   UNL     1      -4.826  -1.414 -34.009  1.00  0.00     0.009 A 
HETATM   20  C   UNL     1      -4.294  -2.700 -33.875  1.00  0.00     0.024 A 
HETATM   21  C   UNL     1      -5.037  -3.801 -34.291  1.00  0.00     0.034 A 
HETATM   22  C   UNL     1      -6.304  -3.625 -34.837  1.00  0.00     0.024 A 
HETATM   23 CL   UNL     1      -4.388  -5.385 -34.123  1.00  0.00    -0.084 Cl
HETATM   24  C   UNL     1      -6.829  -2.336 -34.966  1.00  0.00     0.009 A 
ENDBRANCH  16  18
ENDBRANCH  12  15
ENDBRANCH   1  11
BRANCH   8  25
HETATM   25  C   UNL     1      -2.110   6.695 -33.764  1.00  0.00     0.270 C 
HETATM   26  N   UNL     1      -1.983   5.500 -34.420  1.00  0.00    -0.365 N 
HETATM   27  H   UNL     1      -2.411   4.676 -34.014  1.00  0.00     0.159 HD
HETATM   28  H   UNL     1      -1.475   5.459 -35.288  1.00  0.00     0.159 HD
HETATM   29  O   UNL     1      -1.614   7.721 -34.215  1.00  0.00    -0.266 OA
ENDBRANCH   8  25
TORSDOF 4
ENDMDL
MODEL 6
REMARK VINA RESULT:      -8.1      6.332      9.232
REMARK  4 active torsions:
REMARK  status: ('A' for Active; 'I' for Inactive)
REMARK    1  A    between atoms: C_2  and  C_3 
REMARK    2  A    between atoms: C_4  and  C_5 
REMARK       I    between atoms: C_5  and  N_6 
REMARK    3  A    between atoms: N_6  and  C_7 
REMARK    4  A    between atoms: C_14  and  C_15 
REMARK       I    between atoms: C_15  and  N_16 
ROOT
HETATM    1  C   UNL     1      -7.446   0.210 -33.982  1.00  0.00     0.035 A 
HETATM    2  C   UNL     1      -7.323  -1.146 -34.315  1.00  0.00     0.046 A 
HETATM    3  C   UNL     1      -6.073  -1.790 -34.166  1.00  0.00     0.030 A 
HETATM    4  C   UNL     1      -4.995  -1.057 -33.689  1.00  0.00     0.063 A 
HETATM    5  N   UNL     1      -3.945  -1.932 -33.662  1.00  0.00    -0.277 N 
HETATM    6  H   UNL     1      -2.994  -1.740 -33.368  1.00  0.00     0.189 HD
HETATM    7  N   UNL     1      -4.243  -3.173 -34.076  1.00  0.00    -0.168 NA
HETATM    8  C   UNL     1      -5.557  -3.102 -34.390  1.00  0.00     0.156 A 
HETATM    9  C   UNL     1      -5.083   0.292 -33.341  1.00  0.00     0.034 A 
HETATM   10  C   UNL     1      -6.331   0.906 -33.496  1.00  0.00     0.032 A 
ENDROOT
BRANCH   1  11
HETATM   11  N   UNL     1      -8.643   0.947 -34.111  1.00  0.00    -0.327 N 
HETATM   12  C   UNL     1      -9.556   1.256 -33.125  1.00  0.00     0.227 C 
HETATM   13  O   UNL     1      -9.487   0.957 -31.942  1.00  0.00    -0.273 OA
HETATM   14  H   UNL     1      -8.870   1.245 -35.046  1.00  0.00     0.169 HD
BRANCH  12  15
HETATM   15  C   UNL     1     -10.767   2.013 -33.570  1.00  0.00     0.087 A 
HETATM   16  C   UNL     1     -11.999   1.231 -34.005  1.00  0.00     0.032 A 
HETATM   17  C   UNL     1     -11.276   2.131 -34.981  1.00  0.00     0.025 A 
BRANCH  16  18
HETATM   18  C   UNL     1     -13.359   1.617 -33.477  1.00  0.00    -0.053 A 
HETATM   19  C   UNL     1     -14.532   1.062 -34.016  1.00  0.00     0.009 A 
HETATM   20  C   UNL     1     -15.793   1.393 -33.511  1.00  0.00     0.024 A 
HETATM   21  C   UNL     1     -15.899   2.286 -32.449  1.00  0.00     0.034 A 
HETATM   22  C   UNL     1     -14.756   2.846 -31.890  1.00  0.00     0.024 A 
HETATM   23 CL   UNL     1     -17.448   2.691 -31.823  1.00  0.00    -0.084 Cl
HETATM   24  C   UNL     1     -13.498   2.509 -32.399  1.00  0.00     0.009 A 
ENDBRANCH  16  18
ENDBRANCH  12  15
ENDBRANCH   1  11
BRANCH   8  25
HETATM   25  C   UNL     1      -6.282  -4.278 -34.892  1.00  0.00     0.270 C 
HETATM   26  N   UNL     1      -7.495  -4.484 -34.292  1.00  0.00    -0.365 N 
HETATM   27  H   UNL     1      -7.797  -3.836 -33.573  1.00  0.00     0.159 HD
HETATM   28  H   UNL     1      -8.065  -5.265 -34.572  1.00  0.00     0.159 HD
HETATM   29  O   UNL     1      -5.873  -5.032 -35.768  1.00  0.00    -0.266 OA
ENDBRANCH   8  25
TORSDOF 4
ENDMDL
MODEL 7
REMARK VINA RESULT:      -8.1      6.547      9.109
REMARK  4 active torsions:
REMARK  status: ('A' for Active; 'I' for Inactive)
REMARK    1  A    between atoms: C_2  and  C_3 
REMARK    2  A    between atoms: C_4  and  C_5 
REMARK       I    between atoms: C_5  and  N_6 
REMARK    3  A    between atoms: N_6  and  C_7 
REMARK    4  A    between atoms: C_14  and  C_15 
REMARK       I    between atoms: C_15  and  N_16 
ROOT
HETATM    1  C   UNL     1     -11.815   1.503 -33.971  1.00  0.00     0.035 A 
HETATM    2  C   UNL     1     -11.967   2.626 -33.146  1.00  0.00     0.046 A 
HETATM    3  C   UNL     1     -13.265   3.041 -32.767  1.00  0.00     0.030 A 
HETATM    4  C   UNL     1     -14.360   2.319 -33.224  1.00  0.00     0.063 A 
HETATM    5  N   UNL     1     -15.454   2.954 -32.707  1.00  0.00    -0.277 N 
HETATM    6  H   UNL     1     -16.428   2.702 -32.836  1.00  0.00     0.189 HD
HETATM    7  N   UNL     1     -15.171   4.025 -31.949  1.00  0.00    -0.168 NA
HETATM    8  C   UNL     1     -13.819   4.092 -31.975  1.00  0.00     0.156 A 
HETATM    9  C   UNL     1     -14.245   1.193 -34.040  1.00  0.00     0.034 A 
HETATM   10  C   UNL     1     -12.950   0.802 -34.401  1.00  0.00     0.032 A 
ENDROOT
BRANCH   1  11
HETATM   11  N   UNL     1     -10.567   1.018 -34.420  1.00  0.00    -0.327 N 
HETATM   12  C   UNL     1      -9.541   0.497 -33.660  1.00  0.00     0.227 C 
HETATM   13  O   UNL     1      -9.530   0.344 -32.448  1.00  0.00    -0.273 OA
HETATM   14  H   UNL     1     -10.398   1.104 -35.410  1.00  0.00     0.169 HD
BRANCH  12  15
HETATM   15  C   UNL     1      -8.306   0.109 -34.410  1.00  0.00     0.087 A 
HETATM   16  C   UNL     1      -6.976   0.092 -33.670  1.00  0.00     0.032 A 
HETATM   17  C   UNL     1      -7.195   1.030 -34.836  1.00  0.00     0.025 A 
BRANCH  16  18
HETATM   18  C   UNL     1      -6.053  -1.093 -33.810  1.00  0.00    -0.053 A 
HETATM   19  C   UNL     1      -4.834  -1.151 -33.113  1.00  0.00     0.009 A 
HETATM   20  C   UNL     1      -3.989  -2.261 -33.215  1.00  0.00     0.024 A 
HETATM   21  C   UNL     1      -4.357  -3.337 -34.017  1.00  0.00     0.034 A 
HETATM   22  C   UNL     1      -5.560  -3.312 -34.713  1.00  0.00     0.024 A 
HETATM   23 CL   UNL     1      -3.322  -4.705 -34.141  1.00  0.00    -0.084 Cl
HETATM   24  C   UNL     1      -6.401  -2.200 -34.604  1.00  0.00     0.009 A 
ENDBRANCH  16  18
ENDBRANCH  12  15
ENDBRANCH   1  11
BRANCH   8  25
HETATM   25  C   UNL     1     -13.097   5.147 -31.250  1.00  0.00     0.270 C 
HETATM   26  N   UNL     1     -12.486   4.717 -30.103  1.00  0.00    -0.365 N 
HETATM   27  H   UNL     1     -12.570   3.740 -29.846  1.00  0.00     0.159 HD
HETATM   28  H   UNL     1     -11.965   5.370 -29.541  1.00  0.00     0.159 HD
HETATM   29  O   UNL     1     -13.023   6.317 -31.607  1.00  0.00    -0.266 OA
ENDBRANCH   8  25
TORSDOF 4
ENDMDL
MODEL 8
REMARK VINA RESULT:      -8.1      5.948      8.318
REMARK  4 active torsions:
REMARK  status: ('A' for Active; 'I' for Inactive)
REMARK    1  A    between atoms: C_2  and  C_3 
REMARK    2  A    between atoms: C_4  and  C_5 
REMARK       I    between atoms: C_5  and  N_6 
REMARK    3  A    between atoms: N_6  and  C_7 
REMARK    4  A    between atoms: C_14  and  C_15 
REMARK       I    between atoms: C_15  and  N_16 
ROOT
HETATM    1  C   UNL     1     -10.859   2.489 -34.662  1.00  0.00     0.035 A 
HETATM    2  C   UNL     1     -10.659   3.847 -34.943  1.00  0.00     0.046 A 
HETATM    3  C   UNL     1     -11.736   4.753 -34.807  1.00  0.00     0.030 A 
HETATM    4  C   UNL     1     -12.971   4.269 -34.395  1.00  0.00     0.063 A 
HETATM    5  N   UNL     1     -13.796   5.358 -34.365  1.00  0.00    -0.277 N 
HETATM    6  H   UNL     1     -14.777   5.378 -34.110  1.00  0.00     0.189 HD
HETATM    7  N   UNL     1     -13.209   6.512 -34.718  1.00  0.00    -0.168 NA
HETATM    8  C   UNL     1     -11.933   6.155 -34.993  1.00  0.00     0.156 A 
HETATM    9  C   UNL     1     -13.204   2.925 -34.100  1.00  0.00     0.034 A 
HETATM   10  C   UNL     1     -12.121   2.049 -34.241  1.00  0.00     0.032 A 
ENDROOT
BRANCH   1  11
HETATM   11  N   UNL     1      -9.855   1.503 -34.783  1.00  0.00    -0.327 N 
HETATM   12  C   UNL     1      -9.050   0.991 -33.788  1.00  0.00     0.227 C 
HETATM   13  O   UNL     1      -9.067   1.290 -32.603  1.00  0.00    -0.273 OA
HETATM   14  H   UNL     1      -9.687   1.168 -35.718  1.00  0.00     0.169 HD
BRANCH  12  15
HETATM   15  C   UNL     1      -8.032  -0.014 -34.225  1.00  0.00     0.087 A 
HETATM   16  C   UNL     1      -6.560   0.370 -34.183  1.00  0.00     0.032 A 
HETATM   17  C   UNL     1      -7.226   0.027 -35.496  1.00  0.00     0.025 A 
BRANCH  16  18
HETATM   18  C   UNL     1      -5.554  -0.573 -33.570  1.00  0.00    -0.053 A 
HETATM   19  C   UNL     1      -5.005  -0.326 -32.300  1.00  0.00     0.009 A 
HETATM   20  C   UNL     1      -4.095  -1.212 -31.715  1.00  0.00     0.024 A 
HETATM   21  C   UNL     1      -3.723  -2.368 -32.394  1.00  0.00     0.034 A 
HETATM   22  C   UNL     1      -4.254  -2.644 -33.649  1.00  0.00     0.024 A 
HETATM   23 CL   UNL     1      -2.608  -3.462 -31.675  1.00  0.00    -0.084 Cl
HETATM   24  C   UNL     1      -5.165  -1.754 -34.227  1.00  0.00     0.009 A 
ENDBRANCH  16  18
ENDBRANCH  12  15
ENDBRANCH   1  11
BRANCH   8  25
HETATM   25  C   UNL     1     -10.942   7.151 -35.423  1.00  0.00     0.270 C 
HETATM   26  N   UNL     1      -9.905   7.321 -34.546  1.00  0.00    -0.365 N 
HETATM   27  H   UNL     1      -9.894   6.770 -33.696  1.00  0.00     0.159 HD
HETATM   28  H   UNL     1      -9.175   7.983 -34.757  1.00  0.00     0.159 HD
HETATM   29  O   UNL     1     -11.000   7.793 -36.467  1.00  0.00    -0.266 OA
ENDBRANCH   8  25
TORSDOF 4
ENDMDL
MODEL 9
REMARK VINA RESULT:      -8.0      6.466      9.177
REMARK  4 active torsions:
REMARK  status: ('A' for Active; 'I' for Inactive)
REMARK    1  A    between atoms: C_2  and  C_3 
REMARK    2  A    between atoms: C_4  and  C_5 
REMARK       I    between atoms: C_5  and  N_6 
REMARK    3  A    between atoms: N_6  and  C_7 
REMARK    4  A    between atoms: C_14  and  C_15 
REMARK       I    between atoms: C_15  and  N_16 
ROOT
HETATM    1  C   UNL     1      -7.287  -0.101 -34.139  1.00  0.00     0.035 A 
HETATM    2  C   UNL     1      -7.068  -1.451 -34.444  1.00  0.00     0.046 A 
HETATM    3  C   UNL     1      -5.826  -2.045 -34.125  1.00  0.00     0.030 A 
HETATM    4  C   UNL     1      -4.850  -1.270 -33.512  1.00  0.00     0.063 A 
HETATM    5  N   UNL     1      -3.780  -2.103 -33.339  1.00  0.00    -0.277 N 
HETATM    6  H   UNL     1      -2.885  -1.873 -32.922  1.00  0.00     0.189 HD
HETATM    7  N   UNL     1      -3.972  -3.355 -33.781  1.00  0.00    -0.168 NA
HETATM    8  C   UNL     1      -5.234  -3.337 -34.268  1.00  0.00     0.156 A 
HETATM    9  C   UNL     1      -5.036   0.075 -33.188  1.00  0.00     0.034 A 
HETATM   10  C   UNL     1      -6.275   0.639 -33.514  1.00  0.00     0.032 A 
ENDROOT
BRANCH   1  11
HETATM   11  N   UNL     1      -8.484   0.589 -34.432  1.00  0.00    -0.327 N 
HETATM   12  C   UNL     1      -9.657   0.590 -33.709  1.00  0.00     0.227 C 
HETATM   13  O   UNL     1      -9.874  -0.002 -32.662  1.00  0.00    -0.273 OA
HETATM   14  H   UNL     1      -8.485   1.108 -35.296  1.00  0.00     0.169 HD
BRANCH  12  15
HETATM   15  C   UNL     1     -10.785   1.379 -34.295  1.00  0.00     0.087 A 
HETATM   16  C   UNL     1     -11.288   2.604 -33.544  1.00  0.00     0.032 A 
HETATM   17  C   UNL     1     -12.201   1.424 -33.787  1.00  0.00     0.025 A 
BRANCH  16  18
HETATM   18  C   UNL     1     -11.506   3.901 -34.283  1.00  0.00    -0.053 A 
HETATM   19  C   UNL     1     -12.800   4.339 -34.615  1.00  0.00     0.009 A 
HETATM   20  C   UNL     1     -13.010   5.555 -35.274  1.00  0.00     0.024 A 
HETATM   21  C   UNL     1     -11.923   6.357 -35.606  1.00  0.00     0.034 A 
HETATM   22  C   UNL     1     -10.632   5.954 -35.285  1.00  0.00     0.024 A 
HETATM   23 CL   UNL     1     -12.179   7.855 -36.412  1.00  0.00    -0.084 Cl
HETATM   24  C   UNL     1     -10.429   4.738 -34.624  1.00  0.00     0.009 A 
ENDBRANCH  16  18
ENDBRANCH  12  15
ENDBRANCH   1  11
BRANCH   8  25
HETATM   25  C   UNL     1      -5.839  -4.541 -34.855  1.00  0.00     0.270 C 
HETATM   26  N   UNL     1      -7.166  -4.405 -35.164  1.00  0.00    -0.365 N 
HETATM   27  H   UNL     1      -7.619  -3.518 -34.975  1.00  0.00     0.159 HD
HETATM   28  H   UNL     1      -7.665  -5.178 -35.572  1.00  0.00     0.159 HD
HETATM   29  O   UNL     1      -5.245  -5.592 -35.066  1.00  0.00    -0.266 OA
ENDBRANCH   8  25
TORSDOF 4
ENDMDL
MODEL 10
REMARK VINA RESULT:      -8.0      2.746      3.427
REMARK  4 active torsions:
REMARK  status: ('A' for Active; 'I' for Inactive)
REMARK    1  A    between atoms: C_2  and  C_3 
REMARK    2  A    between atoms: C_4  and  C_5 
REMARK       I    between atoms: C_5  and  N_6 
REMARK    3  A    between atoms: N_6  and  C_7 
REMARK    4  A    between atoms: C_14  and  C_15 
REMARK       I    between atoms: C_15  and  N_16 
ROOT
HETATM    1  C   UNL     1      -3.370   4.162 -32.712  1.00  0.00     0.035 A 
HETATM    2  C   UNL     1      -2.369   4.264 -31.736  1.00  0.00     0.046 A 
HETATM    3  C   UNL     1      -1.435   5.324 -31.804  1.00  0.00     0.030 A 
HETATM    4  C   UNL     1      -1.538   6.242 -32.841  1.00  0.00     0.063 A 
HETATM    5  N   UNL     1      -0.513   7.125 -32.645  1.00  0.00    -0.277 N 
HETATM    6  H   UNL     1      -0.280   7.930 -33.216  1.00  0.00     0.189 HD
HETATM    7  N   UNL     1       0.247   6.868 -31.570  1.00  0.00    -0.168 NA
HETATM    8  C   UNL     1      -0.312   5.757 -31.037  1.00  0.00     0.156 A 
HETATM    9  C   UNL     1      -2.525   6.174 -33.825  1.00  0.00     0.034 A 
HETATM   10  C   UNL     1      -3.437   5.117 -33.735  1.00  0.00     0.032 A 
ENDROOT
BRANCH   1  11
HETATM   11  N   UNL     1      -4.337   3.133 -32.743  1.00  0.00    -0.327 N 
HETATM   12  C   UNL     1      -4.182   1.816 -32.366  1.00  0.00     0.227 C 
HETATM   13  O   UNL     1      -3.172   1.296 -31.916  1.00  0.00    -0.273 OA
HETATM   14  H   UNL     1      -5.233   3.392 -33.126  1.00  0.00     0.169 HD
BRANCH  12  15
HETATM   15  C   UNL     1      -5.376   0.937 -32.560  1.00  0.00     0.087 A 
HETATM   16  C   UNL     1      -6.648   1.249 -31.784  1.00  0.00     0.032 A 
HETATM   17  C   UNL     1      -5.921  -0.059 -31.571  1.00  0.00     0.025 A 
BRANCH  16  18
HETATM   18  C   UNL     1      -7.977   1.274 -32.497  1.00  0.00    -0.053 A 
HETATM   19  C   UNL     1      -8.302   2.308 -33.392  1.00  0.00     0.009 A 
HETATM   20  C   UNL     1      -9.520   2.321 -34.079  1.00  0.00     0.024 A 
HETATM   21  C   UNL     1     -10.434   1.290 -33.883  1.00  0.00     0.034 A 
HETATM   22  C   UNL     1     -10.138   0.250 -33.008  1.00  0.00     0.024 A 
HETATM   23 CL   UNL     1     -11.931   1.301 -34.729  1.00  0.00    -0.084 Cl
HETATM   24  C   UNL     1      -8.917   0.243 -32.327  1.00  0.00     0.009 A 
ENDBRANCH  16  18
ENDBRANCH  12  15
ENDBRANCH   1  11
BRANCH   8  25
HETATM   25  C   UNL     1       0.236   5.142 -29.820  1.00  0.00     0.270 C 
HETATM   26  N   UNL     1      -0.253   5.674 -28.657  1.00  0.00    -0.365 N 
HETATM   27  H   UNL     1      -0.931   6.425 -28.715  1.00  0.00     0.159 HD
HETATM   28  H   UNL     1       0.064   5.314 -27.772  1.00  0.00     0.159 HD
HETATM   29  O   UNL     1       1.056   4.231 -29.803  1.00  0.00    -0.266 OA
ENDBRANCH   8  25
TORSDOF 4
ENDMDL
