MODEL 1
REMARK VINA RESULT:      -8.4      0.000      0.000
REMARK  4 active torsions:
REMARK  status: ('A' for Active; 'I' for Inactive)
REMARK    1  A    between atoms: C_2  and  N_3 
REMARK    2  A    between atoms: C_2  and  C_14 
REMARK    3  A    between atoms: N_3  and  C_6 
REMARK    4  A    between atoms: C_6  and  C_7 
ROOT
HETATM    1  C   UNL     1      -7.732   1.017 -34.632  1.00  0.00     0.048 C 
HETATM    2  C   UNL     1      -6.318   1.190 -34.098  1.00  0.00     0.251 C 
ENDROOT
BRANCH   2   3
HETATM    3  N   UNL     1      -6.397   1.894 -32.766  1.00  0.00    -0.060 N 
HETATM    4  H   UNL     1      -7.202   1.582 -32.210  1.00  0.00     0.278 HD
HETATM    5  H   UNL     1      -5.550   1.613 -32.243  1.00  0.00     0.278 HD
BRANCH   3   6
HETATM    6  C   UNL     1      -6.389   3.382 -32.833  1.00  0.00     0.271 C 
BRANCH   6   7
HETATM    7  C   UNL     1      -5.068   3.883 -33.346  1.00  0.00    -0.033 A 
HETATM    8  C   UNL     1      -3.874   3.531 -32.694  1.00  0.00     0.010 A 
HETATM    9  C   UNL     1      -2.648   4.027 -33.148  1.00  0.00     0.024 A 
HETATM   10  C   UNL     1      -2.607   4.875 -34.252  1.00  0.00     0.034 A 
HETATM   11 CL   UNL     1      -1.100   5.485 -34.808  1.00  0.00    -0.084 Cl
HETATM   12  C   UNL     1      -3.784   5.235 -34.905  1.00  0.00     0.024 A 
HETATM   13  C   UNL     1      -5.012   4.745 -34.452  1.00  0.00     0.010 A 
ENDBRANCH   6   7
ENDBRANCH   3   6
ENDBRANCH   2   3
BRANCH   2  14
HETATM   14  C   UNL     1      -5.652  -0.181 -33.925  1.00  0.00     0.138 A 
HETATM   15  N   UNL     1      -6.186  -1.204 -34.519  1.00  0.00    -0.232 NA
HETATM   16  C   UNL     1      -5.552  -2.454 -34.356  1.00  0.00     0.074 A 
HETATM   17  C   UNL     1      -4.402  -2.619 -33.576  1.00  0.00     0.061 A 
HETATM   18  C   UNL     1      -6.092  -3.573 -34.992  1.00  0.00     0.032 A 
HETATM   19  C   UNL     1      -3.849  -1.421 -32.926  1.00  0.00     0.259 A 
HETATM   20  C   UNL     1      -3.795  -3.867 -33.422  1.00  0.00     0.019 A 
HETATM   21  O   UNL     1      -2.856  -1.447 -32.212  1.00  0.00    -0.267 OA
HETATM   22  N   UNL     1      -4.524  -0.248 -33.159  1.00  0.00    -0.309 N 
HETATM   23  H   UNL     1      -4.109   0.556 -32.705  1.00  0.00     0.170 HD
HETATM   24  C   UNL     1      -4.347  -4.975 -34.060  1.00  0.00     0.001 A 
HETATM   25  C   UNL     1      -5.492  -4.829 -34.845  1.00  0.00     0.002 A 
ENDBRANCH   2  14
TORSDOF 4
ENDMDL
MODEL 2
REMARK VINA RESULT:      -8.2      3.650      7.954
REMARK  4 active torsions:
REMARK  status: ('A' for Active; 'I' for Inactive)
REMARK    1  A    between atoms: C_2  and  N_3 
REMARK    2  A    between atoms: C_2  and  C_14 
REMARK    3  A    between atoms: N_3  and  C_6 
REMARK    4  A    between atoms: C_6  and  C_7 
ROOT
HETATM    1  C   UNL     1      -5.096   2.043 -30.727  1.00  0.00     0.048 C 
HETATM    2  C   UNL     1      -3.792   1.870 -31.492  1.00  0.00     0.251 C 
ENDROOT
BRANCH   2   3
HETATM    3  N   UNL     1      -4.052   0.968 -32.673  1.00  0.00    -0.060 N 
HETATM    4  H   UNL     1      -3.637   1.333 -33.538  1.00  0.00     0.278 HD
HETATM    5  H   UNL     1      -3.568   0.078 -32.466  1.00  0.00     0.278 HD
BRANCH   3   6
HETATM    6  C   UNL     1      -5.484   0.635 -32.914  1.00  0.00     0.271 C 
BRANCH   6   7
HETATM    7  C   UNL     1      -5.616  -0.733 -33.520  1.00  0.00    -0.033 A 
HETATM    8  C   UNL     1      -4.476  -1.525 -33.741  1.00  0.00     0.010 A 
HETATM    9  C   UNL     1      -4.595  -2.784 -34.339  1.00  0.00     0.024 A 
HETATM   10  C   UNL     1      -5.848  -3.256 -34.721  1.00  0.00     0.034 A 
HETATM   11 CL   UNL     1      -5.992  -4.802 -35.457  1.00  0.00    -0.084 Cl
HETATM   12  C   UNL     1      -6.986  -2.481 -34.511  1.00  0.00     0.024 A 
HETATM   13  C   UNL     1      -6.872  -1.220 -33.916  1.00  0.00     0.010 A 
ENDBRANCH   6   7
ENDBRANCH   3   6
ENDBRANCH   2   3
BRANCH   2  14
HETATM   14  C   UNL     1      -3.285   3.233 -31.977  1.00  0.00     0.138 A 
HETATM   15  N   UNL     1      -2.210   3.719 -31.435  1.00  0.00    -0.232 NA
HETATM   16  C   UNL     1      -1.755   4.970 -31.904  1.00  0.00     0.074 A 
HETATM   17  C   UNL     1      -2.424   5.690 -32.900  1.00  0.00     0.061 A 
HETATM   18  C   UNL     1      -0.595   5.516 -31.353  1.00  0.00     0.032 A 
HETATM   19  C   UNL     1      -3.638   5.086 -33.470  1.00  0.00     0.259 A 
HETATM   20  C   UNL     1      -1.960   6.931 -33.343  1.00  0.00     0.019 A 
HETATM   21  O   UNL     1      -4.311   5.629 -34.336  1.00  0.00    -0.267 OA
HETATM   22  N   UNL     1      -3.991   3.859 -32.964  1.00  0.00    -0.309 N 
HETATM   23  H   UNL     1      -4.824   3.471 -33.387  1.00  0.00     0.170 HD
HETATM   24  C   UNL     1      -0.802   7.464 -32.782  1.00  0.00     0.001 A 
HETATM   25  C   UNL     1      -0.120   6.758 -31.790  1.00  0.00     0.002 A 
ENDBRANCH   2  14
TORSDOF 4
ENDMDL
MODEL 3
REMARK VINA RESULT:      -8.1      4.488      7.498
REMARK  4 active torsions:
REMARK  status: ('A' for Active; 'I' for Inactive)
REMARK    1  A    between atoms: C_2  and  N_3 
REMARK    2  A    between atoms: C_2  and  C_14 
REMARK    3  A    between atoms: N_3  and  C_6 
REMARK    4  A    between atoms: C_6  and  C_7 
ROOT
HETATM    1  C   UNL     1      -7.709   0.384 -31.830  1.00  0.00     0.048 C 
HETATM    2  C   UNL     1      -7.735   1.355 -33.002  1.00  0.00     0.251 C 
ENDROOT
BRANCH   2   3
HETATM    3  N   UNL     1      -6.881   0.786 -34.108  1.00  0.00    -0.060 N 
HETATM    4  H   UNL     1      -6.721   1.464 -34.862  1.00  0.00     0.278 HD
HETATM    5  H   UNL     1      -5.958   0.590 -33.684  1.00  0.00     0.278 HD
BRANCH   3   6
HETATM    6  C   UNL     1      -7.369  -0.496 -34.690  1.00  0.00     0.271 C 
BRANCH   6   7
HETATM    7  C   UNL     1      -6.367  -1.594 -34.472  1.00  0.00    -0.033 A 
HETATM    8  C   UNL     1      -5.126  -1.314 -33.874  1.00  0.00     0.010 A 
HETATM    9  C   UNL     1      -4.179  -2.329 -33.704  1.00  0.00     0.024 A 
HETATM   10  C   UNL     1      -4.464  -3.624 -34.129  1.00  0.00     0.034 A 
HETATM   11 CL   UNL     1      -3.298  -4.869 -33.921  1.00  0.00    -0.084 Cl
HETATM   12  C   UNL     1      -5.688  -3.914 -34.726  1.00  0.00     0.024 A 
HETATM   13  C   UNL     1      -6.637  -2.902 -34.902  1.00  0.00     0.010 A 
ENDBRANCH   6   7
ENDBRANCH   3   6
ENDBRANCH   2   3
BRANCH   2  14
HETATM   14  C   UNL     1      -9.175   1.539 -33.497  1.00  0.00     0.138 A 
HETATM   15  N   UNL     1     -10.050   0.627 -33.201  1.00  0.00    -0.232 NA
HETATM   16  C   UNL     1     -11.371   0.821 -33.656  1.00  0.00     0.074 A 
HETATM   17  C   UNL     1     -11.750   1.935 -34.414  1.00  0.00     0.061 A 
HETATM   18  C   UNL     1     -12.340  -0.134 -33.345  1.00  0.00     0.032 A 
HETATM   19  C   UNL     1     -10.710   2.930 -34.719  1.00  0.00     0.259 A 
HETATM   20  C   UNL     1     -13.062   2.104 -34.862  1.00  0.00     0.019 A 
HETATM   21  O   UNL     1     -10.923   3.935 -35.383  1.00  0.00    -0.267 OA
HETATM   22  N   UNL     1      -9.461   2.663 -34.217  1.00  0.00    -0.309 N 
HETATM   23  H   UNL     1      -8.775   3.374 -34.438  1.00  0.00     0.170 HD
HETATM   24  C   UNL     1     -14.018   1.141 -34.545  1.00  0.00     0.001 A 
HETATM   25  C   UNL     1     -13.659   0.025 -33.787  1.00  0.00     0.002 A 
ENDBRANCH   2  14
TORSDOF 4
ENDMDL
MODEL 4
REMARK VINA RESULT:      -8.0      3.955      7.170
REMARK  4 active torsions:
REMARK  status: ('A' for Active; 'I' for Inactive)
REMARK    1  A    between atoms: C_2  and  N_3 
REMARK    2  A    between atoms: C_2  and  C_14 
REMARK    3  A    between atoms: N_3  and  C_6 
REMARK    4  A    between atoms: C_6  and  C_7 
ROOT
HETATM    1  C   UNL     1      -6.767   1.929 -31.097  1.00  0.00     0.048 C 
HETATM    2  C   UNL     1      -6.857   2.396 -32.543  1.00  0.00     0.251 C 
ENDROOT
BRANCH   2   3
HETATM    3  N   UNL     1      -5.855   1.614 -33.356  1.00  0.00    -0.060 N 
HETATM    4  H   UNL     1      -6.253   1.274 -34.239  1.00  0.00     0.278 HD
HETATM    5  H   UNL     1      -5.107   2.283 -33.607  1.00  0.00     0.278 HD
BRANCH   3   6
HETATM    6  C   UNL     1      -5.200   0.484 -32.640  1.00  0.00     0.271 C 
BRANCH   6   7
HETATM    7  C   UNL     1      -5.446  -0.813 -33.358  1.00  0.00    -0.033 A 
HETATM    8  C   UNL     1      -4.366  -1.623 -33.751  1.00  0.00     0.010 A 
HETATM    9  C   UNL     1      -4.593  -2.811 -34.452  1.00  0.00     0.024 A 
HETATM   10  C   UNL     1      -5.894  -3.196 -34.765  1.00  0.00     0.034 A 
HETATM   11 CL   UNL     1      -6.170  -4.656 -35.627  1.00  0.00    -0.084 Cl
HETATM   12  C   UNL     1      -6.973  -2.401 -34.385  1.00  0.00     0.024 A 
HETATM   13  C   UNL     1      -6.751  -1.210 -33.687  1.00  0.00     0.010 A 
ENDBRANCH   6   7
ENDBRANCH   3   6
ENDBRANCH   2   3
BRANCH   2  14
HETATM   14  C   UNL     1      -8.271   2.153 -33.083  1.00  0.00     0.138 A 
HETATM   15  N   UNL     1      -8.802   3.059 -33.847  1.00  0.00    -0.232 NA
HETATM   16  C   UNL     1     -10.100   2.811 -34.342  1.00  0.00     0.074 A 
HETATM   17  C   UNL     1     -10.818   1.652 -34.026  1.00  0.00     0.061 A 
HETATM   18  C   UNL     1     -10.697   3.757 -35.177  1.00  0.00     0.032 A 
HETATM   19  C   UNL     1     -10.161   0.667 -33.153  1.00  0.00     0.259 A 
HETATM   20  C   UNL     1     -12.105   1.430 -34.521  1.00  0.00     0.019 A 
HETATM   21  O   UNL     1     -10.697  -0.375 -32.801  1.00  0.00    -0.267 OA
HETATM   22  N   UNL     1      -8.892   0.988 -32.737  1.00  0.00    -0.309 N 
HETATM   23  H   UNL     1      -8.469   0.283 -32.147  1.00  0.00     0.170 HD
HETATM   24  C   UNL     1     -12.688   2.385 -35.351  1.00  0.00     0.001 A 
HETATM   25  C   UNL     1     -11.985   3.546 -35.680  1.00  0.00     0.002 A 
ENDBRANCH   2  14
TORSDOF 4
ENDMDL
MODEL 5
REMARK VINA RESULT:      -7.9      3.563      7.803
REMARK  4 active torsions:
REMARK  status: ('A' for Active; 'I' for Inactive)
REMARK    1  A    between atoms: C_2  and  N_3 
REMARK    2  A    between atoms: C_2  and  C_14 
REMARK    3  A    between atoms: N_3  and  C_6 
REMARK    4  A    between atoms: C_6  and  C_7 
ROOT
HETATM    1  C   UNL     1      -5.591   1.826 -30.360  1.00  0.00     0.048 C 
HETATM    2  C   UNL     1      -4.308   1.725 -31.173  1.00  0.00     0.251 C 
ENDROOT
BRANCH   2   3
HETATM    3  N   UNL     1      -4.603   0.941 -32.427  1.00  0.00    -0.060 N 
HETATM    4  H   UNL     1      -5.587   0.656 -32.485  1.00  0.00     0.278 HD
HETATM    5  H   UNL     1      -4.435   1.589 -33.215  1.00  0.00     0.278 HD
BRANCH   3   6
HETATM    6  C   UNL     1      -3.731  -0.246 -32.653  1.00  0.00     0.271 C 
BRANCH   6   7
HETATM    7  C   UNL     1      -4.471  -1.314 -33.408  1.00  0.00    -0.033 A 
HETATM    8  C   UNL     1      -5.768  -1.071 -33.893  1.00  0.00     0.010 A 
HETATM    9  C   UNL     1      -6.471  -2.076 -34.563  1.00  0.00     0.024 A 
HETATM   10  C   UNL     1      -5.887  -3.326 -34.752  1.00  0.00     0.034 A 
HETATM   11 CL   UNL     1      -6.754  -4.561 -35.574  1.00  0.00    -0.084 Cl
HETATM   12  C   UNL     1      -4.604  -3.581 -34.273  1.00  0.00     0.024 A 
HETATM   13  C   UNL     1      -3.898  -2.580 -33.599  1.00  0.00     0.010 A 
ENDBRANCH   6   7
ENDBRANCH   3   6
ENDBRANCH   2   3
BRANCH   2  14
HETATM   14  C   UNL     1      -3.809   3.128 -31.539  1.00  0.00     0.138 A 
HETATM   15  N   UNL     1      -3.092   3.266 -32.612  1.00  0.00    -0.232 NA
HETATM   16  C   UNL     1      -2.652   4.566 -32.936  1.00  0.00     0.074 A 
HETATM   17  C   UNL     1      -2.945   5.681 -32.142  1.00  0.00     0.061 A 
HETATM   18  C   UNL     1      -1.891   4.754 -34.091  1.00  0.00     0.032 A 
HETATM   19  C   UNL     1      -3.757   5.456 -30.936  1.00  0.00     0.259 A 
HETATM   20  C   UNL     1      -2.492   6.959 -32.477  1.00  0.00     0.019 A 
HETATM   21  O   UNL     1      -4.064   6.352 -30.162  1.00  0.00    -0.267 OA
HETATM   22  N   UNL     1      -4.154   4.160 -30.715  1.00  0.00    -0.309 N 
HETATM   23  H   UNL     1      -4.719   4.046 -29.883  1.00  0.00     0.170 HD
HETATM   24  C   UNL     1      -1.731   7.129 -33.632  1.00  0.00     0.001 A 
HETATM   25  C   UNL     1      -1.433   6.030 -34.438  1.00  0.00     0.002 A 
ENDBRANCH   2  14
TORSDOF 4
ENDMDL
MODEL 6
REMARK VINA RESULT:      -7.7      4.173      7.375
REMARK  4 active torsions:
REMARK  status: ('A' for Active; 'I' for Inactive)
REMARK    1  A    between atoms: C_2  and  N_3 
REMARK    2  A    between atoms: C_2  and  C_14 
REMARK    3  A    between atoms: N_3  and  C_6 
REMARK    4  A    between atoms: C_6  and  C_7 
ROOT
HETATM    1  C   UNL     1      -7.634   2.911 -30.477  1.00  0.00     0.048 C 
HETATM    2  C   UNL     1      -7.193   2.592 -31.898  1.00  0.00     0.251 C 
ENDROOT
BRANCH   2   3
HETATM    3  N   UNL     1      -6.841   1.127 -31.968  1.00  0.00    -0.060 N 
HETATM    4  H   UNL     1      -6.789   0.696 -31.038  1.00  0.00     0.278 HD
HETATM    5  H   UNL     1      -7.624   0.668 -32.463  1.00  0.00     0.278 HD
BRANCH   3   6
HETATM    6  C   UNL     1      -5.602   0.808 -32.732  1.00  0.00     0.271 C 
BRANCH   6   7
HETATM    7  C   UNL     1      -5.741  -0.508 -33.444  1.00  0.00    -0.033 A 
HETATM    8  C   UNL     1      -7.003  -0.955 -33.870  1.00  0.00     0.010 A 
HETATM    9  C   UNL     1      -7.138  -2.196 -34.499  1.00  0.00     0.024 A 
HETATM   10  C   UNL     1      -6.016  -2.996 -34.705  1.00  0.00     0.034 A 
HETATM   11 CL   UNL     1      -6.184  -4.522 -35.478  1.00  0.00    -0.084 Cl
HETATM   12  C   UNL     1      -4.760  -2.567 -34.285  1.00  0.00     0.024 A 
HETATM   13  C   UNL     1      -4.621  -1.328 -33.652  1.00  0.00     0.010 A 
ENDBRANCH   6   7
ENDBRANCH   3   6
ENDBRANCH   2   3
BRANCH   2  14
HETATM   14  C   UNL     1      -8.329   2.904 -32.880  1.00  0.00     0.138 A 
HETATM   15  N   UNL     1      -9.233   1.996 -33.085  1.00  0.00    -0.232 NA
HETATM   16  C   UNL     1     -10.275   2.308 -33.983  1.00  0.00     0.074 A 
HETATM   17  C   UNL     1     -10.348   3.532 -34.657  1.00  0.00     0.061 A 
HETATM   18  C   UNL     1     -11.272   1.359 -34.217  1.00  0.00     0.032 A 
HETATM   19  C   UNL     1      -9.289   4.517 -34.385  1.00  0.00     0.259 A 
HETATM   20  C   UNL     1     -11.384   3.817 -35.550  1.00  0.00     0.019 A 
HETATM   21  O   UNL     1      -9.243   5.613 -34.925  1.00  0.00    -0.267 OA
HETATM   22  N   UNL     1      -8.330   4.130 -33.482  1.00  0.00    -0.309 N 
HETATM   23  H   UNL     1      -7.625   4.836 -33.312  1.00  0.00     0.170 HD
HETATM   24  C   UNL     1     -12.370   2.859 -35.774  1.00  0.00     0.001 A 
HETATM   25  C   UNL     1     -12.316   1.633 -35.107  1.00  0.00     0.002 A 
ENDBRANCH   2  14
TORSDOF 4
ENDMDL
MODEL 7
REMARK VINA RESULT:      -7.7      4.861      6.642
REMARK  4 active torsions:
REMARK  status: ('A' for Active; 'I' for Inactive)
REMARK    1  A    between atoms: C_2  and  N_3 
REMARK    2  A    between atoms: C_2  and  C_14 
REMARK    3  A    between atoms: N_3  and  C_6 
REMARK    4  A    between atoms: C_6  and  C_7 
ROOT
HETATM    1  C   UNL     1      -8.778   2.120 -31.167  1.00  0.00     0.048 C 
HETATM    2  C   UNL     1      -9.102   1.196 -32.333  1.00  0.00     0.251 C 
ENDROOT
BRANCH   2   3
HETATM    3  N   UNL     1      -9.590   2.040 -33.485  1.00  0.00    -0.060 N 
HETATM    4  H   UNL     1      -9.936   2.955 -33.176  1.00  0.00     0.278 HD
HETATM    5  H   UNL     1      -8.762   2.221 -34.077  1.00  0.00     0.278 HD
BRANCH   3   6
HETATM    6  C   UNL     1     -10.610   1.393 -34.357  1.00  0.00     0.271 C 
BRANCH   6   7
HETATM    7  C   UNL     1     -11.989   1.582 -33.791  1.00  0.00    -0.033 A 
HETATM    8  C   UNL     1     -12.964   0.583 -33.949  1.00  0.00     0.010 A 
HETATM    9  C   UNL     1     -14.258   0.774 -33.454  1.00  0.00     0.024 A 
HETATM   10  C   UNL     1     -14.585   1.960 -32.802  1.00  0.00     0.034 A 
HETATM   11 CL   UNL     1     -16.176   2.193 -32.196  1.00  0.00    -0.084 Cl
HETATM   12  C   UNL     1     -13.629   2.960 -32.642  1.00  0.00     0.024 A 
HETATM   13  C   UNL     1     -12.335   2.775 -33.138  1.00  0.00     0.010 A 
ENDBRANCH   6   7
ENDBRANCH   3   6
ENDBRANCH   2   3
BRANCH   2  14
HETATM   14  C   UNL     1      -7.847   0.420 -32.749  1.00  0.00     0.138 A 
HETATM   15  N   UNL     1      -7.998  -0.699 -33.390  1.00  0.00    -0.232 NA
HETATM   16  C   UNL     1      -6.830  -1.392 -33.773  1.00  0.00     0.074 A 
HETATM   17  C   UNL     1      -5.545  -0.926 -33.473  1.00  0.00     0.061 A 
HETATM   18  C   UNL     1      -6.956  -2.591 -34.475  1.00  0.00     0.032 A 
HETATM   19  C   UNL     1      -5.442   0.346 -32.740  1.00  0.00     0.259 A 
HETATM   20  C   UNL     1      -4.403  -1.632 -33.854  1.00  0.00     0.019 A 
HETATM   21  O   UNL     1      -4.373   0.843 -32.413  1.00  0.00    -0.267 OA
HETATM   22  N   UNL     1      -6.633   0.956 -32.429  1.00  0.00    -0.309 N 
HETATM   23  H   UNL     1      -6.522   1.832 -31.935  1.00  0.00     0.170 HD
HETATM   24  C   UNL     1      -4.545  -2.829 -34.552  1.00  0.00     0.001 A 
HETATM   25  C   UNL     1      -5.818  -3.307 -34.864  1.00  0.00     0.002 A 
ENDBRANCH   2  14
TORSDOF 4
ENDMDL
MODEL 8
REMARK VINA RESULT:      -7.7      3.680      5.140
REMARK  4 active torsions:
REMARK  status: ('A' for Active; 'I' for Inactive)
REMARK    1  A    between atoms: C_2  and  N_3 
REMARK    2  A    between atoms: C_2  and  C_14 
REMARK    3  A    between atoms: N_3  and  C_6 
REMARK    4  A    between atoms: C_6  and  C_7 
ROOT
HETATM    1  C   UNL     1      -6.591   2.242 -34.195  1.00  0.00     0.048 C 
HETATM    2  C   UNL     1      -7.409   1.036 -33.757  1.00  0.00     0.251 C 
ENDROOT
BRANCH   2   3
HETATM    3  N   UNL     1      -8.597   0.909 -34.679  1.00  0.00    -0.060 N 
HETATM    4  H   UNL     1      -8.573   1.598 -35.439  1.00  0.00     0.278 HD
HETATM    5  H   UNL     1      -8.518  -0.023 -35.120  1.00  0.00     0.278 HD
BRANCH   3   6
HETATM    6  C   UNL     1      -9.927   0.957 -34.009  1.00  0.00     0.271 C 
BRANCH   6   7
HETATM    7  C   UNL     1     -10.739   2.112 -34.523  1.00  0.00    -0.033 A 
HETATM    8  C   UNL     1     -10.173   3.396 -34.607  1.00  0.00     0.010 A 
HETATM    9  C   UNL     1     -10.940   4.478 -35.050  1.00  0.00     0.024 A 
HETATM   10  C   UNL     1     -12.271   4.286 -35.410  1.00  0.00     0.034 A 
HETATM   11 CL   UNL     1     -13.212   5.617 -35.953  1.00  0.00    -0.084 Cl
HETATM   12  C   UNL     1     -12.845   3.019 -35.329  1.00  0.00     0.024 A 
HETATM   13  C   UNL     1     -12.084   1.935 -34.883  1.00  0.00     0.010 A 
ENDBRANCH   6   7
ENDBRANCH   3   6
ENDBRANCH   2   3
BRANCH   2  14
HETATM   14  C   UNL     1      -6.551  -0.233 -33.834  1.00  0.00     0.138 A 
HETATM   15  N   UNL     1      -7.089  -1.313 -34.312  1.00  0.00    -0.232 NA
HETATM   16  C   UNL     1      -6.280  -2.466 -34.384  1.00  0.00     0.074 A 
HETATM   17  C   UNL     1      -4.950  -2.481 -33.947  1.00  0.00     0.061 A 
HETATM   18  C   UNL     1      -6.822  -3.641 -34.906  1.00  0.00     0.032 A 
HETATM   19  C   UNL     1      -4.401  -1.226 -33.410  1.00  0.00     0.259 A 
HETATM   20  C   UNL     1      -4.168  -3.636 -34.019  1.00  0.00     0.019 A 
HETATM   21  O   UNL     1      -3.257  -1.124 -32.989  1.00  0.00    -0.267 OA
HETATM   22  N   UNL     1      -5.259  -0.153 -33.400  1.00  0.00    -0.309 N 
HETATM   23  H   UNL     1      -4.844   0.694 -33.034  1.00  0.00     0.170 HD
HETATM   24  C   UNL     1      -4.725  -4.802 -34.540  1.00  0.00     0.001 A 
HETATM   25  C   UNL     1      -6.048  -4.805 -34.984  1.00  0.00     0.002 A 
ENDBRANCH   2  14
TORSDOF 4
ENDMDL
MODEL 9
REMARK VINA RESULT:      -7.7      3.164      4.310
REMARK  4 active torsions:
REMARK  status: ('A' for Active; 'I' for Inactive)
REMARK    1  A    between atoms: C_2  and  N_3 
REMARK    2  A    between atoms: C_2  and  C_14 
REMARK    3  A    between atoms: N_3  and  C_6 
REMARK    4  A    between atoms: C_6  and  C_7 
ROOT
HETATM    1  C   UNL     1      -5.282   3.585 -30.583  1.00  0.00     0.048 C 
HETATM    2  C   UNL     1      -4.283   3.366 -31.710  1.00  0.00     0.251 C 
ENDROOT
BRANCH   2   3
HETATM    3  N   UNL     1      -2.894   3.575 -31.159  1.00  0.00    -0.060 N 
HETATM    4  H   UNL     1      -2.907   3.861 -30.173  1.00  0.00     0.278 HD
HETATM    5  H   UNL     1      -2.431   2.650 -31.193  1.00  0.00     0.278 HD
BRANCH   3   6
HETATM    6  C   UNL     1      -2.037   4.514 -31.936  1.00  0.00     0.271 C 
BRANCH   6   7
HETATM    7  C   UNL     1      -1.276   5.425 -31.015  1.00  0.00    -0.033 A 
HETATM    8  C   UNL     1      -1.826   6.656 -30.620  1.00  0.00     0.010 A 
HETATM    9  C   UNL     1      -1.102   7.520 -29.793  1.00  0.00     0.024 A 
HETATM   10  C   UNL     1       0.171   7.161 -29.356  1.00  0.00     0.034 A 
HETATM   11 CL   UNL     1       1.059   8.225 -28.340  1.00  0.00    -0.084 Cl
HETATM   12  C   UNL     1       0.728   5.945 -29.742  1.00  0.00     0.024 A 
HETATM   13  C   UNL     1       0.010   5.079 -30.572  1.00  0.00     0.010 A 
ENDBRANCH   6   7
ENDBRANCH   3   6
ENDBRANCH   2   3
BRANCH   2  14
HETATM   14  C   UNL     1      -4.418   1.941 -32.260  1.00  0.00     0.138 A 
HETATM   15  N   UNL     1      -5.454   1.659 -32.989  1.00  0.00    -0.232 NA
HETATM   16  C   UNL     1      -5.554   0.345 -33.494  1.00  0.00     0.074 A 
HETATM   17  C   UNL     1      -4.599  -0.641 -33.222  1.00  0.00     0.061 A 
HETATM   18  C   UNL     1      -6.648   0.010 -34.294  1.00  0.00     0.032 A 
HETATM   19  C   UNL     1      -3.452  -0.258 -32.385  1.00  0.00     0.259 A 
HETATM   20  C   UNL     1      -4.722  -1.938 -33.726  1.00  0.00     0.019 A 
HETATM   21  O   UNL     1      -2.563  -1.038 -32.073  1.00  0.00    -0.267 OA
HETATM   22  N   UNL     1      -3.432   1.047 -31.958  1.00  0.00    -0.309 N 
HETATM   23  H   UNL     1      -2.624   1.277 -31.394  1.00  0.00     0.170 HD
HETATM   24  C   UNL     1      -5.821  -2.258 -34.520  1.00  0.00     0.001 A 
HETATM   25  C   UNL     1      -6.781  -1.286 -34.805  1.00  0.00     0.002 A 
ENDBRANCH   2  14
TORSDOF 4
ENDMDL
MODEL 10
REMARK VINA RESULT:      -7.6      2.990      4.176
REMARK  4 active torsions:
REMARK  status: ('A' for Active; 'I' for Inactive)
REMARK    1  A    between atoms: C_2  and  N_3 
REMARK    2  A    between atoms: C_2  and  C_14 
REMARK    3  A    between atoms: N_3  and  C_6 
REMARK    4  A    between atoms: C_6  and  C_7 
ROOT
HETATM    1  C   UNL     1      -5.122   3.176 -30.548  1.00  0.00     0.048 C 
HETATM    2  C   UNL     1      -4.611   3.200 -31.982  1.00  0.00     0.251 C 
ENDROOT
BRANCH   2   3
HETATM    3  N   UNL     1      -3.103   3.179 -31.948  1.00  0.00    -0.060 N 
HETATM    4  H   UNL     1      -2.737   3.158 -30.989  1.00  0.00     0.278 HD
HETATM    5  H   UNL     1      -2.819   2.289 -32.392  1.00  0.00     0.278 HD
BRANCH   3   6
HETATM    6  C   UNL     1      -2.436   4.273 -32.708  1.00  0.00     0.271 C 
BRANCH   6   7
HETATM    7  C   UNL     1      -1.668   5.172 -31.782  1.00  0.00    -0.033 A 
HETATM    8  C   UNL     1      -0.263   5.203 -31.826  1.00  0.00     0.010 A 
HETATM    9  C   UNL     1       0.454   6.012 -30.939  1.00  0.00     0.024 A 
HETATM   10  C   UNL     1      -0.225   6.791 -30.005  1.00  0.00     0.034 A 
HETATM   11 CL   UNL     1       0.658   7.783 -28.915  1.00  0.00    -0.084 Cl
HETATM   12  C   UNL     1      -1.616   6.767 -29.948  1.00  0.00     0.024 A 
HETATM   13  C   UNL     1      -2.338   5.957 -30.830  1.00  0.00     0.010 A 
ENDBRANCH   6   7
ENDBRANCH   3   6
ENDBRANCH   2   3
BRANCH   2  14
HETATM   14  C   UNL     1      -5.133   1.975 -32.743  1.00  0.00     0.138 A 
HETATM   15  N   UNL     1      -4.441   0.879 -32.696  1.00  0.00    -0.232 NA
HETATM   16  C   UNL     1      -4.944  -0.239 -33.395  1.00  0.00     0.074 A 
HETATM   17  C   UNL     1      -6.132  -0.192 -34.133  1.00  0.00     0.061 A 
HETATM   18  C   UNL     1      -4.232  -1.438 -33.354  1.00  0.00     0.032 A 
HETATM   19  C   UNL     1      -6.867   1.082 -34.151  1.00  0.00     0.259 A 
HETATM   20  C   UNL     1      -6.608  -1.308 -34.825  1.00  0.00     0.019 A 
HETATM   21  O   UNL     1      -7.909   1.243 -34.772  1.00  0.00    -0.267 OA
HETATM   22  N   UNL     1      -6.309   2.105 -33.425  1.00  0.00    -0.309 N 
HETATM   23  H   UNL     1      -6.847   2.962 -33.452  1.00  0.00     0.170 HD
HETATM   24  C   UNL     1      -5.885  -2.497 -34.777  1.00  0.00     0.001 A 
HETATM   25  C   UNL     1      -4.700  -2.564 -34.042  1.00  0.00     0.002 A 
ENDBRANCH   2  14
TORSDOF 4
ENDMDL
