MODEL 1
REMARK VINA RESULT:      -7.8      0.000      0.000
REMARK  8 active torsions:
REMARK  status: ('A' for Active; 'I' for Inactive)
REMARK    1  A    between atoms: C_2  and  N_3 
REMARK    2  A    between atoms: C_2  and  C_17 
REMARK    3  A    between atoms: N_3  and  N_4 
REMARK       I    between atoms: N_4  and  C_5 
REMARK    4  A    between atoms: C_5  and  C_6 
REMARK    5  A    between atoms: C_6  and  N_7 
REMARK    6  A    between atoms: N_7  and  C_8 
REMARK    7  A    between atoms: C_9  and  O_10 
REMARK       I    between atoms: C_17  and  N_18 
REMARK    8  A    between atoms: N_18  and  C_19 
ROOT
HETATM    1  N   UNL     1      -5.215   1.318 -30.389  1.00  0.00    -0.225 NA
HETATM    2  H   UNL     1      -5.998   1.167 -29.734  1.00  0.00     0.147 HD
ENDROOT
BRANCH   1   3
HETATM    3  C   UNL     1      -5.733   2.245 -31.443  1.00  0.00     0.165 C 
HETATM    4  C   UNL     1      -7.163   2.640 -31.085  1.00  0.00     0.038 C 
BRANCH   3   5
HETATM    5  C   UNL     1      -4.867   3.515 -31.545  1.00  0.00     0.241 C 
HETATM    6  N   UNL     1      -3.718   3.323 -32.294  1.00  0.00    -0.326 N 
HETATM    7  H   UNL     1      -3.654   2.393 -32.700  1.00  0.00     0.169 HD
HETATM    8  O   UNL     1      -5.189   4.547 -30.963  1.00  0.00    -0.271 OA
BRANCH   6   9
HETATM    9  C   UNL     1      -2.749   4.270 -32.661  1.00  0.00     0.036 A 
HETATM   10  C   UNL     1      -1.755   4.742 -31.800  1.00  0.00     0.053 A 
HETATM   11  C   UNL     1      -0.852   5.710 -32.242  1.00  0.00     0.036 A 
HETATM   12 CL   UNL     1       0.364   6.296 -31.173  1.00  0.00    -0.084 Cl
HETATM   13  C   UNL     1      -0.925   6.214 -33.538  1.00  0.00     0.024 A 
HETATM   14  C   UNL     1      -1.908   5.742 -34.405  1.00  0.00     0.004 A 
HETATM   15  C   UNL     1      -2.814   4.773 -33.967  1.00  0.00     0.029 A 
ENDBRANCH   6   9
ENDBRANCH   3   5
ENDBRANCH   1   3
BRANCH   1  16
HETATM   16  N   UNL     1      -4.910   0.037 -30.937  1.00  0.00    -0.290 N 
HETATM   17  C   UNL     1      -3.594  -0.256 -31.287  1.00  0.00     0.245 C 
HETATM   18  O   UNL     1      -2.660   0.520 -31.088  1.00  0.00    -0.271 OA
HETATM   19  H   UNL     1      -5.648  -0.474 -31.421  1.00  0.00     0.183 HD
BRANCH  17  20
HETATM   20  C   UNL     1      -3.429  -1.596 -32.006  1.00  0.00     0.196 C 
BRANCH  20  21
HETATM   21  N   UNL     1      -3.715  -1.407 -33.438  1.00  0.00    -0.282 NA
HETATM   22  H   UNL     1      -2.860  -1.623 -33.970  1.00  0.00     0.128 HD
BRANCH  21  23
HETATM   23  C   UNL     1      -4.671  -2.362 -33.894  1.00  0.00     0.042 A 
HETATM   24  C   UNL     1      -6.014  -1.968 -34.088  1.00  0.00     0.089 A 
HETATM   25  C   UNL     1      -6.943  -2.890 -34.571  1.00  0.00     0.038 A 
HETATM   26  C   UNL     1      -6.540  -4.194 -34.872  1.00  0.00     0.003 A 
HETATM   27  C   UNL     1      -5.212  -4.582 -34.691  1.00  0.00     0.002 A 
HETATM   28  C   UNL     1      -4.277  -3.666 -34.207  1.00  0.00     0.026 A 
BRANCH  24  29
HETATM   29  O   UNL     1      -6.280  -0.658 -33.767  1.00  0.00    -0.354 OA
HETATM   30  C   UNL     1      -7.609  -0.350 -33.365  1.00  0.00     0.210 C 
ENDBRANCH  24  29
ENDBRANCH  21  23
ENDBRANCH  20  21
ENDBRANCH  17  20
ENDBRANCH   1  16
TORSDOF 8
ENDMDL
MODEL 2
REMARK VINA RESULT:      -7.6      3.296      7.584
REMARK  8 active torsions:
REMARK  status: ('A' for Active; 'I' for Inactive)
REMARK    1  A    between atoms: C_2  and  N_3 
REMARK    2  A    between atoms: C_2  and  C_17 
REMARK    3  A    between atoms: N_3  and  N_4 
REMARK       I    between atoms: N_4  and  C_5 
REMARK    4  A    between atoms: C_5  and  C_6 
REMARK    5  A    between atoms: C_6  and  N_7 
REMARK    6  A    between atoms: N_7  and  C_8 
REMARK    7  A    between atoms: C_9  and  O_10 
REMARK       I    between atoms: C_17  and  N_18 
REMARK    8  A    between atoms: N_18  and  C_19 
ROOT
HETATM    1  N   UNL     1      -8.037   2.489 -30.446  1.00  0.00    -0.225 NA
HETATM    2  H   UNL     1      -7.502   1.869 -29.819  1.00  0.00     0.147 HD
ENDROOT
BRANCH   1   3
HETATM    3  C   UNL     1      -8.425   1.648 -31.621  1.00  0.00     0.165 C 
HETATM    4  C   UNL     1      -8.331   2.499 -32.884  1.00  0.00     0.038 C 
BRANCH   3   5
HETATM    5  C   UNL     1      -7.498   0.426 -31.764  1.00  0.00     0.241 C 
HETATM    6  N   UNL     1      -7.319   0.038 -33.081  1.00  0.00    -0.326 N 
HETATM    7  H   UNL     1      -7.783   0.650 -33.747  1.00  0.00     0.169 HD
HETATM    8  O   UNL     1      -7.033  -0.133 -30.774  1.00  0.00    -0.271 OA
BRANCH   6   9
HETATM    9  C   UNL     1      -6.484  -0.972 -33.586  1.00  0.00     0.036 A 
HETATM   10  C   UNL     1      -6.953  -2.123 -34.224  1.00  0.00     0.053 A 
HETATM   11  C   UNL     1      -6.050  -3.091 -34.666  1.00  0.00     0.036 A 
HETATM   12 CL   UNL     1      -6.633  -4.513 -35.442  1.00  0.00    -0.084 Cl
HETATM   13  C   UNL     1      -4.679  -2.925 -34.481  1.00  0.00     0.024 A 
HETATM   14  C   UNL     1      -4.204  -1.776 -33.853  1.00  0.00     0.004 A 
HETATM   15  C   UNL     1      -5.104  -0.803 -33.410  1.00  0.00     0.029 A 
ENDBRANCH   6   9
ENDBRANCH   3   5
ENDBRANCH   1   3
BRANCH   1  16
HETATM   16  N   UNL     1      -7.136   3.526 -30.833  1.00  0.00    -0.290 N 
HETATM   17  C   UNL     1      -5.805   3.453 -30.430  1.00  0.00     0.245 C 
HETATM   18  O   UNL     1      -5.347   2.499 -29.801  1.00  0.00    -0.271 OA
HETATM   19  H   UNL     1      -7.514   4.450 -31.034  1.00  0.00     0.183 HD
BRANCH  17  20
HETATM   20  C   UNL     1      -4.986   4.698 -30.775  1.00  0.00     0.196 C 
BRANCH  20  21
HETATM   21  N   UNL     1      -3.581   4.305 -30.976  1.00  0.00    -0.282 NA
HETATM   22  H   UNL     1      -3.531   3.276 -30.983  1.00  0.00     0.128 HD
BRANCH  21  23
HETATM   23  C   UNL     1      -3.126   4.694 -32.270  1.00  0.00     0.042 A 
HETATM   24  C   UNL     1      -1.740   4.812 -32.517  1.00  0.00     0.089 A 
HETATM   25  C   UNL     1      -1.291   5.154 -33.793  1.00  0.00     0.038 A 
HETATM   26  C   UNL     1      -2.211   5.368 -34.823  1.00  0.00     0.003 A 
HETATM   27  C   UNL     1      -3.580   5.242 -34.583  1.00  0.00     0.002 A 
HETATM   28  C   UNL     1      -4.038   4.901 -33.310  1.00  0.00     0.026 A 
BRANCH  24  29
HETATM   29  O   UNL     1      -0.940   4.566 -31.427  1.00  0.00    -0.354 OA
HETATM   30  C   UNL     1       0.166   5.437 -31.229  1.00  0.00     0.210 C 
ENDBRANCH  24  29
ENDBRANCH  21  23
ENDBRANCH  20  21
ENDBRANCH  17  20
ENDBRANCH   1  16
TORSDOF 8
ENDMDL
MODEL 3
REMARK VINA RESULT:      -7.6      6.306      9.412
REMARK  8 active torsions:
REMARK  status: ('A' for Active; 'I' for Inactive)
REMARK    1  A    between atoms: C_2  and  N_3 
REMARK    2  A    between atoms: C_2  and  C_17 
REMARK    3  A    between atoms: N_3  and  N_4 
REMARK       I    between atoms: N_4  and  C_5 
REMARK    4  A    between atoms: C_5  and  C_6 
REMARK    5  A    between atoms: C_6  and  N_7 
REMARK    6  A    between atoms: N_7  and  C_8 
REMARK    7  A    between atoms: C_9  and  O_10 
REMARK       I    between atoms: C_17  and  N_18 
REMARK    8  A    between atoms: N_18  and  C_19 
ROOT
HETATM    1  N   UNL     1     -10.252   1.656 -34.658  1.00  0.00    -0.225 NA
HETATM    2  H   UNL     1      -9.953   1.023 -35.415  1.00  0.00     0.147 HD
ENDROOT
BRANCH   1   3
HETATM    3  C   UNL     1      -9.211   1.537 -33.589  1.00  0.00     0.165 C 
HETATM    4  C   UNL     1      -9.784   0.716 -32.438  1.00  0.00     0.038 C 
BRANCH   3   5
HETATM    5  C   UNL     1      -7.941   0.845 -34.121  1.00  0.00     0.241 C 
HETATM    6  N   UNL     1      -7.713  -0.387 -33.532  1.00  0.00    -0.326 N 
HETATM    7  H   UNL     1      -8.445  -0.663 -32.882  1.00  0.00     0.169 HD
HETATM    8  O   UNL     1      -7.220   1.397 -34.948  1.00  0.00    -0.271 OA
BRANCH   6   9
HETATM    9  C   UNL     1      -6.708  -1.322 -33.828  1.00  0.00     0.036 A 
HETATM   10  C   UNL     1      -6.925  -2.498 -34.550  1.00  0.00     0.053 A 
HETATM   11  C   UNL     1      -5.872  -3.386 -34.769  1.00  0.00     0.036 A 
HETATM   12 CL   UNL     1      -6.147  -4.839 -35.651  1.00  0.00    -0.084 Cl
HETATM   13  C   UNL     1      -4.597  -3.115 -34.277  1.00  0.00     0.024 A 
HETATM   14  C   UNL     1      -4.371  -1.941 -33.563  1.00  0.00     0.004 A 
HETATM   15  C   UNL     1      -5.422  -1.048 -33.342  1.00  0.00     0.029 A 
ENDBRANCH   6   9
ENDBRANCH   3   5
ENDBRANCH   1   3
BRANCH   1  16
HETATM   16  N   UNL     1     -11.510   1.159 -34.205  1.00  0.00    -0.290 N 
HETATM   17  C   UNL     1     -12.630   1.307 -35.020  1.00  0.00     0.245 C 
HETATM   18  O   UNL     1     -12.578   1.797 -36.148  1.00  0.00    -0.271 OA
HETATM   19  H   UNL     1     -11.669   1.074 -33.202  1.00  0.00     0.183 HD
BRANCH  17  20
HETATM   20  C   UNL     1     -13.939   0.877 -34.355  1.00  0.00     0.196 C 
BRANCH  20  21
HETATM   21  N   UNL     1     -13.828   1.086 -32.902  1.00  0.00    -0.282 NA
HETATM   22  H   UNL     1     -12.852   1.336 -32.684  1.00  0.00     0.128 HD
BRANCH  21  23
HETATM   23  C   UNL     1     -14.587   2.221 -32.493  1.00  0.00     0.042 A 
HETATM   24  C   UNL     1     -13.927   3.435 -32.200  1.00  0.00     0.089 A 
HETATM   25  C   UNL     1     -14.671   4.558 -31.838  1.00  0.00     0.038 A 
HETATM   26  C   UNL     1     -16.065   4.481 -31.775  1.00  0.00     0.003 A 
HETATM   27  C   UNL     1     -16.719   3.286 -32.073  1.00  0.00     0.002 A 
HETATM   28  C   UNL     1     -15.983   2.157 -32.436  1.00  0.00     0.026 A 
BRANCH  24  29
HETATM   29  O   UNL     1     -12.557   3.385 -32.310  1.00  0.00    -0.354 OA
HETATM   30  C   UNL     1     -11.885   4.612 -32.559  1.00  0.00     0.210 C 
ENDBRANCH  24  29
ENDBRANCH  21  23
ENDBRANCH  20  21
ENDBRANCH  17  20
ENDBRANCH   1  16
TORSDOF 8
ENDMDL
MODEL 4
REMARK VINA RESULT:      -7.5      3.573      7.467
REMARK  8 active torsions:
REMARK  status: ('A' for Active; 'I' for Inactive)
REMARK    1  A    between atoms: C_2  and  N_3 
REMARK    2  A    between atoms: C_2  and  C_17 
REMARK    3  A    between atoms: N_3  and  N_4 
REMARK       I    between atoms: N_4  and  C_5 
REMARK    4  A    between atoms: C_5  and  C_6 
REMARK    5  A    between atoms: C_6  and  N_7 
REMARK    6  A    between atoms: N_7  and  C_8 
REMARK    7  A    between atoms: C_9  and  O_10 
REMARK       I    between atoms: C_17  and  N_18 
REMARK    8  A    between atoms: N_18  and  C_19 
ROOT
HETATM    1  N   UNL     1      -9.087   2.525 -31.880  1.00  0.00    -0.225 NA
HETATM    2  H   UNL     1      -8.692   2.086 -31.035  1.00  0.00     0.147 HD
ENDROOT
BRANCH   1   3
HETATM    3  C   UNL     1      -9.523   1.399 -32.763  1.00  0.00     0.165 C 
HETATM    4  C   UNL     1     -10.591   1.915 -33.722  1.00  0.00     0.038 C 
BRANCH   3   5
HETATM    5  C   UNL     1      -8.341   0.836 -33.575  1.00  0.00     0.241 C 
HETATM    6  N   UNL     1      -7.798  -0.307 -33.013  1.00  0.00    -0.326 N 
HETATM    7  H   UNL     1      -8.297  -0.623 -32.186  1.00  0.00     0.169 HD
HETATM    8  O   UNL     1      -7.937   1.411 -34.582  1.00  0.00    -0.271 OA
BRANCH   6   9
HETATM    9  C   UNL     1      -6.775  -1.125 -33.519  1.00  0.00     0.036 A 
HETATM   10  C   UNL     1      -7.002  -2.294 -34.250  1.00  0.00     0.053 A 
HETATM   11  C   UNL     1      -5.922  -3.063 -34.686  1.00  0.00     0.036 A 
HETATM   12 CL   UNL     1      -6.207  -4.509 -35.577  1.00  0.00    -0.084 Cl
HETATM   13  C   UNL     1      -4.613  -2.680 -34.405  1.00  0.00     0.024 A 
HETATM   14  C   UNL     1      -4.380  -1.511 -33.684  1.00  0.00     0.004 A 
HETATM   15  C   UNL     1      -5.457  -0.736 -33.246  1.00  0.00     0.029 A 
ENDBRANCH   6   9
ENDBRANCH   3   5
ENDBRANCH   1   3
BRANCH   1  16
HETATM   16  N   UNL     1      -8.019   3.260 -32.476  1.00  0.00    -0.290 N 
HETATM   17  C   UNL     1      -8.218   4.598 -32.808  1.00  0.00     0.245 C 
HETATM   18  O   UNL     1      -9.261   5.202 -32.556  1.00  0.00    -0.271 OA
HETATM   19  H   UNL     1      -7.308   2.749 -32.997  1.00  0.00     0.183 HD
BRANCH  17  20
HETATM   20  C   UNL     1      -7.055   5.223 -33.580  1.00  0.00     0.196 C 
BRANCH  20  21
HETATM   21  N   UNL     1      -6.289   4.152 -34.238  1.00  0.00    -0.282 NA
HETATM   22  H   UNL     1      -6.419   4.239 -35.256  1.00  0.00     0.128 HD
BRANCH  21  23
HETATM   23  C   UNL     1      -4.889   4.335 -34.039  1.00  0.00     0.042 A 
HETATM   24  C   UNL     1      -4.233   3.635 -33.002  1.00  0.00     0.089 A 
HETATM   25  C   UNL     1      -2.856   3.782 -32.831  1.00  0.00     0.038 A 
HETATM   26  C   UNL     1      -2.130   4.612 -33.689  1.00  0.00     0.003 A 
HETATM   27  C   UNL     1      -2.775   5.297 -34.720  1.00  0.00     0.002 A 
HETATM   28  C   UNL     1      -4.152   5.156 -34.898  1.00  0.00     0.026 A 
BRANCH  24  29
HETATM   29  O   UNL     1      -5.054   2.842 -32.236  1.00  0.00    -0.354 OA
HETATM   30  C   UNL     1      -4.741   2.739 -30.853  1.00  0.00     0.210 C 
ENDBRANCH  24  29
ENDBRANCH  21  23
ENDBRANCH  20  21
ENDBRANCH  17  20
ENDBRANCH   1  16
TORSDOF 8
ENDMDL
MODEL 5
REMARK VINA RESULT:      -7.3      4.284      6.308
REMARK  8 active torsions:
REMARK  status: ('A' for Active; 'I' for Inactive)
REMARK    1  A    between atoms: C_2  and  N_3 
REMARK    2  A    between atoms: C_2  and  C_17 
REMARK    3  A    between atoms: N_3  and  N_4 
REMARK       I    between atoms: N_4  and  C_5 
REMARK    4  A    between atoms: C_5  and  C_6 
REMARK    5  A    between atoms: C_6  and  N_7 
REMARK    6  A    between atoms: N_7  and  C_8 
REMARK    7  A    between atoms: C_9  and  O_10 
REMARK       I    between atoms: C_17  and  N_18 
REMARK    8  A    between atoms: N_18  and  C_19 
ROOT
HETATM    1  N   UNL     1      -6.306   1.501 -31.198  1.00  0.00    -0.225 NA
HETATM    2  H   UNL     1      -6.993   1.028 -30.590  1.00  0.00     0.147 HD
ENDROOT
BRANCH   1   3
HETATM    3  C   UNL     1      -7.106   2.354 -32.133  1.00  0.00     0.165 C 
HETATM    4  C   UNL     1      -6.325   2.517 -33.434  1.00  0.00     0.038 C 
BRANCH   3   5
HETATM    5  C   UNL     1      -8.474   1.715 -32.439  1.00  0.00     0.241 C 
HETATM    6  N   UNL     1      -9.258   2.498 -33.270  1.00  0.00    -0.326 N 
HETATM    7  H   UNL     1      -8.788   3.342 -33.588  1.00  0.00     0.169 HD
HETATM    8  O   UNL     1      -8.799   0.645 -31.933  1.00  0.00    -0.271 OA
BRANCH   6   9
HETATM    9  C   UNL     1     -10.516   2.198 -33.818  1.00  0.00     0.036 A 
HETATM   10  C   UNL     1     -11.295   1.106 -33.428  1.00  0.00     0.053 A 
HETATM   11  C   UNL     1     -12.521   0.866 -34.050  1.00  0.00     0.036 A 
HETATM   12 CL   UNL     1     -13.472  -0.487 -33.573  1.00  0.00    -0.084 Cl
HETATM   13  C   UNL     1     -12.983   1.706 -35.060  1.00  0.00     0.024 A 
HETATM   14  C   UNL     1     -12.216   2.802 -35.449  1.00  0.00     0.004 A 
HETATM   15  C   UNL     1     -10.989   3.047 -34.828  1.00  0.00     0.029 A 
ENDBRANCH   6   9
ENDBRANCH   3   5
ENDBRANCH   1   3
BRANCH   1  16
HETATM   16  N   UNL     1      -5.629   0.463 -31.904  1.00  0.00    -0.290 N 
HETATM   17  C   UNL     1      -4.490  -0.109 -31.341  1.00  0.00     0.245 C 
HETATM   18  O   UNL     1      -4.069   0.198 -30.226  1.00  0.00    -0.271 OA
HETATM   19  H   UNL     1      -5.719   0.424 -32.918  1.00  0.00     0.183 HD
BRANCH  17  20
HETATM   20  C   UNL     1      -3.771  -1.093 -32.265  1.00  0.00     0.196 C 
BRANCH  20  21
HETATM   21  N   UNL     1      -4.340  -0.981 -33.618  1.00  0.00    -0.282 NA
HETATM   22  H   UNL     1      -3.565  -0.873 -34.288  1.00  0.00     0.128 HD
BRANCH  21  23
HETATM   23  C   UNL     1      -4.979  -2.196 -34.002  1.00  0.00     0.042 A 
HETATM   24  C   UNL     1      -6.362  -2.197 -34.293  1.00  0.00     0.089 A 
HETATM   25  C   UNL     1      -6.981  -3.376 -34.707  1.00  0.00     0.038 A 
HETATM   26  C   UNL     1      -6.232  -4.548 -34.842  1.00  0.00     0.003 A 
HETATM   27  C   UNL     1      -4.864  -4.547 -34.564  1.00  0.00     0.002 A 
HETATM   28  C   UNL     1      -4.237  -3.372 -34.149  1.00  0.00     0.026 A 
BRANCH  24  29
HETATM   29  O   UNL     1      -6.983  -0.981 -34.133  1.00  0.00    -0.354 OA
HETATM   30  C   UNL     1      -7.548  -0.389 -35.296  1.00  0.00     0.210 C 
ENDBRANCH  24  29
ENDBRANCH  21  23
ENDBRANCH  20  21
ENDBRANCH  17  20
ENDBRANCH   1  16
TORSDOF 8
ENDMDL
MODEL 6
REMARK VINA RESULT:      -7.3      2.122      3.045
REMARK  8 active torsions:
REMARK  status: ('A' for Active; 'I' for Inactive)
REMARK    1  A    between atoms: C_2  and  N_3 
REMARK    2  A    between atoms: C_2  and  C_17 
REMARK    3  A    between atoms: N_3  and  N_4 
REMARK       I    between atoms: N_4  and  C_5 
REMARK    4  A    between atoms: C_5  and  C_6 
REMARK    5  A    between atoms: C_6  and  N_7 
REMARK    6  A    between atoms: N_7  and  C_8 
REMARK    7  A    between atoms: C_9  and  O_10 
REMARK       I    between atoms: C_17  and  N_18 
REMARK    8  A    between atoms: N_18  and  C_19 
ROOT
HETATM    1  N   UNL     1      -5.424   3.738 -28.938  1.00  0.00    -0.225 NA
HETATM    2  H   UNL     1      -5.678   3.611 -27.947  1.00  0.00     0.147 HD
ENDROOT
BRANCH   1   3
HETATM    3  C   UNL     1      -6.078   5.013 -29.370  1.00  0.00     0.165 C 
HETATM    4  C   UNL     1      -6.399   5.842 -28.129  1.00  0.00     0.038 C 
BRANCH   3   5
HETATM    5  C   UNL     1      -5.156   5.828 -30.298  1.00  0.00     0.241 C 
HETATM    6  N   UNL     1      -3.849   5.370 -30.293  1.00  0.00    -0.326 N 
HETATM    7  H   UNL     1      -3.716   4.541 -29.720  1.00  0.00     0.169 HD
HETATM    8  O   UNL     1      -5.582   6.799 -30.916  1.00  0.00    -0.271 OA
BRANCH   6   9
HETATM    9  C   UNL     1      -2.768   5.815 -31.070  1.00  0.00     0.036 A 
HETATM   10  C   UNL     1      -2.576   5.466 -32.409  1.00  0.00     0.053 A 
HETATM   11  C   UNL     1      -1.453   5.930 -33.096  1.00  0.00     0.036 A 
HETATM   12 CL   UNL     1      -1.215   5.488 -34.743  1.00  0.00    -0.084 Cl
HETATM   13  C   UNL     1      -0.515   6.742 -32.463  1.00  0.00     0.024 A 
HETATM   14  C   UNL     1      -0.704   7.100 -31.130  1.00  0.00     0.004 A 
HETATM   15  C   UNL     1      -1.827   6.640 -30.439  1.00  0.00     0.029 A 
ENDBRANCH   6   9
ENDBRANCH   3   5
ENDBRANCH   1   3
BRANCH   1  16
HETATM   16  N   UNL     1      -5.975   2.620 -29.631  1.00  0.00    -0.290 N 
HETATM   17  C   UNL     1      -5.232   2.015 -30.642  1.00  0.00     0.245 C 
HETATM   18  O   UNL     1      -4.087   2.362 -30.931  1.00  0.00    -0.271 OA
HETATM   19  H   UNL     1      -6.988   2.524 -29.674  1.00  0.00     0.183 HD
BRANCH  17  20
HETATM   20  C   UNL     1      -5.995   0.933 -31.408  1.00  0.00     0.196 C 
BRANCH  20  21
HETATM   21  N   UNL     1      -5.656   1.030 -32.838  1.00  0.00    -0.282 NA
HETATM   22  H   UNL     1      -4.683   1.361 -32.917  1.00  0.00     0.128 HD
BRANCH  21  23
HETATM   23  C   UNL     1      -5.647  -0.259 -33.445  1.00  0.00     0.042 A 
HETATM   24  C   UNL     1      -4.437  -0.985 -33.527  1.00  0.00     0.089 A 
HETATM   25  C   UNL     1      -4.433  -2.263 -34.086  1.00  0.00     0.038 A 
HETATM   26  C   UNL     1      -5.624  -2.824 -34.553  1.00  0.00     0.003 A 
HETATM   27  C   UNL     1      -6.821  -2.113 -34.464  1.00  0.00     0.002 A 
HETATM   28  C   UNL     1      -6.835  -0.834 -33.907  1.00  0.00     0.026 A 
BRANCH  24  29
HETATM   29  O   UNL     1      -3.339  -0.329 -33.023  1.00  0.00    -0.354 OA
HETATM   30  C   UNL     1      -2.705  -0.909 -31.891  1.00  0.00     0.210 C 
ENDBRANCH  24  29
ENDBRANCH  21  23
ENDBRANCH  20  21
ENDBRANCH  17  20
ENDBRANCH   1  16
TORSDOF 8
ENDMDL
MODEL 7
REMARK VINA RESULT:      -7.2      5.037      8.102
REMARK  8 active torsions:
REMARK  status: ('A' for Active; 'I' for Inactive)
REMARK    1  A    between atoms: C_2  and  N_3 
REMARK    2  A    between atoms: C_2  and  C_17 
REMARK    3  A    between atoms: N_3  and  N_4 
REMARK       I    between atoms: N_4  and  C_5 
REMARK    4  A    between atoms: C_5  and  C_6 
REMARK    5  A    between atoms: C_6  and  N_7 
REMARK    6  A    between atoms: N_7  and  C_8 
REMARK    7  A    between atoms: C_9  and  O_10 
REMARK       I    between atoms: C_17  and  N_18 
REMARK    8  A    between atoms: N_18  and  C_19 
ROOT
HETATM    1  N   UNL     1      -6.817   2.306 -31.998  1.00  0.00    -0.225 NA
HETATM    2  H   UNL     1      -6.514   3.275 -31.814  1.00  0.00     0.147 HD
ENDROOT
BRANCH   1   3
HETATM    3  C   UNL     1      -5.733   1.688 -32.825  1.00  0.00     0.165 C 
HETATM    4  C   UNL     1      -4.389   2.244 -32.363  1.00  0.00     0.038 C 
BRANCH   3   5
HETATM    5  C   UNL     1      -5.724   0.154 -32.678  1.00  0.00     0.241 C 
HETATM    6  N   UNL     1      -5.750  -0.503 -33.896  1.00  0.00    -0.326 N 
HETATM    7  H   UNL     1      -5.718   0.127 -34.693  1.00  0.00     0.169 HD
HETATM    8  O   UNL     1      -5.740  -0.374 -31.569  1.00  0.00    -0.271 OA
BRANCH   6   9
HETATM    9  C   UNL     1      -5.670  -1.883 -34.144  1.00  0.00     0.036 A 
HETATM   10  C   UNL     1      -4.531  -2.654 -33.896  1.00  0.00     0.053 A 
HETATM   11  C   UNL     1      -4.531  -4.015 -34.203  1.00  0.00     0.036 A 
HETATM   12 CL   UNL     1      -3.122  -4.959 -33.906  1.00  0.00    -0.084 Cl
HETATM   13  C   UNL     1      -5.657  -4.621 -34.756  1.00  0.00     0.024 A 
HETATM   14  C   UNL     1      -6.798  -3.861 -34.998  1.00  0.00     0.004 A 
HETATM   15  C   UNL     1      -6.804  -2.498 -34.690  1.00  0.00     0.029 A 
ENDBRANCH   6   9
ENDBRANCH   3   5
ENDBRANCH   1   3
BRANCH   1  16
HETATM   16  N   UNL     1      -8.031   2.409 -32.739  1.00  0.00    -0.290 N 
HETATM   17  C   UNL     1      -9.071   1.524 -32.464  1.00  0.00     0.245 C 
HETATM   18  O   UNL     1      -9.017   0.688 -31.563  1.00  0.00    -0.271 OA
HETATM   19  H   UNL     1      -8.000   2.819 -33.672  1.00  0.00     0.183 HD
BRANCH  17  20
HETATM   20  C   UNL     1     -10.251   1.637 -33.430  1.00  0.00     0.196 C 
BRANCH  20  21
HETATM   21  N   UNL     1     -11.314   2.435 -32.795  1.00  0.00    -0.282 NA
HETATM   22  H   UNL     1     -11.294   3.382 -33.201  1.00  0.00     0.128 HD
BRANCH  21  23
HETATM   23  C   UNL     1     -12.601   1.926 -33.135  1.00  0.00     0.042 A 
HETATM   24  C   UNL     1     -13.760   2.596 -32.681  1.00  0.00     0.089 A 
HETATM   25  C   UNL     1     -15.020   2.123 -33.045  1.00  0.00     0.038 A 
HETATM   26  C   UNL     1     -15.134   0.996 -33.864  1.00  0.00     0.003 A 
HETATM   27  C   UNL     1     -13.991   0.339 -34.321  1.00  0.00     0.002 A 
HETATM   28  C   UNL     1     -12.726   0.805 -33.962  1.00  0.00     0.026 A 
BRANCH  24  29
HETATM   29  O   UNL     1     -13.515   3.696 -31.894  1.00  0.00    -0.354 OA
HETATM   30  C   UNL     1     -14.645   4.438 -31.455  1.00  0.00     0.210 C 
ENDBRANCH  24  29
ENDBRANCH  21  23
ENDBRANCH  20  21
ENDBRANCH  17  20
ENDBRANCH   1  16
TORSDOF 8
ENDMDL
MODEL 8
REMARK VINA RESULT:      -7.2      2.010      3.133
REMARK  8 active torsions:
REMARK  status: ('A' for Active; 'I' for Inactive)
REMARK    1  A    between atoms: C_2  and  N_3 
REMARK    2  A    between atoms: C_2  and  C_17 
REMARK    3  A    between atoms: N_3  and  N_4 
REMARK       I    between atoms: N_4  and  C_5 
REMARK    4  A    between atoms: C_5  and  C_6 
REMARK    5  A    between atoms: C_6  and  N_7 
REMARK    6  A    between atoms: N_7  and  C_8 
REMARK    7  A    between atoms: C_9  and  O_10 
REMARK       I    between atoms: C_17  and  N_18 
REMARK    8  A    between atoms: N_18  and  C_19 
ROOT
HETATM    1  N   UNL     1      -5.520   3.054 -32.320  1.00  0.00    -0.225 NA
HETATM    2  H   UNL     1      -6.388   3.477 -32.682  1.00  0.00     0.147 HD
ENDROOT
BRANCH   1   3
HETATM    3  C   UNL     1      -4.400   3.738 -33.039  1.00  0.00     0.165 C 
HETATM    4  C   UNL     1      -4.907   5.074 -33.574  1.00  0.00     0.038 C 
BRANCH   3   5
HETATM    5  C   UNL     1      -3.204   3.989 -32.100  1.00  0.00     0.241 C 
HETATM    6  N   UNL     1      -2.798   5.313 -32.090  1.00  0.00    -0.326 N 
HETATM    7  H   UNL     1      -3.383   5.917 -32.660  1.00  0.00     0.169 HD
HETATM    8  O   UNL     1      -2.679   3.064 -31.487  1.00  0.00    -0.271 OA
BRANCH   6   9
HETATM    9  C   UNL     1      -1.804   5.912 -31.299  1.00  0.00     0.036 A 
HETATM   10  C   UNL     1      -2.065   6.612 -30.118  1.00  0.00     0.053 A 
HETATM   11  C   UNL     1      -1.016   7.204 -29.413  1.00  0.00     0.036 A 
HETATM   12 CL   UNL     1      -1.344   8.074 -27.964  1.00  0.00    -0.084 Cl
HETATM   13  C   UNL     1       0.296   7.106 -29.870  1.00  0.00     0.024 A 
HETATM   14  C   UNL     1       0.564   6.403 -31.042  1.00  0.00     0.004 A 
HETATM   15  C   UNL     1      -0.482   5.807 -31.751  1.00  0.00     0.029 A 
ENDBRANCH   6   9
ENDBRANCH   3   5
ENDBRANCH   1   3
BRANCH   1  16
HETATM   16  N   UNL     1      -5.583   1.672 -32.667  1.00  0.00    -0.290 N 
HETATM   17  C   UNL     1      -6.812   1.017 -32.624  1.00  0.00     0.245 C 
HETATM   18  O   UNL     1      -7.867   1.591 -32.356  1.00  0.00    -0.271 OA
HETATM   19  H   UNL     1      -4.745   1.102 -32.557  1.00  0.00     0.183 HD
BRANCH  17  20
HETATM   20  C   UNL     1      -6.717  -0.491 -32.864  1.00  0.00     0.196 C 
BRANCH  20  21
HETATM   21  N   UNL     1      -5.939  -0.731 -34.091  1.00  0.00    -0.282 NA
HETATM   22  H   UNL     1      -5.003  -0.319 -33.966  1.00  0.00     0.128 HD
BRANCH  21  23
HETATM   23  C   UNL     1      -5.696  -2.124 -34.272  1.00  0.00     0.042 A 
HETATM   24  C   UNL     1      -4.449  -2.670 -33.893  1.00  0.00     0.089 A 
HETATM   25  C   UNL     1      -4.222  -4.040 -34.033  1.00  0.00     0.038 A 
HETATM   26  C   UNL     1      -5.230  -4.867 -34.536  1.00  0.00     0.003 A 
HETATM   27  C   UNL     1      -6.465  -4.331 -34.901  1.00  0.00     0.002 A 
HETATM   28  C   UNL     1      -6.700  -2.962 -34.765  1.00  0.00     0.026 A 
BRANCH  24  29
HETATM   29  O   UNL     1      -3.547  -1.756 -33.402  1.00  0.00    -0.354 OA
HETATM   30  C   UNL     1      -3.238  -1.836 -32.017  1.00  0.00     0.210 C 
ENDBRANCH  24  29
ENDBRANCH  21  23
ENDBRANCH  20  21
ENDBRANCH  17  20
ENDBRANCH   1  16
TORSDOF 8
ENDMDL
MODEL 9
REMARK VINA RESULT:      -7.1      3.473      7.589
REMARK  8 active torsions:
REMARK  status: ('A' for Active; 'I' for Inactive)
REMARK    1  A    between atoms: C_2  and  N_3 
REMARK    2  A    between atoms: C_2  and  C_17 
REMARK    3  A    between atoms: N_3  and  N_4 
REMARK       I    between atoms: N_4  and  C_5 
REMARK    4  A    between atoms: C_5  and  C_6 
REMARK    5  A    between atoms: C_6  and  N_7 
REMARK    6  A    between atoms: N_7  and  C_8 
REMARK    7  A    between atoms: C_9  and  O_10 
REMARK       I    between atoms: C_17  and  N_18 
REMARK    8  A    between atoms: N_18  and  C_19 
ROOT
HETATM    1  N   UNL     1      -9.244   1.041 -31.174  1.00  0.00    -0.225 NA
HETATM    2  H   UNL     1      -8.555   0.274 -31.126  1.00  0.00     0.147 HD
ENDROOT
BRANCH   1   3
HETATM    3  C   UNL     1      -9.715   1.081 -32.594  1.00  0.00     0.165 C 
HETATM    4  C   UNL     1      -9.968   2.534 -32.983  1.00  0.00     0.038 C 
BRANCH   3   5
HETATM    5  C   UNL     1      -8.667   0.476 -33.547  1.00  0.00     0.241 C 
HETATM    6  N   UNL     1      -7.831  -0.433 -32.921  1.00  0.00    -0.326 N 
HETATM    7  H   UNL     1      -8.074  -0.597 -31.947  1.00  0.00     0.169 HD
HETATM    8  O   UNL     1      -8.597   0.836 -34.719  1.00  0.00    -0.271 OA
BRANCH   6   9
HETATM    9  C   UNL     1      -6.826  -1.230 -33.492  1.00  0.00     0.036 A 
HETATM   10  C   UNL     1      -7.075  -2.392 -34.226  1.00  0.00     0.053 A 
HETATM   11  C   UNL     1      -6.010  -3.140 -34.730  1.00  0.00     0.036 A 
HETATM   12 CL   UNL     1      -6.322  -4.577 -35.625  1.00  0.00    -0.084 Cl
HETATM   13  C   UNL     1      -4.693  -2.741 -34.512  1.00  0.00     0.024 A 
HETATM   14  C   UNL     1      -4.437  -1.579 -33.788  1.00  0.00     0.004 A 
HETATM   15  C   UNL     1      -5.500  -0.826 -33.283  1.00  0.00     0.029 A 
ENDBRANCH   6   9
ENDBRANCH   3   5
ENDBRANCH   1   3
BRANCH   1  16
HETATM   16  N   UNL     1      -8.531   2.229 -30.836  1.00  0.00    -0.290 N 
HETATM   17  C   UNL     1      -7.172   2.145 -30.541  1.00  0.00     0.245 C 
HETATM   18  O   UNL     1      -6.535   1.095 -30.616  1.00  0.00    -0.271 OA
HETATM   19  H   UNL     1      -9.049   3.012 -30.439  1.00  0.00     0.183 HD
BRANCH  17  20
HETATM   20  C   UNL     1      -6.565   3.458 -30.044  1.00  0.00     0.196 C 
BRANCH  20  21
HETATM   21  N   UNL     1      -6.314   4.336 -31.199  1.00  0.00    -0.282 NA
HETATM   22  H   UNL     1      -6.547   5.302 -30.929  1.00  0.00     0.128 HD
BRANCH  21  23
HETATM   23  C   UNL     1      -4.923   4.377 -31.511  1.00  0.00     0.042 A 
HETATM   24  C   UNL     1      -4.107   5.375 -30.932  1.00  0.00     0.089 A 
HETATM   25  C   UNL     1      -2.739   5.394 -31.204  1.00  0.00     0.038 A 
HETATM   26  C   UNL     1      -2.180   4.422 -32.039  1.00  0.00     0.003 A 
HETATM   27  C   UNL     1      -2.983   3.431 -32.604  1.00  0.00     0.002 A 
HETATM   28  C   UNL     1      -4.352   3.405 -32.337  1.00  0.00     0.026 A 
BRANCH  24  29
HETATM   29  O   UNL     1      -4.773   6.263 -30.122  1.00  0.00    -0.354 OA
HETATM   30  C   UNL     1      -3.989   7.255 -29.472  1.00  0.00     0.210 C 
ENDBRANCH  24  29
ENDBRANCH  21  23
ENDBRANCH  20  21
ENDBRANCH  17  20
ENDBRANCH   1  16
TORSDOF 8
ENDMDL
MODEL 10
REMARK VINA RESULT:      -7.1      3.286      7.930
REMARK  8 active torsions:
REMARK  status: ('A' for Active; 'I' for Inactive)
REMARK    1  A    between atoms: C_2  and  N_3 
REMARK    2  A    between atoms: C_2  and  C_17 
REMARK    3  A    between atoms: N_3  and  N_4 
REMARK       I    between atoms: N_4  and  C_5 
REMARK    4  A    between atoms: C_5  and  C_6 
REMARK    5  A    between atoms: C_6  and  N_7 
REMARK    6  A    between atoms: N_7  and  C_8 
REMARK    7  A    between atoms: C_9  and  O_10 
REMARK       I    between atoms: C_17  and  N_18 
REMARK    8  A    between atoms: N_18  and  C_19 
ROOT
HETATM    1  N   UNL     1      -6.971   3.074 -33.119  1.00  0.00    -0.225 NA
HETATM    2  H   UNL     1      -7.551   3.808 -33.555  1.00  0.00     0.147 HD
ENDROOT
BRANCH   1   3
HETATM    3  C   UNL     1      -7.910   2.229 -32.319  1.00  0.00     0.165 C 
HETATM    4  C   UNL     1      -9.323   2.420 -32.862  1.00  0.00     0.038 C 
BRANCH   3   5
HETATM    5  C   UNL     1      -7.531   0.738 -32.405  1.00  0.00     0.241 C 
HETATM    6  N   UNL     1      -6.686   0.459 -33.466  1.00  0.00    -0.326 N 
HETATM    7  H   UNL     1      -6.409   1.287 -33.986  1.00  0.00     0.169 HD
HETATM    8  O   UNL     1      -7.998  -0.079 -31.615  1.00  0.00    -0.271 OA
BRANCH   6   9
HETATM    9  C   UNL     1      -6.079  -0.763 -33.798  1.00  0.00     0.036 A 
HETATM   10  C   UNL     1      -6.761  -1.843 -34.363  1.00  0.00     0.053 A 
HETATM   11  C   UNL     1      -6.082  -3.033 -34.631  1.00  0.00     0.036 A 
HETATM   12 CL   UNL     1      -6.929  -4.365 -35.318  1.00  0.00    -0.084 Cl
HETATM   13  C   UNL     1      -4.725  -3.160 -34.343  1.00  0.00     0.024 A 
HETATM   14  C   UNL     1      -4.037  -2.084 -33.786  1.00  0.00     0.004 A 
HETATM   15  C   UNL     1      -4.712  -0.891 -33.518  1.00  0.00     0.029 A 
ENDBRANCH   6   9
ENDBRANCH   3   5
ENDBRANCH   1   3
BRANCH   1  16
HETATM   16  N   UNL     1      -6.047   3.756 -32.273  1.00  0.00    -0.290 N 
HETATM   17  C   UNL     1      -4.736   3.291 -32.185  1.00  0.00     0.245 C 
HETATM   18  O   UNL     1      -4.315   2.348 -32.854  1.00  0.00    -0.271 OA
HETATM   19  H   UNL     1      -6.410   4.285 -31.481  1.00  0.00     0.183 HD
BRANCH  17  20
HETATM   20  C   UNL     1      -3.895   4.010 -31.129  1.00  0.00     0.196 C 
BRANCH  20  21
HETATM   21  N   UNL     1      -2.475   3.693 -31.353  1.00  0.00    -0.282 NA
HETATM   22  H   UNL     1      -2.394   3.178 -32.242  1.00  0.00     0.128 HD
BRANCH  21  23
HETATM   23  C   UNL     1      -1.716   4.882 -31.559  1.00  0.00     0.042 A 
HETATM   24  C   UNL     1      -1.487   5.347 -32.873  1.00  0.00     0.089 A 
HETATM   25  C   UNL     1      -0.778   6.531 -33.075  1.00  0.00     0.038 A 
HETATM   26  C   UNL     1      -0.306   7.258 -31.979  1.00  0.00     0.003 A 
HETATM   27  C   UNL     1      -0.540   6.805 -30.680  1.00  0.00     0.002 A 
HETATM   28  C   UNL     1      -1.247   5.621 -30.468  1.00  0.00     0.026 A 
BRANCH  24  29
HETATM   29  O   UNL     1      -2.012   4.550 -33.863  1.00  0.00    -0.354 OA
HETATM   30  C   UNL     1      -2.791   5.193 -34.863  1.00  0.00     0.210 C 
ENDBRANCH  24  29
ENDBRANCH  21  23
ENDBRANCH  20  21
ENDBRANCH  17  20
ENDBRANCH   1  16
TORSDOF 8
ENDMDL
