MODEL 1
REMARK VINA RESULT:      -8.4      0.000      0.000
REMARK  7 active torsions:
REMARK  status: ('A' for Active; 'I' for Inactive)
REMARK    1  A    between atoms: O_2  and  C_3 
REMARK    2  A    between atoms: C_6  and  C_7 
REMARK    3  A    between atoms: C_7  and  C_8 
REMARK       I    between atoms: C_8  and  N_9 
REMARK    4  A    between atoms: N_9  and  C_10 
REMARK    5  A    between atoms: C_10  and  C_11 
REMARK    6  A    between atoms: C_14  and  N_15 
REMARK       I    between atoms: N_15  and  C_16 
REMARK    7  A    between atoms: C_16  and  C_17 
ROOT
HETATM    1  C   UNL     1      -6.885   2.220 -31.459  1.00  0.00    -0.040 A 
HETATM    2  C   UNL     1      -5.751   1.452 -31.164  1.00  0.00     0.011 A 
HETATM    3  C   UNL     1      -4.495   2.054 -31.004  1.00  0.00     0.030 A 
HETATM    4  C   UNL     1      -4.346   3.432 -31.157  1.00  0.00     0.035 A 
HETATM    5  C   UNL     1      -5.473   4.202 -31.465  1.00  0.00     0.030 A 
HETATM    6  C   UNL     1      -6.728   3.603 -31.613  1.00  0.00     0.011 A 
ENDROOT
BRANCH   1   7
HETATM    7  C   UNL     1      -8.239   1.593 -31.679  1.00  0.00     0.161 C 
BRANCH   7   8
HETATM    8  N   UNL     1      -8.228   0.563 -32.696  1.00  0.00    -0.357 N 
HETATM    9  C   UNL     1      -8.177   0.889 -34.034  1.00  0.00     0.222 C 
HETATM   10  O   UNL     1      -8.287   2.040 -34.448  1.00  0.00    -0.273 OA
HETATM   11  H   UNL     1      -7.966  -0.372 -32.418  1.00  0.00     0.162 HD
BRANCH   9  12
HETATM   12  C   UNL     1      -7.938  -0.290 -34.965  1.00  0.00     0.141 C 
BRANCH  12  13
HETATM   13  C   UNL     1      -6.760  -1.173 -34.607  1.00  0.00    -0.049 A 
HETATM   14  C   UNL     1      -5.541  -0.675 -34.126  1.00  0.00     0.010 A 
HETATM   15  C   UNL     1      -4.470  -1.532 -33.842  1.00  0.00     0.037 A 
HETATM   16  C   UNL     1      -4.594  -2.905 -34.043  1.00  0.00     0.068 A 
HETATM   17  C   UNL     1      -5.801  -3.410 -34.527  1.00  0.00     0.037 A 
HETATM   18  C   UNL     1      -6.872  -2.557 -34.808  1.00  0.00     0.010 A 
BRANCH  16  19
HETATM   19  O   UNL     1      -3.626  -3.843 -33.815  1.00  0.00    -0.356 OA
HETATM   20  C   UNL     1      -4.036  -5.204 -33.831  1.00  0.00     0.210 C 
ENDBRANCH  16  19
ENDBRANCH  12  13
ENDBRANCH   9  12
ENDBRANCH   7   8
ENDBRANCH   1   7
BRANCH   4  21
HETATM   21  N   UNL     1      -3.122   4.114 -31.032  1.00  0.00    -0.321 N 
HETATM   22  C   UNL     1      -2.195   4.410 -32.016  1.00  0.00     0.279 C 
HETATM   23  O   UNL     1      -2.286   4.099 -33.199  1.00  0.00    -0.265 OA
HETATM   24  H   UNL     1      -2.867   4.437 -30.105  1.00  0.00     0.169 HD
BRANCH  22  25
HETATM   25  C   UNL     1      -1.055   5.148 -31.498  1.00  0.00     0.142 A 
HETATM   26  O   UNL     1      -0.301   4.603 -30.487  1.00  0.00    -0.317 OA
HETATM   27  C   UNL     1       0.683   5.494 -30.197  1.00  0.00     0.143 A 
HETATM   28  C   UNL     1       0.584   6.603 -31.004  1.00  0.00     0.027 A 
HETATM   29  C   UNL     1      -0.536   6.382 -31.842  1.00  0.00     0.045 A 
ENDBRANCH  22  25
ENDBRANCH   4  21
TORSDOF 7
ENDMDL
MODEL 2
REMARK VINA RESULT:      -8.2      1.282      1.475
REMARK  7 active torsions:
REMARK  status: ('A' for Active; 'I' for Inactive)
REMARK    1  A    between atoms: O_2  and  C_3 
REMARK    2  A    between atoms: C_6  and  C_7 
REMARK    3  A    between atoms: C_7  and  C_8 
REMARK       I    between atoms: C_8  and  N_9 
REMARK    4  A    between atoms: N_9  and  C_10 
REMARK    5  A    between atoms: C_10  and  C_11 
REMARK    6  A    between atoms: C_14  and  N_15 
REMARK       I    between atoms: N_15  and  C_16 
REMARK    7  A    between atoms: C_16  and  C_17 
ROOT
HETATM    1  C   UNL     1      -7.689   3.384 -30.533  1.00  0.00    -0.040 A 
HETATM    2  C   UNL     1      -6.673   2.565 -30.023  1.00  0.00     0.011 A 
HETATM    3  C   UNL     1      -5.334   2.978 -30.050  1.00  0.00     0.030 A 
HETATM    4  C   UNL     1      -4.983   4.207 -30.605  1.00  0.00     0.035 A 
HETATM    5  C   UNL     1      -5.991   5.024 -31.128  1.00  0.00     0.030 A 
HETATM    6  C   UNL     1      -7.329   4.618 -31.090  1.00  0.00     0.011 A 
ENDROOT
BRANCH   1   7
HETATM    7  C   UNL     1      -9.132   2.947 -30.556  1.00  0.00     0.161 C 
BRANCH   7   8
HETATM    8  N   UNL     1      -9.322   1.656 -31.181  1.00  0.00    -0.357 N 
HETATM    9  C   UNL     1      -9.222   1.509 -32.548  1.00  0.00     0.222 C 
HETATM   10  O   UNL     1      -9.117   2.459 -33.318  1.00  0.00    -0.273 OA
HETATM   11  H   UNL     1      -9.239   0.833 -30.601  1.00  0.00     0.162 HD
BRANCH   9  12
HETATM   12  C   UNL     1      -9.215   0.066 -33.031  1.00  0.00     0.141 C 
BRANCH  12  13
HETATM   13  C   UNL     1      -7.845  -0.549 -33.225  1.00  0.00    -0.049 A 
HETATM   14  C   UNL     1      -6.762  -0.302 -32.370  1.00  0.00     0.010 A 
HETATM   15  C   UNL     1      -5.503  -0.869 -32.613  1.00  0.00     0.037 A 
HETATM   16  C   UNL     1      -5.302  -1.686 -33.723  1.00  0.00     0.068 A 
HETATM   17  C   UNL     1      -6.372  -1.933 -34.583  1.00  0.00     0.037 A 
HETATM   18  C   UNL     1      -7.629  -1.371 -34.341  1.00  0.00     0.010 A 
BRANCH  16  19
HETATM   19  O   UNL     1      -4.126  -2.289 -34.076  1.00  0.00    -0.356 OA
HETATM   20  C   UNL     1      -4.156  -3.700 -34.241  1.00  0.00     0.210 C 
ENDBRANCH  16  19
ENDBRANCH  12  13
ENDBRANCH   9  12
ENDBRANCH   7   8
ENDBRANCH   1   7
BRANCH   4  21
HETATM   21  N   UNL     1      -3.663   4.690 -30.689  1.00  0.00    -0.321 N 
HETATM   22  C   UNL     1      -2.688   4.377 -31.619  1.00  0.00     0.279 C 
HETATM   23  O   UNL     1      -2.815   3.585 -32.548  1.00  0.00    -0.265 OA
HETATM   24  H   UNL     1      -3.370   5.353 -29.981  1.00  0.00     0.169 HD
BRANCH  22  25
HETATM   25  C   UNL     1      -1.448   5.097 -31.384  1.00  0.00     0.142 A 
HETATM   26  O   UNL     1      -0.451   4.502 -30.649  1.00  0.00    -0.317 OA
HETATM   27  C   UNL     1       0.578   5.386 -30.581  1.00  0.00     0.143 A 
HETATM   28  C   UNL     1       0.269   6.540 -31.261  1.00  0.00     0.027 A 
HETATM   29  C   UNL     1      -1.036   6.356 -31.779  1.00  0.00     0.045 A 
ENDBRANCH  22  25
ENDBRANCH   4  21
TORSDOF 7
ENDMDL
MODEL 3
REMARK VINA RESULT:      -7.7      2.281      9.728
REMARK  7 active torsions:
REMARK  status: ('A' for Active; 'I' for Inactive)
REMARK    1  A    between atoms: O_2  and  C_3 
REMARK    2  A    between atoms: C_6  and  C_7 
REMARK    3  A    between atoms: C_7  and  C_8 
REMARK       I    between atoms: C_8  and  N_9 
REMARK    4  A    between atoms: N_9  and  C_10 
REMARK    5  A    between atoms: C_10  and  C_11 
REMARK    6  A    between atoms: C_14  and  N_15 
REMARK       I    between atoms: N_15  and  C_16 
REMARK    7  A    between atoms: C_16  and  C_17 
ROOT
HETATM    1  C   UNL     1      -4.158   2.978 -31.849  1.00  0.00    -0.040 A 
HETATM    2  C   UNL     1      -5.209   2.833 -32.763  1.00  0.00     0.011 A 
HETATM    3  C   UNL     1      -5.519   1.580 -33.310  1.00  0.00     0.030 A 
HETATM    4  C   UNL     1      -4.772   0.453 -32.968  1.00  0.00     0.035 A 
HETATM    5  C   UNL     1      -3.713   0.595 -32.065  1.00  0.00     0.030 A 
HETATM    6  C   UNL     1      -3.410   1.843 -31.511  1.00  0.00     0.011 A 
ENDROOT
BRANCH   1   7
HETATM    7  C   UNL     1      -3.774   4.322 -31.279  1.00  0.00     0.161 C 
BRANCH   7   8
HETATM    8  N   UNL     1      -2.356   4.440 -31.015  1.00  0.00    -0.357 N 
HETATM    9  C   UNL     1      -1.510   5.019 -31.936  1.00  0.00     0.222 C 
HETATM   10  O   UNL     1      -1.864   5.328 -33.071  1.00  0.00    -0.273 OA
HETATM   11  H   UNL     1      -2.047   4.366 -30.056  1.00  0.00     0.162 HD
BRANCH   9  12
HETATM   12  C   UNL     1      -0.101   5.281 -31.425  1.00  0.00     0.141 C 
BRANCH  12  13
HETATM   13  C   UNL     1      -0.013   6.093 -30.148  1.00  0.00    -0.049 A 
HETATM   14  C   UNL     1      -0.467   7.415 -30.044  1.00  0.00     0.010 A 
HETATM   15  C   UNL     1      -0.331   8.135 -28.849  1.00  0.00     0.037 A 
HETATM   16  C   UNL     1       0.273   7.549 -27.739  1.00  0.00     0.068 A 
HETATM   17  C   UNL     1       0.734   6.236 -27.835  1.00  0.00     0.037 A 
HETATM   18  C   UNL     1       0.596   5.515 -29.025  1.00  0.00     0.010 A 
BRANCH  16  19
HETATM   19  O   UNL     1       0.475   8.144 -26.525  1.00  0.00    -0.356 OA
HETATM   20  C   UNL     1       1.775   8.029 -25.963  1.00  0.00     0.210 C 
ENDBRANCH  16  19
ENDBRANCH  12  13
ENDBRANCH   9  12
ENDBRANCH   7   8
ENDBRANCH   1   7
BRANCH   4  21
HETATM   21  N   UNL     1      -5.004  -0.836 -33.482  1.00  0.00    -0.321 N 
HETATM   22  C   UNL     1      -6.207  -1.505 -33.623  1.00  0.00     0.279 C 
HETATM   23  O   UNL     1      -7.307  -1.073 -33.295  1.00  0.00    -0.265 OA
HETATM   24  H   UNL     1      -4.194  -1.360 -33.794  1.00  0.00     0.169 HD
BRANCH  22  25
HETATM   25  C   UNL     1      -6.041  -2.822 -34.215  1.00  0.00     0.142 A 
HETATM   26  O   UNL     1      -4.831  -3.462 -34.109  1.00  0.00    -0.317 OA
HETATM   27  C   UNL     1      -4.953  -4.656 -34.747  1.00  0.00     0.143 A 
HETATM   28  C   UNL     1      -6.220  -4.803 -35.259  1.00  0.00     0.027 A 
HETATM   29  C   UNL     1      -6.922  -3.622 -34.918  1.00  0.00     0.045 A 
ENDBRANCH  22  25
ENDBRANCH   4  21
TORSDOF 7
ENDMDL
MODEL 4
REMARK VINA RESULT:      -7.5      1.951      2.573
REMARK  7 active torsions:
REMARK  status: ('A' for Active; 'I' for Inactive)
REMARK    1  A    between atoms: O_2  and  C_3 
REMARK    2  A    between atoms: C_6  and  C_7 
REMARK    3  A    between atoms: C_7  and  C_8 
REMARK       I    between atoms: C_8  and  N_9 
REMARK    4  A    between atoms: N_9  and  C_10 
REMARK    5  A    between atoms: C_10  and  C_11 
REMARK    6  A    between atoms: C_14  and  N_15 
REMARK       I    between atoms: N_15  and  C_16 
REMARK    7  A    between atoms: C_16  and  C_17 
ROOT
HETATM    1  C   UNL     1      -4.756   4.249 -33.076  1.00  0.00    -0.040 A 
HETATM    2  C   UNL     1      -3.660   3.448 -32.731  1.00  0.00     0.011 A 
HETATM    3  C   UNL     1      -2.712   3.889 -31.797  1.00  0.00     0.030 A 
HETATM    4  C   UNL     1      -2.831   5.147 -31.207  1.00  0.00     0.035 A 
HETATM    5  C   UNL     1      -3.917   5.956 -31.558  1.00  0.00     0.030 A 
HETATM    6  C   UNL     1      -4.869   5.512 -32.481  1.00  0.00     0.011 A 
ENDROOT
BRANCH   1   7
HETATM    7  C   UNL     1      -5.766   3.818 -34.110  1.00  0.00     0.161 C 
BRANCH   7   8
HETATM    8  N   UNL     1      -6.216   2.455 -33.928  1.00  0.00    -0.357 N 
HETATM    9  C   UNL     1      -7.062   2.121 -32.893  1.00  0.00     0.222 C 
HETATM   10  O   UNL     1      -7.363   2.902 -31.994  1.00  0.00    -0.273 OA
HETATM   11  H   UNL     1      -6.145   1.825 -34.715  1.00  0.00     0.162 HD
BRANCH   9  12
HETATM   12  C   UNL     1      -7.629   0.711 -32.968  1.00  0.00     0.141 C 
BRANCH  12  13
HETATM   13  C   UNL     1      -6.629  -0.375 -33.309  1.00  0.00    -0.049 A 
HETATM   14  C   UNL     1      -5.417  -0.548 -32.627  1.00  0.00     0.010 A 
HETATM   15  C   UNL     1      -4.510  -1.547 -33.004  1.00  0.00     0.037 A 
HETATM   16  C   UNL     1      -4.793  -2.386 -34.079  1.00  0.00     0.068 A 
HETATM   17  C   UNL     1      -5.995  -2.218 -34.769  1.00  0.00     0.037 A 
HETATM   18  C   UNL     1      -6.902  -1.224 -34.392  1.00  0.00     0.010 A 
BRANCH  16  19
HETATM   19  O   UNL     1      -3.992  -3.388 -34.552  1.00  0.00    -0.356 OA
HETATM   20  C   UNL     1      -4.188  -4.681 -33.994  1.00  0.00     0.210 C 
ENDBRANCH  16  19
ENDBRANCH  12  13
ENDBRANCH   9  12
ENDBRANCH   7   8
ENDBRANCH   1   7
BRANCH   4  21
HETATM   21  N   UNL     1      -1.917   5.674 -30.275  1.00  0.00    -0.321 N 
HETATM   22  C   UNL     1      -0.789   6.439 -30.512  1.00  0.00     0.279 C 
HETATM   23  O   UNL     1      -0.377   6.780 -31.616  1.00  0.00    -0.265 OA
HETATM   24  H   UNL     1      -2.091   5.476 -29.296  1.00  0.00     0.169 HD
BRANCH  22  25
HETATM   25  C   UNL     1      -0.105   6.811 -29.285  1.00  0.00     0.142 A 
HETATM   26  O   UNL     1      -0.320   6.078 -28.143  1.00  0.00    -0.317 OA
HETATM   27  C   UNL     1       0.429   6.640 -27.160  1.00  0.00     0.143 A 
HETATM   28  C   UNL     1       1.129   7.720 -27.643  1.00  0.00     0.027 A 
HETATM   29  C   UNL     1       0.786   7.832 -29.012  1.00  0.00     0.045 A 
ENDBRANCH  22  25
ENDBRANCH   4  21
TORSDOF 7
ENDMDL
MODEL 5
REMARK VINA RESULT:      -7.5      7.517     14.107
REMARK  7 active torsions:
REMARK  status: ('A' for Active; 'I' for Inactive)
REMARK    1  A    between atoms: O_2  and  C_3 
REMARK    2  A    between atoms: C_6  and  C_7 
REMARK    3  A    between atoms: C_7  and  C_8 
REMARK       I    between atoms: C_8  and  N_9 
REMARK    4  A    between atoms: N_9  and  C_10 
REMARK    5  A    between atoms: C_10  and  C_11 
REMARK    6  A    between atoms: C_14  and  N_15 
REMARK       I    between atoms: N_15  and  C_16 
REMARK    7  A    between atoms: C_16  and  C_17 
ROOT
HETATM    1  C   UNL     1       1.507   8.183 -26.720  1.00  0.00    -0.040 A 
HETATM    2  C   UNL     1       0.721   7.093 -26.322  1.00  0.00     0.011 A 
HETATM    3  C   UNL     1      -0.035   6.373 -27.256  1.00  0.00     0.030 A 
HETATM    4  C   UNL     1      -0.036   6.739 -28.602  1.00  0.00     0.035 A 
HETATM    5  C   UNL     1       0.737   7.835 -29.002  1.00  0.00     0.030 A 
HETATM    6  C   UNL     1       1.501   8.547 -28.072  1.00  0.00     0.011 A 
ENDROOT
BRANCH   1   7
HETATM    7  C   UNL     1       2.296   9.003 -25.729  1.00  0.00     0.161 C 
BRANCH   7   8
HETATM    8  N   UNL     1       2.591   8.285 -24.508  1.00  0.00    -0.357 N 
HETATM    9  C   UNL     1       3.359   8.858 -23.517  1.00  0.00     0.222 C 
HETATM   10  O   UNL     1       3.951   9.925 -23.661  1.00  0.00    -0.273 OA
HETATM   11  H   UNL     1       2.004   7.499 -24.268  1.00  0.00     0.162 HD
BRANCH   9  12
HETATM   12  C   UNL     1       3.389   8.082 -22.210  1.00  0.00     0.141 C 
BRANCH  12  13
HETATM   13  C   UNL     1       4.768   7.813 -21.644  1.00  0.00    -0.049 A 
HETATM   14  C   UNL     1       5.245   8.402 -20.465  1.00  0.00     0.010 A 
HETATM   15  C   UNL     1       6.543   8.147 -20.002  1.00  0.00     0.037 A 
HETATM   16  C   UNL     1       7.392   7.305 -20.715  1.00  0.00     0.068 A 
HETATM   17  C   UNL     1       6.929   6.718 -21.893  1.00  0.00     0.037 A 
HETATM   18  C   UNL     1       5.633   6.969 -22.355  1.00  0.00     0.010 A 
BRANCH  16  19
HETATM   19  O   UNL     1       8.678   6.983 -20.377  1.00  0.00    -0.356 OA
HETATM   20  C   UNL     1       8.852   5.870 -19.511  1.00  0.00     0.210 C 
ENDBRANCH  16  19
ENDBRANCH  12  13
ENDBRANCH   9  12
ENDBRANCH   7   8
ENDBRANCH   1   7
BRANCH   4  21
HETATM   21  N   UNL     1      -0.779   6.083 -29.600  1.00  0.00    -0.321 N 
HETATM   22  C   UNL     1      -0.354   5.121 -30.499  1.00  0.00     0.279 C 
HETATM   23  O   UNL     1       0.787   4.679 -30.586  1.00  0.00    -0.265 OA
HETATM   24  H   UNL     1      -1.756   6.338 -29.690  1.00  0.00     0.169 HD
BRANCH  22  25
HETATM   25  C   UNL     1      -1.425   4.667 -31.371  1.00  0.00     0.142 A 
HETATM   26  O   UNL     1      -2.066   3.485 -31.093  1.00  0.00    -0.317 OA
HETATM   27  C   UNL     1      -3.006   3.303 -32.057  1.00  0.00     0.143 A 
HETATM   28  C   UNL     1      -2.990   4.347 -32.951  1.00  0.00     0.027 A 
HETATM   29  C   UNL     1      -1.971   5.227 -32.511  1.00  0.00     0.045 A 
ENDBRANCH  22  25
ENDBRANCH   4  21
TORSDOF 7
ENDMDL
MODEL 6
REMARK VINA RESULT:      -7.2      1.933      8.141
REMARK  7 active torsions:
REMARK  status: ('A' for Active; 'I' for Inactive)
REMARK    1  A    between atoms: O_2  and  C_3 
REMARK    2  A    between atoms: C_6  and  C_7 
REMARK    3  A    between atoms: C_7  and  C_8 
REMARK       I    between atoms: C_8  and  N_9 
REMARK    4  A    between atoms: N_9  and  C_10 
REMARK    5  A    between atoms: C_10  and  C_11 
REMARK    6  A    between atoms: C_14  and  N_15 
REMARK       I    between atoms: N_15  and  C_16 
REMARK    7  A    between atoms: C_16  and  C_17 
ROOT
HETATM    1  C   UNL     1      -6.599   2.776 -30.954  1.00  0.00    -0.040 A 
HETATM    2  C   UNL     1      -6.332   1.626 -30.199  1.00  0.00     0.011 A 
HETATM    3  C   UNL     1      -6.223   0.372 -30.815  1.00  0.00     0.030 A 
HETATM    4  C   UNL     1      -6.399   0.239 -32.191  1.00  0.00     0.035 A 
HETATM    5  C   UNL     1      -6.679   1.382 -32.947  1.00  0.00     0.030 A 
HETATM    6  C   UNL     1      -6.776   2.636 -32.336  1.00  0.00     0.011 A 
ENDROOT
BRANCH   1   7
HETATM    7  C   UNL     1      -6.765   4.132 -30.313  1.00  0.00     0.161 C 
BRANCH   7   8
HETATM    8  N   UNL     1      -5.660   5.025 -30.584  1.00  0.00    -0.357 N 
HETATM    9  C   UNL     1      -5.772   6.025 -31.526  1.00  0.00     0.222 C 
HETATM   10  O   UNL     1      -6.734   6.128 -32.283  1.00  0.00    -0.273 OA
HETATM   11  H   UNL     1      -4.929   5.097 -29.890  1.00  0.00     0.162 HD
BRANCH   9  12
HETATM   12  C   UNL     1      -4.622   7.020 -31.534  1.00  0.00     0.141 C 
BRANCH  12  13
HETATM   13  C   UNL     1      -3.235   6.412 -31.487  1.00  0.00    -0.049 A 
HETATM   14  C   UNL     1      -2.747   5.533 -32.464  1.00  0.00     0.010 A 
HETATM   15  C   UNL     1      -1.468   4.970 -32.356  1.00  0.00     0.037 A 
HETATM   16  C   UNL     1      -0.657   5.268 -31.264  1.00  0.00     0.068 A 
HETATM   17  C   UNL     1      -1.136   6.137 -30.283  1.00  0.00     0.037 A 
HETATM   18  C   UNL     1      -2.410   6.703 -30.391  1.00  0.00     0.010 A 
BRANCH  16  19
HETATM   19  O   UNL     1       0.600   4.780 -31.037  1.00  0.00    -0.356 OA
HETATM   20  C   UNL     1       1.020   4.697 -29.682  1.00  0.00     0.210 C 
ENDBRANCH  16  19
ENDBRANCH  12  13
ENDBRANCH   9  12
ENDBRANCH   7   8
ENDBRANCH   1   7
BRANCH   4  21
HETATM   21  N   UNL     1      -6.324  -0.983 -32.885  1.00  0.00    -0.321 N 
HETATM   22  C   UNL     1      -5.281  -1.481 -33.645  1.00  0.00     0.279 C 
HETATM   23  O   UNL     1      -4.218  -0.909 -33.860  1.00  0.00    -0.265 OA
HETATM   24  H   UNL     1      -7.134  -1.591 -32.835  1.00  0.00     0.169 HD
BRANCH  22  25
HETATM   25  C   UNL     1      -5.575  -2.795 -34.193  1.00  0.00     0.142 A 
HETATM   26  O   UNL     1      -4.621  -3.781 -34.128  1.00  0.00    -0.317 OA
HETATM   27  C   UNL     1      -5.151  -4.888 -34.711  1.00  0.00     0.143 A 
HETATM   28  C   UNL     1      -6.430  -4.640 -35.147  1.00  0.00     0.027 A 
HETATM   29  C   UNL     1      -6.705  -3.291 -34.815  1.00  0.00     0.045 A 
ENDBRANCH  22  25
ENDBRANCH   4  21
TORSDOF 7
ENDMDL
MODEL 7
REMARK VINA RESULT:      -7.0      2.647      2.856
REMARK  7 active torsions:
REMARK  status: ('A' for Active; 'I' for Inactive)
REMARK    1  A    between atoms: O_2  and  C_3 
REMARK    2  A    between atoms: C_6  and  C_7 
REMARK    3  A    between atoms: C_7  and  C_8 
REMARK       I    between atoms: C_8  and  N_9 
REMARK    4  A    between atoms: N_9  and  C_10 
REMARK    5  A    between atoms: C_10  and  C_11 
REMARK    6  A    between atoms: C_14  and  N_15 
REMARK       I    between atoms: N_15  and  C_16 
REMARK    7  A    between atoms: C_16  and  C_17 
ROOT
HETATM    1  C   UNL     1      -8.037   1.894 -31.162  1.00  0.00    -0.040 A 
HETATM    2  C   UNL     1      -6.768   1.500 -30.719  1.00  0.00     0.011 A 
HETATM    3  C   UNL     1      -5.863   2.438 -30.203  1.00  0.00     0.030 A 
HETATM    4  C   UNL     1      -6.202   3.790 -30.140  1.00  0.00     0.035 A 
HETATM    5  C   UNL     1      -7.463   4.190 -30.593  1.00  0.00     0.030 A 
HETATM    6  C   UNL     1      -8.371   3.253 -31.097  1.00  0.00     0.011 A 
ENDROOT
BRANCH   1   7
HETATM    7  C   UNL     1      -9.014   0.913 -31.762  1.00  0.00     0.161 C 
BRANCH   7   8
HETATM    8  N   UNL     1      -8.475   0.202 -32.901  1.00  0.00    -0.357 N 
HETATM    9  C   UNL     1      -8.404   0.799 -34.141  1.00  0.00     0.222 C 
HETATM   10  O   UNL     1      -8.916   1.888 -34.391  1.00  0.00    -0.273 OA
HETATM   11  H   UNL     1      -7.895  -0.606 -32.722  1.00  0.00     0.162 HD
BRANCH   9  12
HETATM   12  C   UNL     1      -7.607   0.020 -35.176  1.00  0.00     0.141 C 
BRANCH  12  13
HETATM   13  C   UNL     1      -6.498  -0.851 -34.622  1.00  0.00    -0.049 A 
HETATM   14  C   UNL     1      -5.436  -0.350 -33.856  1.00  0.00     0.010 A 
HETATM   15  C   UNL     1      -4.415  -1.193 -33.396  1.00  0.00     0.037 A 
HETATM   16  C   UNL     1      -4.431  -2.551 -33.703  1.00  0.00     0.068 A 
HETATM   17  C   UNL     1      -5.480  -3.058 -34.470  1.00  0.00     0.037 A 
HETATM   18  C   UNL     1      -6.502  -2.220 -34.927  1.00  0.00     0.010 A 
BRANCH  16  19
HETATM   19  O   UNL     1      -3.494  -3.473 -33.325  1.00  0.00    -0.356 OA
HETATM   20  C   UNL     1      -3.790  -4.835 -33.601  1.00  0.00     0.210 C 
ENDBRANCH  16  19
ENDBRANCH  12  13
ENDBRANCH   9  12
ENDBRANCH   7   8
ENDBRANCH   1   7
BRANCH   4  21
HETATM   21  N   UNL     1      -5.349   4.797 -29.654  1.00  0.00    -0.321 N 
HETATM   22  C   UNL     1      -5.504   5.593 -28.533  1.00  0.00     0.279 C 
HETATM   23  O   UNL     1      -6.456   5.560 -27.760  1.00  0.00    -0.265 OA
HETATM   24  H   UNL     1      -4.504   4.980 -30.184  1.00  0.00     0.169 HD
BRANCH  22  25
HETATM   25  C   UNL     1      -4.395   6.514 -28.350  1.00  0.00     0.142 A 
HETATM   26  O   UNL     1      -4.148   7.034 -27.103  1.00  0.00    -0.317 OA
HETATM   27  C   UNL     1      -3.073   7.857 -27.219  1.00  0.00     0.143 A 
HETATM   28  C   UNL     1      -2.616   7.876 -28.515  1.00  0.00     0.027 A 
HETATM   29  C   UNL     1      -3.467   7.012 -29.246  1.00  0.00     0.045 A 
ENDBRANCH  22  25
ENDBRANCH   4  21
TORSDOF 7
ENDMDL
MODEL 8
REMARK VINA RESULT:      -6.9      4.009      8.052
REMARK  7 active torsions:
REMARK  status: ('A' for Active; 'I' for Inactive)
REMARK    1  A    between atoms: O_2  and  C_3 
REMARK    2  A    between atoms: C_6  and  C_7 
REMARK    3  A    between atoms: C_7  and  C_8 
REMARK       I    between atoms: C_8  and  N_9 
REMARK    4  A    between atoms: N_9  and  C_10 
REMARK    5  A    between atoms: C_10  and  C_11 
REMARK    6  A    between atoms: C_14  and  N_15 
REMARK       I    between atoms: N_15  and  C_16 
REMARK    7  A    between atoms: C_16  and  C_17 
ROOT
HETATM    1  C   UNL     1      -7.752   3.503 -32.832  1.00  0.00    -0.040 A 
HETATM    2  C   UNL     1      -6.445   3.175 -33.214  1.00  0.00     0.011 A 
HETATM    3  C   UNL     1      -6.110   1.865 -33.584  1.00  0.00     0.030 A 
HETATM    4  C   UNL     1      -7.071   0.854 -33.559  1.00  0.00     0.035 A 
HETATM    5  C   UNL     1      -8.374   1.174 -33.166  1.00  0.00     0.030 A 
HETATM    6  C   UNL     1      -8.712   2.482 -32.808  1.00  0.00     0.011 A 
ENDROOT
BRANCH   1   7
HETATM    7  C   UNL     1      -8.130   4.894 -32.388  1.00  0.00     0.161 C 
BRANCH   7   8
HETATM    8  N   UNL     1      -9.471   5.270 -32.782  1.00  0.00    -0.357 N 
HETATM    9  C   UNL     1      -9.752   5.630 -34.083  1.00  0.00     0.222 C 
HETATM   10  O   UNL     1      -8.883   5.796 -34.935  1.00  0.00    -0.273 OA
HETATM   11  H   UNL     1     -10.235   4.990 -32.184  1.00  0.00     0.162 HD
BRANCH   9  12
HETATM   12  C   UNL     1     -11.234   5.772 -34.394  1.00  0.00     0.141 C 
BRANCH  12  13
HETATM   13  C   UNL     1     -12.013   4.474 -34.456  1.00  0.00    -0.049 A 
HETATM   14  C   UNL     1     -12.978   4.109 -33.506  1.00  0.00     0.010 A 
HETATM   15  C   UNL     1     -13.647   2.881 -33.589  1.00  0.00     0.037 A 
HETATM   16  C   UNL     1     -13.356   1.988 -34.617  1.00  0.00     0.068 A 
HETATM   17  C   UNL     1     -12.393   2.339 -35.564  1.00  0.00     0.037 A 
HETATM   18  C   UNL     1     -11.727   3.566 -35.485  1.00  0.00     0.010 A 
BRANCH  16  19
HETATM   19  O   UNL     1     -13.928   0.760 -34.804  1.00  0.00    -0.356 OA
HETATM   20  C   UNL     1     -15.267   0.603 -34.355  1.00  0.00     0.210 C 
ENDBRANCH  16  19
ENDBRANCH  12  13
ENDBRANCH   9  12
ENDBRANCH   7   8
ENDBRANCH   1   7
BRANCH   4  21
HETATM   21  N   UNL     1      -6.816  -0.488 -33.896  1.00  0.00    -0.321 N 
HETATM   22  C   UNL     1      -5.606  -1.159 -33.908  1.00  0.00     0.279 C 
HETATM   23  O   UNL     1      -4.515  -0.671 -33.631  1.00  0.00    -0.265 OA
HETATM   24  H   UNL     1      -7.611  -1.052 -34.173  1.00  0.00     0.169 HD
BRANCH  22  25
HETATM   25  C   UNL     1      -5.751  -2.552 -34.299  1.00  0.00     0.142 A 
HETATM   26  O   UNL     1      -4.677  -3.400 -34.183  1.00  0.00    -0.317 OA
HETATM   27  C   UNL     1      -5.084  -4.622 -34.616  1.00  0.00     0.143 A 
HETATM   28  C   UNL     1      -6.401  -4.582 -35.006  1.00  0.00     0.027 A 
HETATM   29  C   UNL     1      -6.833  -3.249 -34.803  1.00  0.00     0.045 A 
ENDBRANCH  22  25
ENDBRANCH   4  21
TORSDOF 7
ENDMDL
MODEL 9
REMARK VINA RESULT:      -6.8     15.877     17.658
REMARK  7 active torsions:
REMARK  status: ('A' for Active; 'I' for Inactive)
REMARK    1  A    between atoms: O_2  and  C_3 
REMARK    2  A    between atoms: C_6  and  C_7 
REMARK    3  A    between atoms: C_7  and  C_8 
REMARK       I    between atoms: C_8  and  N_9 
REMARK    4  A    between atoms: N_9  and  C_10 
REMARK    5  A    between atoms: C_10  and  C_11 
REMARK    6  A    between atoms: C_14  and  N_15 
REMARK       I    between atoms: N_15  and  C_16 
REMARK    7  A    between atoms: C_16  and  C_17 
ROOT
HETATM    1  C   UNL     1      -7.003 -14.024 -35.577  1.00  0.00    -0.040 A 
HETATM    2  C   UNL     1      -6.958 -13.204 -34.442  1.00  0.00     0.011 A 
HETATM    3  C   UNL     1      -6.718 -13.747 -33.172  1.00  0.00     0.030 A 
HETATM    4  C   UNL     1      -6.541 -15.120 -33.009  1.00  0.00     0.035 A 
HETATM    5  C   UNL     1      -6.598 -15.945 -34.138  1.00  0.00     0.030 A 
HETATM    6  C   UNL     1      -6.825 -15.403 -35.407  1.00  0.00     0.011 A 
ENDROOT
BRANCH   1   7
HETATM    7  C   UNL     1      -7.302 -13.473 -36.949  1.00  0.00     0.161 C 
BRANCH   7   8
HETATM    8  N   UNL     1      -6.161 -12.827 -37.561  1.00  0.00    -0.357 N 
HETATM    9  C   UNL     1      -5.356 -13.505 -38.451  1.00  0.00     0.222 C 
HETATM   10  O   UNL     1      -5.460 -14.710 -38.665  1.00  0.00    -0.273 OA
HETATM   11  H   UNL     1      -6.131 -11.817 -37.558  1.00  0.00     0.162 HD
BRANCH   9  12
HETATM   12  C   UNL     1      -4.346 -12.634 -39.182  1.00  0.00     0.141 C 
BRANCH  12  13
HETATM   13  C   UNL     1      -2.937 -13.188 -39.248  1.00  0.00    -0.049 A 
HETATM   14  C   UNL     1      -2.000 -13.035 -38.218  1.00  0.00     0.010 A 
HETATM   15  C   UNL     1      -0.697 -13.537 -38.343  1.00  0.00     0.037 A 
HETATM   16  C   UNL     1      -0.304 -14.193 -39.507  1.00  0.00     0.068 A 
HETATM   17  C   UNL     1      -1.228 -14.346 -40.541  1.00  0.00     0.037 A 
HETATM   18  C   UNL     1      -2.529 -13.849 -40.417  1.00  0.00     0.010 A 
BRANCH  16  19
HETATM   19  O   UNL     1       0.933 -14.718 -39.756  1.00  0.00    -0.356 OA
HETATM   20  C   UNL     1       1.890 -14.628 -38.709  1.00  0.00     0.210 C 
ENDBRANCH  16  19
ENDBRANCH  12  13
ENDBRANCH   9  12
ENDBRANCH   7   8
ENDBRANCH   1   7
BRANCH   4  21
HETATM   21  N   UNL     1      -6.315 -15.748 -31.771  1.00  0.00    -0.321 N 
HETATM   22  C   UNL     1      -5.228 -15.620 -30.924  1.00  0.00     0.279 C 
HETATM   23  O   UNL     1      -4.239 -14.923 -31.132  1.00  0.00    -0.265 OA
HETATM   24  H   UNL     1      -7.031 -16.384 -31.439  1.00  0.00     0.169 HD
BRANCH  22  25
HETATM   25  C   UNL     1      -5.367 -16.421 -29.720  1.00  0.00     0.142 A 
HETATM   26  O   UNL     1      -4.558 -16.163 -28.640  1.00  0.00    -0.317 OA
HETATM   27  C   UNL     1      -4.894 -17.051 -27.668  1.00  0.00     0.143 A 
HETATM   28  C   UNL     1      -5.906 -17.876 -28.096  1.00  0.00     0.027 A 
HETATM   29  C   UNL     1      -6.212 -17.472 -29.418  1.00  0.00     0.045 A 
ENDBRANCH  22  25
ENDBRANCH   4  21
TORSDOF 7
ENDMDL
MODEL 10
REMARK VINA RESULT:      -6.8     15.974     17.721
REMARK  7 active torsions:
REMARK  status: ('A' for Active; 'I' for Inactive)
REMARK    1  A    between atoms: O_2  and  C_3 
REMARK    2  A    between atoms: C_6  and  C_7 
REMARK    3  A    between atoms: C_7  and  C_8 
REMARK       I    between atoms: C_8  and  N_9 
REMARK    4  A    between atoms: N_9  and  C_10 
REMARK    5  A    between atoms: C_10  and  C_11 
REMARK    6  A    between atoms: C_14  and  N_15 
REMARK       I    between atoms: N_15  and  C_16 
REMARK    7  A    between atoms: C_16  and  C_17 
ROOT
HETATM    1  C   UNL     1      -2.951 -14.395 -36.062  1.00  0.00    -0.040 A 
HETATM    2  C   UNL     1      -2.327 -15.426 -35.348  1.00  0.00     0.011 A 
HETATM    3  C   UNL     1      -2.955 -16.017 -34.243  1.00  0.00     0.030 A 
HETATM    4  C   UNL     1      -4.207 -15.574 -33.818  1.00  0.00     0.035 A 
HETATM    5  C   UNL     1      -4.828 -14.536 -34.520  1.00  0.00     0.030 A 
HETATM    6  C   UNL     1      -4.208 -13.954 -35.630  1.00  0.00     0.011 A 
ENDROOT
BRANCH   1   7
HETATM    7  C   UNL     1      -2.280 -13.711 -37.228  1.00  0.00     0.161 C 
BRANCH   7   8
HETATM    8  N   UNL     1      -3.118 -12.715 -37.859  1.00  0.00    -0.357 N 
HETATM    9  C   UNL     1      -3.792 -12.994 -39.029  1.00  0.00     0.222 C 
HETATM   10  O   UNL     1      -3.614 -14.023 -39.676  1.00  0.00    -0.273 OA
HETATM   11  H   UNL     1      -3.432 -11.936 -37.297  1.00  0.00     0.162 HD
BRANCH   9  12
HETATM   12  C   UNL     1      -4.807 -11.939 -39.443  1.00  0.00     0.141 C 
BRANCH  12  13
HETATM   13  C   UNL     1      -6.260 -12.349 -39.318  1.00  0.00    -0.049 A 
HETATM   14  C   UNL     1      -6.834 -12.795 -38.120  1.00  0.00     0.010 A 
HETATM   15  C   UNL     1      -8.176 -13.196 -38.065  1.00  0.00     0.037 A 
HETATM   16  C   UNL     1      -8.966 -13.169 -39.212  1.00  0.00     0.068 A 
HETATM   17  C   UNL     1      -8.402 -12.732 -40.411  1.00  0.00     0.037 A 
HETATM   18  C   UNL     1      -7.065 -12.328 -40.466  1.00  0.00     0.010 A 
BRANCH  16  19
HETATM   19  O   UNL     1     -10.279 -13.541 -39.294  1.00  0.00    -0.356 OA
HETATM   20  C   UNL     1     -11.020 -13.035 -40.396  1.00  0.00     0.210 C 
ENDBRANCH  16  19
ENDBRANCH  12  13
ENDBRANCH   9  12
ENDBRANCH   7   8
ENDBRANCH   1   7
BRANCH   4  21
HETATM   21  N   UNL     1      -4.898 -16.099 -32.710  1.00  0.00    -0.321 N 
HETATM   22  C   UNL     1      -4.708 -15.826 -31.368  1.00  0.00     0.279 C 
HETATM   23  O   UNL     1      -3.863 -15.065 -30.906  1.00  0.00    -0.265 OA
HETATM   24  H   UNL     1      -5.634 -16.769 -32.902  1.00  0.00     0.169 HD
BRANCH  22  25
HETATM   25  C   UNL     1      -5.635 -16.555 -30.518  1.00  0.00     0.142 A 
HETATM   26  O   UNL     1      -5.523 -16.453 -29.153  1.00  0.00    -0.317 OA
HETATM   27  C   UNL     1      -6.498 -17.230 -28.613  1.00  0.00     0.143 A 
HETATM   28  C   UNL     1      -7.241 -17.829 -29.601  1.00  0.00     0.027 A 
HETATM   29  C   UNL     1      -6.687 -17.396 -30.830  1.00  0.00     0.045 A 
ENDBRANCH  22  25
ENDBRANCH   4  21
TORSDOF 7
ENDMDL
