MODEL 1
REMARK VINA RESULT:      -9.2      0.000      0.000
REMARK  4 active torsions:
REMARK  status: ('A' for Active; 'I' for Inactive)
REMARK    1  A    between atoms: C_8  and  C_9 
REMARK    2  A    between atoms: C_9  and  C_10 
REMARK       I    between atoms: C_10  and  N_11 
REMARK    3  A    between atoms: N_11  and  C_12 
REMARK    4  A    between atoms: C_14  and  C_15 
ROOT
HETATM    1  C   UNL     1     -10.042   0.790 -33.822  1.00  0.00     0.226 C 
HETATM    2  N   UNL     1      -8.941   0.707 -34.673  1.00  0.00    -0.327 N 
HETATM    3  O   UNL     1     -10.174   0.197 -32.757  1.00  0.00    -0.273 OA
HETATM    4  H   UNL     1      -9.044   1.121 -35.589  1.00  0.00     0.169 HD
ENDROOT
BRANCH   1   5
HETATM    5  C   UNL     1     -11.122   1.680 -34.409  1.00  0.00     0.144 C 
BRANCH   5   6
HETATM    6  C   UNL     1     -12.549   1.432 -34.009  1.00  0.00    -0.021 A 
HETATM    7  C   UNL     1     -13.500   2.206 -33.230  1.00  0.00     0.005 A 
HETATM    8  C   UNL     1     -13.490   3.422 -32.480  1.00  0.00    -0.049 A 
HETATM    9  C   UNL     1     -14.721   1.516 -33.306  1.00  0.00     0.043 A 
HETATM   10  C   UNL     1     -12.291   4.304 -32.267  1.00  0.00     0.049 C 
HETATM   11  C   UNL     1     -14.685   3.831 -31.839  1.00  0.00     0.007 A 
HETATM   12  C   UNL     1     -15.869   3.115 -31.952  1.00  0.00     0.003 A 
HETATM   13  C   UNL     1     -15.906   1.945 -32.696  1.00  0.00     0.030 A 
HETATM   14  N   UNL     1     -14.527   0.392 -34.069  1.00  0.00    -0.365 N 
HETATM   15  H   UNL     1     -15.249  -0.280 -34.289  1.00  0.00     0.165 HD
HETATM   16  C   UNL     1     -13.238   0.332 -34.497  1.00  0.00     0.097 A 
ENDBRANCH   5   6
ENDBRANCH   1   5
BRANCH   2  17
HETATM   17  C   UNL     1      -7.672   0.154 -34.406  1.00  0.00     0.035 A 
HETATM   18  C   UNL     1      -7.324  -1.173 -34.665  1.00  0.00     0.042 A 
HETATM   19  C   UNL     1      -6.062  -1.676 -34.297  1.00  0.00    -0.021 A 
HETATM   20  C   UNL     1      -5.147  -0.812 -33.679  1.00  0.00     0.012 A 
HETATM   21  C   UNL     1      -5.483   0.517 -33.427  1.00  0.00     0.003 A 
HETATM   22  C   UNL     1      -6.741   0.995 -33.785  1.00  0.00     0.029 A 
BRANCH  19  23
HETATM   23  C   UNL     1      -5.706  -3.071 -34.519  1.00  0.00     0.010 A 
HETATM   24  C   UNL     1      -6.469  -4.150 -35.038  1.00  0.00     0.152 A 
HETATM   25  N   UNL     1      -5.782  -5.295 -35.094  1.00  0.00    -0.187 NA
HETATM   26  N   UNL     1      -4.575  -4.957 -34.617  1.00  0.00    -0.289 N 
HETATM   27  H   UNL     1      -3.860  -5.675 -34.562  1.00  0.00     0.188 HD
HETATM   28  C   UNL     1      -4.480  -3.644 -34.258  1.00  0.00     0.123 A 
ENDBRANCH  19  23
ENDBRANCH   2  17
TORSDOF 4
ENDMDL
MODEL 2
REMARK VINA RESULT:      -9.1      1.104      1.916
REMARK  4 active torsions:
REMARK  status: ('A' for Active; 'I' for Inactive)
REMARK    1  A    between atoms: C_8  and  C_9 
REMARK    2  A    between atoms: C_9  and  C_10 
REMARK       I    between atoms: C_10  and  N_11 
REMARK    3  A    between atoms: N_11  and  C_12 
REMARK    4  A    between atoms: C_14  and  C_15 
ROOT
HETATM    1  C   UNL     1      -9.851   0.867 -33.954  1.00  0.00     0.226 C 
HETATM    2  N   UNL     1      -8.717   0.731 -34.751  1.00  0.00    -0.327 N 
HETATM    3  O   UNL     1     -10.052   0.301 -32.885  1.00  0.00    -0.273 OA
HETATM    4  H   UNL     1      -8.765   1.128 -35.679  1.00  0.00     0.169 HD
ENDROOT
BRANCH   1   5
HETATM    5  C   UNL     1     -10.874   1.778 -34.607  1.00  0.00     0.144 C 
BRANCH   5   6
HETATM    6  C   UNL     1     -11.738   2.634 -33.724  1.00  0.00    -0.021 A 
HETATM    7  C   UNL     1     -13.099   2.485 -33.238  1.00  0.00     0.005 A 
HETATM    8  C   UNL     1     -14.180   1.571 -33.427  1.00  0.00    -0.049 A 
HETATM    9  C   UNL     1     -13.312   3.547 -32.343  1.00  0.00     0.043 A 
HETATM   10  C   UNL     1     -14.163   0.379 -34.343  1.00  0.00     0.049 C 
HETATM   11  C   UNL     1     -15.395   1.808 -32.738  1.00  0.00     0.007 A 
HETATM   12  C   UNL     1     -15.551   2.869 -31.857  1.00  0.00     0.003 A 
HETATM   13  C   UNL     1     -14.506   3.754 -31.640  1.00  0.00     0.030 A 
HETATM   14  N   UNL     1     -12.166   4.298 -32.294  1.00  0.00    -0.365 N 
HETATM   15  H   UNL     1     -12.046   5.120 -31.718  1.00  0.00     0.165 HD
HETATM   16  C   UNL     1     -11.219   3.764 -33.109  1.00  0.00     0.097 A 
ENDBRANCH   5   6
ENDBRANCH   1   5
BRANCH   2  17
HETATM   17  C   UNL     1      -7.480   0.144 -34.416  1.00  0.00     0.035 A 
HETATM   18  C   UNL     1      -7.141  -1.183 -34.688  1.00  0.00     0.042 A 
HETATM   19  C   UNL     1      -5.918  -1.723 -34.250  1.00  0.00    -0.021 A 
HETATM   20  C   UNL     1      -5.029  -0.896 -33.548  1.00  0.00     0.012 A 
HETATM   21  C   UNL     1      -5.355   0.433 -33.282  1.00  0.00     0.003 A 
HETATM   22  C   UNL     1      -6.577   0.947 -33.710  1.00  0.00     0.029 A 
BRANCH  19  23
HETATM   23  C   UNL     1      -5.575  -3.119 -34.487  1.00  0.00     0.010 A 
HETATM   24  C   UNL     1      -6.341  -4.180 -35.038  1.00  0.00     0.152 A 
HETATM   25  N   UNL     1      -5.668  -5.333 -35.099  1.00  0.00    -0.187 NA
HETATM   26  N   UNL     1      -4.466  -5.018 -34.592  1.00  0.00    -0.289 N 
HETATM   27  H   UNL     1      -3.762  -5.746 -34.535  1.00  0.00     0.188 HD
HETATM   28  C   UNL     1      -4.361  -3.712 -34.211  1.00  0.00     0.123 A 
ENDBRANCH  19  23
ENDBRANCH   2  17
TORSDOF 4
ENDMDL
MODEL 3
REMARK VINA RESULT:      -9.0      6.321     10.287
REMARK  4 active torsions:
REMARK  status: ('A' for Active; 'I' for Inactive)
REMARK    1  A    between atoms: C_8  and  C_9 
REMARK    2  A    between atoms: C_9  and  C_10 
REMARK       I    between atoms: C_10  and  N_11 
REMARK    3  A    between atoms: N_11  and  C_12 
REMARK    4  A    between atoms: C_14  and  C_15 
ROOT
HETATM    1  C   UNL     1      -4.224   2.547 -31.859  1.00  0.00     0.226 C 
HETATM    2  N   UNL     1      -3.186   2.918 -32.712  1.00  0.00    -0.327 N 
HETATM    3  O   UNL     1      -4.466   3.042 -30.764  1.00  0.00    -0.273 OA
HETATM    4  H   UNL     1      -3.011   2.313 -33.503  1.00  0.00     0.169 HD
ENDROOT
BRANCH   1   5
HETATM    5  C   UNL     1      -5.012   1.382 -32.429  1.00  0.00     0.144 C 
BRANCH   5   6
HETATM    6  C   UNL     1      -4.424   0.002 -32.326  1.00  0.00    -0.021 A 
HETATM    7  C   UNL     1      -4.633  -1.215 -33.091  1.00  0.00     0.005 A 
HETATM    8  C   UNL     1      -5.485  -1.645 -34.154  1.00  0.00    -0.049 A 
HETATM    9  C   UNL     1      -3.702  -2.148 -32.604  1.00  0.00     0.043 A 
HETATM   10  C   UNL     1      -6.551  -0.811 -34.808  1.00  0.00     0.049 C 
HETATM   11  C   UNL     1      -5.364  -2.978 -34.620  1.00  0.00     0.007 A 
HETATM   12  C   UNL     1      -4.421  -3.858 -34.110  1.00  0.00     0.003 A 
HETATM   13  C   UNL     1      -3.568  -3.453 -33.094  1.00  0.00     0.030 A 
HETATM   14  N   UNL     1      -2.982  -1.546 -31.604  1.00  0.00    -0.365 N 
HETATM   15  H   UNL     1      -2.238  -1.994 -31.087  1.00  0.00     0.165 HD
HETATM   16  C   UNL     1      -3.399  -0.264 -31.430  1.00  0.00     0.097 A 
ENDBRANCH   5   6
ENDBRANCH   1   5
BRANCH   2  17
HETATM   17  C   UNL     1      -2.367   4.063 -32.643  1.00  0.00     0.035 A 
HETATM   18  C   UNL     1      -1.739   4.510 -31.479  1.00  0.00     0.042 A 
HETATM   19  C   UNL     1      -1.001   5.708 -31.468  1.00  0.00    -0.021 A 
HETATM   20  C   UNL     1      -0.890   6.442 -32.658  1.00  0.00     0.012 A 
HETATM   21  C   UNL     1      -1.505   5.997 -33.827  1.00  0.00     0.003 A 
HETATM   22  C   UNL     1      -2.244   4.815 -33.817  1.00  0.00     0.029 A 
BRANCH  19  23
HETATM   23  C   UNL     1      -0.382   6.208 -30.248  1.00  0.00     0.010 A 
HETATM   24  C   UNL     1      -0.395   7.503 -29.666  1.00  0.00     0.152 A 
HETATM   25  N   UNL     1       0.295   7.570 -28.524  1.00  0.00    -0.187 NA
HETATM   26  N   UNL     1       0.749   6.318 -28.363  1.00  0.00    -0.289 N 
HETATM   27  H   UNL     1       1.312   6.111 -27.544  1.00  0.00     0.188 HD
HETATM   28  C   UNL     1       0.375   5.469 -29.364  1.00  0.00     0.123 A 
ENDBRANCH  19  23
ENDBRANCH   2  17
TORSDOF 4
ENDMDL
MODEL 4
REMARK VINA RESULT:      -8.9      2.628      3.550
REMARK  4 active torsions:
REMARK  status: ('A' for Active; 'I' for Inactive)
REMARK    1  A    between atoms: C_8  and  C_9 
REMARK    2  A    between atoms: C_9  and  C_10 
REMARK       I    between atoms: C_10  and  N_11 
REMARK    3  A    between atoms: N_11  and  C_12 
REMARK    4  A    between atoms: C_14  and  C_15 
ROOT
HETATM    1  C   UNL     1      -6.758   2.713 -33.441  1.00  0.00     0.226 C 
HETATM    2  N   UNL     1      -6.588   1.512 -32.755  1.00  0.00    -0.327 N 
HETATM    3  O   UNL     1      -6.015   3.158 -34.309  1.00  0.00    -0.273 OA
HETATM    4  H   UNL     1      -7.187   1.358 -31.955  1.00  0.00     0.169 HD
ENDROOT
BRANCH   1   5
HETATM    5  C   UNL     1      -7.975   3.465 -32.934  1.00  0.00     0.144 C 
BRANCH   5   6
HETATM    6  C   UNL     1      -9.189   3.541 -33.817  1.00  0.00    -0.021 A 
HETATM    7  C   UNL     1     -10.308   2.639 -34.029  1.00  0.00     0.005 A 
HETATM    8  C   UNL     1     -10.694   1.334 -33.591  1.00  0.00    -0.049 A 
HETATM    9  C   UNL     1     -11.198   3.313 -34.882  1.00  0.00     0.043 A 
HETATM   10  C   UNL     1      -9.886   0.444 -32.690  1.00  0.00     0.049 C 
HETATM   11  C   UNL     1     -11.916   0.797 -34.066  1.00  0.00     0.007 A 
HETATM   12  C   UNL     1     -12.764   1.509 -34.901  1.00  0.00     0.003 A 
HETATM   13  C   UNL     1     -12.419   2.786 -35.319  1.00  0.00     0.030 A 
HETATM   14  N   UNL     1     -10.655   4.538 -35.179  1.00  0.00    -0.365 N 
HETATM   15  H   UNL     1     -11.097   5.229 -35.769  1.00  0.00     0.165 HD
HETATM   16  C   UNL     1      -9.461   4.688 -34.548  1.00  0.00     0.097 A 
ENDBRANCH   5   6
ENDBRANCH   1   5
BRANCH   2  17
HETATM   17  C   UNL     1      -5.711   0.451 -33.058  1.00  0.00     0.035 A 
HETATM   18  C   UNL     1      -6.110  -0.758 -33.631  1.00  0.00     0.042 A 
HETATM   19  C   UNL     1      -5.191  -1.805 -33.830  1.00  0.00    -0.021 A 
HETATM   20  C   UNL     1      -3.853  -1.605 -33.459  1.00  0.00     0.012 A 
HETATM   21  C   UNL     1      -3.444  -0.397 -32.896  1.00  0.00     0.003 A 
HETATM   22  C   UNL     1      -4.371   0.623 -32.693  1.00  0.00     0.029 A 
BRANCH  19  23
HETATM   23  C   UNL     1      -5.606  -3.086 -34.383  1.00  0.00     0.010 A 
HETATM   24  C   UNL     1      -4.914  -4.322 -34.479  1.00  0.00     0.152 A 
HETATM   25  N   UNL     1      -5.641  -5.285 -35.052  1.00  0.00    -0.187 NA
HETATM   26  N   UNL     1      -6.805  -4.676 -35.324  1.00  0.00    -0.289 N 
HETATM   27  H   UNL     1      -7.539  -5.215 -35.769  1.00  0.00     0.188 HD
HETATM   28  C   UNL     1      -6.834  -3.365 -34.946  1.00  0.00     0.123 A 
ENDBRANCH  19  23
ENDBRANCH   2  17
TORSDOF 4
ENDMDL
MODEL 5
REMARK VINA RESULT:      -8.7      2.294      8.752
REMARK  4 active torsions:
REMARK  status: ('A' for Active; 'I' for Inactive)
REMARK    1  A    between atoms: C_8  and  C_9 
REMARK    2  A    between atoms: C_9  and  C_10 
REMARK       I    between atoms: C_10  and  N_11 
REMARK    3  A    between atoms: N_11  and  C_12 
REMARK    4  A    between atoms: C_14  and  C_15 
ROOT
HETATM    1  C   UNL     1      -6.095   0.590 -31.826  1.00  0.00     0.226 C 
HETATM    2  N   UNL     1      -6.733   1.669 -32.433  1.00  0.00    -0.327 N 
HETATM    3  O   UNL     1      -6.461   0.018 -30.805  1.00  0.00    -0.273 OA
HETATM    4  H   UNL     1      -6.227   2.139 -33.171  1.00  0.00     0.169 HD
ENDROOT
BRANCH   1   5
HETATM    5  C   UNL     1      -4.817   0.226 -32.560  1.00  0.00     0.144 C 
BRANCH   5   6
HETATM    6  C   UNL     1      -4.503  -1.228 -32.773  1.00  0.00    -0.021 A 
HETATM    7  C   UNL     1      -5.091  -2.246 -33.627  1.00  0.00     0.005 A 
HETATM    8  C   UNL     1      -6.199  -2.343 -34.524  1.00  0.00    -0.049 A 
HETATM    9  C   UNL     1      -4.285  -3.388 -33.486  1.00  0.00     0.043 A 
HETATM   10  C   UNL     1      -7.185  -1.245 -34.811  1.00  0.00     0.049 C 
HETATM   11  C   UNL     1      -6.434  -3.577 -35.178  1.00  0.00     0.007 A 
HETATM   12  C   UNL     1      -5.602  -4.675 -35.009  1.00  0.00     0.003 A 
HETATM   13  C   UNL     1      -4.507  -4.595 -34.161  1.00  0.00     0.030 A 
HETATM   14  N   UNL     1      -3.282  -3.093 -32.598  1.00  0.00    -0.365 N 
HETATM   15  H   UNL     1      -2.556  -3.739 -32.322  1.00  0.00     0.165 HD
HETATM   16  C   UNL     1      -3.398  -1.809 -32.168  1.00  0.00     0.097 A 
ENDBRANCH   5   6
ENDBRANCH   1   5
BRANCH   2  17
HETATM   17  C   UNL     1      -8.025   2.173 -32.181  1.00  0.00     0.035 A 
HETATM   18  C   UNL     1      -9.113   2.010 -33.043  1.00  0.00     0.042 A 
HETATM   19  C   UNL     1     -10.354   2.611 -32.764  1.00  0.00    -0.021 A 
HETATM   20  C   UNL     1     -10.489   3.365 -31.590  1.00  0.00     0.012 A 
HETATM   21  C   UNL     1      -9.411   3.524 -30.720  1.00  0.00     0.003 A 
HETATM   22  C   UNL     1      -8.185   2.934 -31.018  1.00  0.00     0.029 A 
BRANCH  19  23
HETATM   23  C   UNL     1     -11.481   2.487 -33.679  1.00  0.00     0.010 A 
HETATM   24  C   UNL     1     -11.698   1.600 -34.766  1.00  0.00     0.152 A 
HETATM   25  N   UNL     1     -12.873   1.793 -35.371  1.00  0.00    -0.187 NA
HETATM   26  N   UNL     1     -13.419   2.801 -34.674  1.00  0.00    -0.289 N 
HETATM   27  H   UNL     1     -14.338   3.134 -34.947  1.00  0.00     0.188 HD
HETATM   28  C   UNL     1     -12.628   3.251 -33.657  1.00  0.00     0.123 A 
ENDBRANCH  19  23
ENDBRANCH   2  17
TORSDOF 4
ENDMDL
MODEL 6
REMARK VINA RESULT:      -8.7      6.030      9.808
REMARK  4 active torsions:
REMARK  status: ('A' for Active; 'I' for Inactive)
REMARK    1  A    between atoms: C_8  and  C_9 
REMARK    2  A    between atoms: C_9  and  C_10 
REMARK       I    between atoms: C_10  and  N_11 
REMARK    3  A    between atoms: N_11  and  C_12 
REMARK    4  A    between atoms: C_14  and  C_15 
ROOT
HETATM    1  C   UNL     1      -3.631   1.602 -31.383  1.00  0.00     0.226 C 
HETATM    2  N   UNL     1      -3.718   2.828 -32.041  1.00  0.00    -0.327 N 
HETATM    3  O   UNL     1      -2.599   1.066 -30.994  1.00  0.00    -0.273 OA
HETATM    4  H   UNL     1      -4.614   3.062 -32.446  1.00  0.00     0.169 HD
ENDROOT
BRANCH   1   5
HETATM    5  C   UNL     1      -4.997   0.953 -31.251  1.00  0.00     0.144 C 
BRANCH   5   6
HETATM    6  C   UNL     1      -5.608   0.318 -32.468  1.00  0.00    -0.021 A 
HETATM    7  C   UNL     1      -5.335  -0.923 -33.172  1.00  0.00     0.005 A 
HETATM    8  C   UNL     1      -4.383  -1.985 -33.083  1.00  0.00    -0.049 A 
HETATM    9  C   UNL     1      -6.323  -1.035 -34.165  1.00  0.00     0.043 A 
HETATM   10  C   UNL     1      -3.246  -2.055 -32.103  1.00  0.00     0.049 C 
HETATM   11  C   UNL     1      -4.471  -3.051 -34.012  1.00  0.00     0.007 A 
HETATM   12  C   UNL     1      -5.473  -3.118 -34.970  1.00  0.00     0.003 A 
HETATM   13  C   UNL     1      -6.422  -2.109 -35.057  1.00  0.00     0.030 A 
HETATM   14  N   UNL     1      -7.136   0.067 -34.081  1.00  0.00    -0.365 N 
HETATM   15  H   UNL     1      -7.934   0.234 -34.678  1.00  0.00     0.165 HD
HETATM   16  C   UNL     1      -6.723   0.880 -33.073  1.00  0.00     0.097 A 
ENDBRANCH   5   6
ENDBRANCH   1   5
BRANCH   2  17
HETATM   17  C   UNL     1      -2.723   3.816 -32.179  1.00  0.00     0.035 A 
HETATM   18  C   UNL     1      -2.086   4.445 -31.107  1.00  0.00     0.042 A 
HETATM   19  C   UNL     1      -1.159   5.482 -31.322  1.00  0.00    -0.021 A 
HETATM   20  C   UNL     1      -0.869   5.864 -32.640  1.00  0.00     0.012 A 
HETATM   21  C   UNL     1      -1.493   5.234 -33.716  1.00  0.00     0.003 A 
HETATM   22  C   UNL     1      -2.418   4.218 -33.485  1.00  0.00     0.029 A 
BRANCH  19  23
HETATM   23  C   UNL     1      -0.526   6.177 -30.210  1.00  0.00     0.010 A 
HETATM   24  C   UNL     1       0.363   5.705 -29.208  1.00  0.00     0.152 A 
HETATM   25  N   UNL     1       0.737   6.659 -28.351  1.00  0.00    -0.187 NA
HETATM   26  N   UNL     1       0.097   7.749 -28.799  1.00  0.00    -0.289 N 
HETATM   27  H   UNL     1       0.228   8.624 -28.303  1.00  0.00     0.188 HD
HETATM   28  C   UNL     1      -0.670   7.514 -29.903  1.00  0.00     0.123 A 
ENDBRANCH  19  23
ENDBRANCH   2  17
TORSDOF 4
ENDMDL
MODEL 7
REMARK VINA RESULT:      -8.6      5.314      8.465
REMARK  4 active torsions:
REMARK  status: ('A' for Active; 'I' for Inactive)
REMARK    1  A    between atoms: C_8  and  C_9 
REMARK    2  A    between atoms: C_9  and  C_10 
REMARK       I    between atoms: C_10  and  N_11 
REMARK    3  A    between atoms: N_11  and  C_12 
REMARK    4  A    between atoms: C_14  and  C_15 
ROOT
HETATM    1  C   UNL     1      -4.568   1.911 -31.631  1.00  0.00     0.226 C 
HETATM    2  N   UNL     1      -4.563   1.447 -32.945  1.00  0.00    -0.327 N 
HETATM    3  O   UNL     1      -5.410   1.650 -30.779  1.00  0.00    -0.273 OA
HETATM    4  H   UNL     1      -3.900   1.878 -33.575  1.00  0.00     0.169 HD
ENDROOT
BRANCH   1   5
HETATM    5  C   UNL     1      -3.409   2.859 -31.381  1.00  0.00     0.144 C 
BRANCH   5   6
HETATM    6  C   UNL     1      -3.339   4.131 -32.178  1.00  0.00    -0.021 A 
HETATM    7  C   UNL     1      -2.337   5.179 -32.273  1.00  0.00     0.005 A 
HETATM    8  C   UNL     1      -1.095   5.494 -31.641  1.00  0.00    -0.049 A 
HETATM    9  C   UNL     1      -2.776   6.049 -33.285  1.00  0.00     0.043 A 
HETATM   10  C   UNL     1      -0.455   4.703 -30.535  1.00  0.00     0.049 C 
HETATM   11  C   UNL     1      -0.412   6.668 -32.043  1.00  0.00     0.007 A 
HETATM   12  C   UNL     1      -0.886   7.492 -33.054  1.00  0.00     0.003 A 
HETATM   13  C   UNL     1      -2.077   7.190 -33.698  1.00  0.00     0.030 A 
HETATM   14  N   UNL     1      -3.969   5.573 -33.766  1.00  0.00    -0.365 N 
HETATM   15  H   UNL     1      -4.500   6.009 -34.508  1.00  0.00     0.165 HD
HETATM   16  C   UNL     1      -4.315   4.429 -33.119  1.00  0.00     0.097 A 
ENDBRANCH   5   6
ENDBRANCH   1   5
BRANCH   2  17
HETATM   17  C   UNL     1      -5.337   0.413 -33.508  1.00  0.00     0.035 A 
HETATM   18  C   UNL     1      -4.933  -0.923 -33.577  1.00  0.00     0.042 A 
HETATM   19  C   UNL     1      -5.725  -1.887 -34.227  1.00  0.00    -0.021 A 
HETATM   20  C   UNL     1      -6.944  -1.487 -34.792  1.00  0.00     0.012 A 
HETATM   21  C   UNL     1      -7.360  -0.158 -34.719  1.00  0.00     0.003 A 
HETATM   22  C   UNL     1      -6.557   0.786 -34.083  1.00  0.00     0.029 A 
BRANCH  19  23
HETATM   23  C   UNL     1      -5.291  -3.272 -34.346  1.00  0.00     0.010 A 
HETATM   24  C   UNL     1      -5.954  -4.408 -34.879  1.00  0.00     0.152 A 
HETATM   25  N   UNL     1      -5.217  -5.521 -34.815  1.00  0.00    -0.187 NA
HETATM   26  N   UNL     1      -4.075  -5.105 -34.247  1.00  0.00    -0.289 N 
HETATM   27  H   UNL     1      -3.338  -5.785 -34.092  1.00  0.00     0.188 HD
HETATM   28  C   UNL     1      -4.070  -3.774 -33.946  1.00  0.00     0.123 A 
ENDBRANCH  19  23
ENDBRANCH   2  17
TORSDOF 4
ENDMDL
MODEL 8
REMARK VINA RESULT:      -8.4      5.229      8.189
REMARK  4 active torsions:
REMARK  status: ('A' for Active; 'I' for Inactive)
REMARK    1  A    between atoms: C_8  and  C_9 
REMARK    2  A    between atoms: C_9  and  C_10 
REMARK       I    between atoms: C_10  and  N_11 
REMARK    3  A    between atoms: N_11  and  C_12 
REMARK    4  A    between atoms: C_14  and  C_15 
ROOT
HETATM    1  C   UNL     1      -6.288   3.219 -32.002  1.00  0.00     0.226 C 
HETATM    2  N   UNL     1      -6.228   2.677 -33.283  1.00  0.00    -0.327 N 
HETATM    3  O   UNL     1      -6.556   2.608 -30.973  1.00  0.00    -0.273 OA
HETATM    4  H   UNL     1      -6.158   3.332 -34.050  1.00  0.00     0.169 HD
ENDROOT
BRANCH   1   5
HETATM    5  C   UNL     1      -6.035   4.716 -32.028  1.00  0.00     0.144 C 
BRANCH   5   6
HETATM    6  C   UNL     1      -4.667   5.217 -31.659  1.00  0.00    -0.021 A 
HETATM    7  C   UNL     1      -3.520   5.621 -32.454  1.00  0.00     0.005 A 
HETATM    8  C   UNL     1      -3.168   5.649 -33.838  1.00  0.00    -0.049 A 
HETATM    9  C   UNL     1      -2.570   6.118 -31.545  1.00  0.00     0.043 A 
HETATM   10  C   UNL     1      -4.032   5.158 -34.966  1.00  0.00     0.049 C 
HETATM   11  C   UNL     1      -1.888   6.135 -34.201  1.00  0.00     0.007 A 
HETATM   12  C   UNL     1      -0.988   6.622 -33.263  1.00  0.00     0.003 A 
HETATM   13  C   UNL     1      -1.320   6.627 -31.916  1.00  0.00     0.030 A 
HETATM   14  N   UNL     1      -3.096   6.014 -30.282  1.00  0.00    -0.365 N 
HETATM   15  H   UNL     1      -2.620   6.309 -29.441  1.00  0.00     0.165 HD
HETATM   16  C   UNL     1      -4.345   5.482 -30.335  1.00  0.00     0.097 A 
ENDBRANCH   5   6
ENDBRANCH   1   5
BRANCH   2  17
HETATM   17  C   UNL     1      -6.207   1.318 -33.656  1.00  0.00     0.035 A 
HETATM   18  C   UNL     1      -5.360   0.362 -33.090  1.00  0.00     0.042 A 
HETATM   19  C   UNL     1      -5.338  -0.961 -33.569  1.00  0.00    -0.021 A 
HETATM   20  C   UNL     1      -6.199  -1.311 -34.619  1.00  0.00     0.012 A 
HETATM   21  C   UNL     1      -7.054  -0.366 -35.183  1.00  0.00     0.003 A 
HETATM   22  C   UNL     1      -7.053   0.943 -34.705  1.00  0.00     0.029 A 
BRANCH  19  23
HETATM   23  C   UNL     1      -4.425  -1.953 -33.018  1.00  0.00     0.010 A 
HETATM   24  C   UNL     1      -4.096  -3.259 -33.467  1.00  0.00     0.152 A 
HETATM   25  N   UNL     1      -3.199  -3.869 -32.687  1.00  0.00    -0.187 NA
HETATM   26  N   UNL     1      -2.944  -2.958 -31.736  1.00  0.00    -0.289 N 
HETATM   27  H   UNL     1      -2.274  -3.192 -31.011  1.00  0.00     0.188 HD
HETATM   28  C   UNL     1      -3.651  -1.801 -31.888  1.00  0.00     0.123 A 
ENDBRANCH  19  23
ENDBRANCH   2  17
TORSDOF 4
ENDMDL
MODEL 9
REMARK VINA RESULT:      -8.4      5.588      9.966
REMARK  4 active torsions:
REMARK  status: ('A' for Active; 'I' for Inactive)
REMARK    1  A    between atoms: C_8  and  C_9 
REMARK    2  A    between atoms: C_9  and  C_10 
REMARK       I    between atoms: C_10  and  N_11 
REMARK    3  A    between atoms: N_11  and  C_12 
REMARK    4  A    between atoms: C_14  and  C_15 
ROOT
HETATM    1  C   UNL     1      -5.022   2.274 -31.645  1.00  0.00     0.226 C 
HETATM    2  N   UNL     1      -3.830   2.907 -31.297  1.00  0.00    -0.327 N 
HETATM    3  O   UNL     1      -5.898   2.738 -32.367  1.00  0.00    -0.273 OA
HETATM    4  H   UNL     1      -3.285   2.472 -30.564  1.00  0.00     0.169 HD
ENDROOT
BRANCH   1   5
HETATM    5  C   UNL     1      -5.148   0.926 -30.960  1.00  0.00     0.144 C 
BRANCH   5   6
HETATM    6  C   UNL     1      -4.663  -0.295 -31.689  1.00  0.00    -0.021 A 
HETATM    7  C   UNL     1      -5.239  -1.099 -32.754  1.00  0.00     0.005 A 
HETATM    8  C   UNL     1      -6.468  -1.141 -33.480  1.00  0.00    -0.049 A 
HETATM    9  C   UNL     1      -4.257  -2.038 -33.110  1.00  0.00     0.043 A 
HETATM   10  C   UNL     1      -7.646  -0.235 -33.252  1.00  0.00     0.049 C 
HETATM   11  C   UNL     1      -6.632  -2.135 -34.476  1.00  0.00     0.007 A 
HETATM   12  C   UNL     1      -5.625  -3.036 -34.795  1.00  0.00     0.003 A 
HETATM   13  C   UNL     1      -4.415  -2.997 -34.118  1.00  0.00     0.030 A 
HETATM   14  N   UNL     1      -3.161  -1.831 -32.311  1.00  0.00    -0.365 N 
HETATM   15  H   UNL     1      -2.306  -2.367 -32.364  1.00  0.00     0.165 HD
HETATM   16  C   UNL     1      -3.388  -0.793 -31.463  1.00  0.00     0.097 A 
ENDBRANCH   5   6
ENDBRANCH   1   5
BRANCH   2  17
HETATM   17  C   UNL     1      -3.256   4.061 -31.865  1.00  0.00     0.035 A 
HETATM   18  C   UNL     1      -3.436   5.354 -31.369  1.00  0.00     0.042 A 
HETATM   19  C   UNL     1      -2.897   6.469 -32.038  1.00  0.00    -0.021 A 
HETATM   20  C   UNL     1      -2.155   6.257 -33.209  1.00  0.00     0.012 A 
HETATM   21  C   UNL     1      -1.962   4.969 -33.705  1.00  0.00     0.003 A 
HETATM   22  C   UNL     1      -2.514   3.878 -33.038  1.00  0.00     0.029 A 
BRANCH  19  23
HETATM   23  C   UNL     1      -3.119   7.825 -31.555  1.00  0.00     0.010 A 
HETATM   24  C   UNL     1      -2.215   8.905 -31.378  1.00  0.00     0.152 A 
HETATM   25  N   UNL     1      -2.805  10.009 -30.912  1.00  0.00    -0.187 NA
HETATM   26  N   UNL     1      -4.091   9.647 -30.792  1.00  0.00    -0.289 N 
HETATM   27  H   UNL     1      -4.756  10.334 -30.452  1.00  0.00     0.188 HD
HETATM   28  C   UNL     1      -4.330   8.354 -31.161  1.00  0.00     0.123 A 
ENDBRANCH  19  23
ENDBRANCH   2  17
TORSDOF 4
ENDMDL
MODEL 10
REMARK VINA RESULT:      -8.2      2.975      9.525
REMARK  4 active torsions:
REMARK  status: ('A' for Active; 'I' for Inactive)
REMARK    1  A    between atoms: C_8  and  C_9 
REMARK    2  A    between atoms: C_9  and  C_10 
REMARK       I    between atoms: C_10  and  N_11 
REMARK    3  A    between atoms: N_11  and  C_12 
REMARK    4  A    between atoms: C_14  and  C_15 
ROOT
HETATM    1  C   UNL     1      -6.163   0.633 -32.197  1.00  0.00     0.226 C 
HETATM    2  N   UNL     1      -6.778   1.577 -33.017  1.00  0.00    -0.327 N 
HETATM    3  O   UNL     1      -6.661   0.105 -31.209  1.00  0.00    -0.273 OA
HETATM    4  H   UNL     1      -6.187   2.044 -33.692  1.00  0.00     0.169 HD
ENDROOT
BRANCH   1   5
HETATM    5  C   UNL     1      -4.736   0.367 -32.642  1.00  0.00     0.144 C 
BRANCH   5   6
HETATM    6  C   UNL     1      -4.202  -1.033 -32.531  1.00  0.00    -0.021 A 
HETATM    7  C   UNL     1      -4.490  -2.257 -33.258  1.00  0.00     0.005 A 
HETATM    8  C   UNL     1      -5.400  -2.675 -34.278  1.00  0.00    -0.049 A 
HETATM    9  C   UNL     1      -3.579  -3.217 -32.786  1.00  0.00     0.043 A 
HETATM   10  C   UNL     1      -6.456  -1.811 -34.909  1.00  0.00     0.049 C 
HETATM   11  C   UNL     1      -5.352  -4.021 -34.717  1.00  0.00     0.007 A 
HETATM   12  C   UNL     1      -4.425  -4.928 -34.223  1.00  0.00     0.003 A 
HETATM   13  C   UNL     1      -3.517  -4.537 -33.251  1.00  0.00     0.030 A 
HETATM   14  N   UNL     1      -2.796  -2.624 -31.829  1.00  0.00    -0.365 N 
HETATM   15  H   UNL     1      -2.051  -3.092 -31.331  1.00  0.00     0.165 HD
HETATM   16  C   UNL     1      -3.153  -1.323 -31.669  1.00  0.00     0.097 A 
ENDBRANCH   5   6
ENDBRANCH   1   5
BRANCH   2  17
HETATM   17  C   UNL     1      -8.138   1.942 -33.060  1.00  0.00     0.035 A 
HETATM   18  C   UNL     1      -8.695   2.988 -32.320  1.00  0.00     0.042 A 
HETATM   19  C   UNL     1     -10.078   3.242 -32.352  1.00  0.00    -0.021 A 
HETATM   20  C   UNL     1     -10.893   2.434 -33.159  1.00  0.00     0.012 A 
HETATM   21  C   UNL     1     -10.344   1.394 -33.908  1.00  0.00     0.003 A 
HETATM   22  C   UNL     1      -8.974   1.148 -33.854  1.00  0.00     0.029 A 
BRANCH  19  23
HETATM   23  C   UNL     1     -10.675   4.300 -31.549  1.00  0.00     0.010 A 
HETATM   24  C   UNL     1     -10.165   5.564 -31.155  1.00  0.00     0.152 A 
HETATM   25  N   UNL     1     -11.025   6.267 -30.413  1.00  0.00    -0.187 NA
HETATM   26  N   UNL     1     -12.094   5.461 -30.330  1.00  0.00    -0.289 N 
HETATM   27  H   UNL     1     -12.901   5.783 -29.806  1.00  0.00     0.188 HD
HETATM   28  C   UNL     1     -11.935   4.276 -30.988  1.00  0.00     0.123 A 
ENDBRANCH  19  23
ENDBRANCH   2  17
TORSDOF 4
ENDMDL
