MODEL 1
REMARK VINA RESULT:      -9.1      0.000      0.000
REMARK  4 active torsions:
REMARK  status: ('A' for Active; 'I' for Inactive)
REMARK    1  A    between atoms: O_2  and  C_3 
REMARK    2  A    between atoms: C_6  and  C_7 
REMARK    3  A    between atoms: C_12  and  N_13 
REMARK    4  A    between atoms: C_15  and  C_16 
ROOT
HETATM    1  C   UNL     1      -9.056   2.207 -34.550  1.00  0.00     0.135 C 
HETATM    2  N   UNL     1      -8.521   3.032 -33.473  1.00  0.00    -0.214 N 
HETATM    3  C   UNL     1      -7.913   2.462 -32.412  1.00  0.00     0.736 A 
HETATM    4  N   UNL     1      -7.539   1.145 -32.422  1.00  0.00    -0.074 N 
HETATM    5  N   UNL     1      -7.087   0.761 -31.215  1.00  0.00     0.037 NA
HETATM    6  C   UNL     1      -7.109   1.919 -30.561  1.00  0.00     0.753 A 
HETATM    7  N   UNL     1      -7.633   2.976 -31.243  1.00  0.00     0.131 NA
HETATM    8  C   UNL     1      -7.815   0.230 -33.525  1.00  0.00     0.164 C 
HETATM    9  C   UNL     1      -8.117   1.017 -34.814  1.00  0.00     0.063 C 
HETATM   10  H   UNL     1      -8.988   3.921 -33.315  1.00  0.00     0.178 HD
ENDROOT
BRANCH   1  11
HETATM   11  C   UNL     1     -10.506   1.790 -34.337  1.00  0.00    -0.035 A 
HETATM   12  C   UNL     1     -10.888   0.668 -33.589  1.00  0.00     0.012 A 
HETATM   13  C   UNL     1     -12.239   0.343 -33.427  1.00  0.00     0.037 A 
HETATM   14  C   UNL     1     -13.240   1.126 -34.000  1.00  0.00     0.068 A 
HETATM   15  C   UNL     1     -12.876   2.239 -34.754  1.00  0.00     0.037 A 
HETATM   16  C   UNL     1     -11.525   2.567 -34.919  1.00  0.00     0.012 A 
BRANCH  14  17
HETATM   17  O   UNL     1     -14.514   0.700 -33.754  1.00  0.00    -0.356 OA
HETATM   18  C   UNL     1     -15.345   1.565 -32.990  1.00  0.00     0.210 C 
ENDBRANCH  14  17
ENDBRANCH   1  11
BRANCH   8  19
HETATM   19  C   UNL     1      -6.682  -0.761 -33.765  1.00  0.00    -0.031 A 
HETATM   20  C   UNL     1      -6.965  -2.020 -34.320  1.00  0.00     0.028 A 
HETATM   21  C   UNL     1      -5.933  -2.927 -34.570  1.00  0.00     0.011 A 
HETATM   22 BR   UNL     1      -6.334  -4.618 -35.315  1.00  0.00    -0.051 Br
HETATM   23  C   UNL     1      -4.612  -2.597 -34.278  1.00  0.00     0.019 A 
HETATM   24  C   UNL     1      -4.318  -1.351 -33.730  1.00  0.00     0.002 A 
HETATM   25  C   UNL     1      -5.345  -0.438 -33.477  1.00  0.00     0.009 A 
ENDBRANCH   8  19
BRANCH   6  26
HETATM   26  N   UNL     1      -6.724   2.102 -29.301  1.00  0.00    -0.229 N 
HETATM   27  H   UNL     1      -7.396   2.532 -28.679  1.00  0.00     0.174 HD
HETATM   28  H   UNL     1      -5.765   2.383 -29.156  1.00  0.00     0.174 HD
ENDBRANCH   6  26
TORSDOF 4
ENDMDL
MODEL 2
REMARK VINA RESULT:      -9.0      3.780      6.165
REMARK  4 active torsions:
REMARK  status: ('A' for Active; 'I' for Inactive)
REMARK    1  A    between atoms: O_2  and  C_3 
REMARK    2  A    between atoms: C_6  and  C_7 
REMARK    3  A    between atoms: C_12  and  N_13 
REMARK    4  A    between atoms: C_15  and  C_16 
ROOT
HETATM    1  C   UNL     1      -4.944   1.373 -31.542  1.00  0.00     0.135 C 
HETATM    2  N   UNL     1      -6.292   1.447 -30.991  1.00  0.00    -0.214 N 
HETATM    3  C   UNL     1      -7.345   0.984 -31.696  1.00  0.00     0.736 A 
HETATM    4  N   UNL     1      -7.176   0.201 -32.807  1.00  0.00    -0.074 N 
HETATM    5  N   UNL     1      -8.350  -0.021 -33.426  1.00  0.00     0.037 NA
HETATM    6  C   UNL     1      -9.193   0.560 -32.576  1.00  0.00     0.753 A 
HETATM    7  N   UNL     1      -8.621   1.210 -31.523  1.00  0.00     0.131 NA
HETATM    8  C   UNL     1      -5.874  -0.145 -33.367  1.00  0.00     0.164 C 
HETATM    9  C   UNL     1      -4.766   0.054 -32.316  1.00  0.00     0.063 C 
HETATM   10  H   UNL     1      -6.469   2.209 -30.343  1.00  0.00     0.178 HD
ENDROOT
BRANCH   1  11
HETATM   11  C   UNL     1      -4.546   2.600 -32.351  1.00  0.00    -0.035 A 
HETATM   12  C   UNL     1      -5.455   3.372 -33.088  1.00  0.00     0.012 A 
HETATM   13  C   UNL     1      -5.025   4.492 -33.806  1.00  0.00     0.037 A 
HETATM   14  C   UNL     1      -3.684   4.874 -33.805  1.00  0.00     0.068 A 
HETATM   15  C   UNL     1      -2.766   4.113 -33.086  1.00  0.00     0.037 A 
HETATM   16  C   UNL     1      -3.194   2.990 -32.366  1.00  0.00     0.012 A 
BRANCH  14  17
HETATM   17  O   UNL     1      -3.405   5.992 -34.540  1.00  0.00    -0.356 OA
HETATM   18  C   UNL     1      -2.229   6.712 -34.193  1.00  0.00     0.210 C 
ENDBRANCH  14  17
ENDBRANCH   1  11
BRANCH   8  19
HETATM   19  C   UNL     1      -5.829  -1.565 -33.918  1.00  0.00    -0.031 A 
HETATM   20  C   UNL     1      -4.747  -2.402 -33.598  1.00  0.00     0.028 A 
HETATM   21  C   UNL     1      -4.707  -3.714 -34.074  1.00  0.00     0.011 A 
HETATM   22 BR   UNL     1      -3.241  -4.825 -33.635  1.00  0.00    -0.051 Br
HETATM   23  C   UNL     1      -5.738  -4.213 -34.867  1.00  0.00     0.019 A 
HETATM   24  C   UNL     1      -6.817  -3.394 -35.190  1.00  0.00     0.002 A 
HETATM   25  C   UNL     1      -6.864  -2.081 -34.717  1.00  0.00     0.009 A 
ENDBRANCH   8  19
BRANCH   6  26
HETATM   26  N   UNL     1     -10.515   0.603 -32.709  1.00  0.00    -0.229 N 
HETATM   27  H   UNL     1     -10.922  -0.011 -33.402  1.00  0.00     0.174 HD
HETATM   28  H   UNL     1     -10.950   1.512 -32.634  1.00  0.00     0.174 HD
ENDBRANCH   6  26
TORSDOF 4
ENDMDL
MODEL 3
REMARK VINA RESULT:      -8.3      3.181      6.650
REMARK  4 active torsions:
REMARK  status: ('A' for Active; 'I' for Inactive)
REMARK    1  A    between atoms: O_2  and  C_3 
REMARK    2  A    between atoms: C_6  and  C_7 
REMARK    3  A    between atoms: C_12  and  N_13 
REMARK    4  A    between atoms: C_15  and  C_16 
ROOT
HETATM    1  C   UNL     1      -7.819   0.413 -31.801  1.00  0.00     0.135 C 
HETATM    2  N   UNL     1      -7.223   1.678 -31.386  1.00  0.00    -0.214 N 
HETATM    3  C   UNL     1      -7.303   2.765 -32.182  1.00  0.00     0.736 A 
HETATM    4  N   UNL     1      -8.152   2.808 -33.256  1.00  0.00    -0.074 N 
HETATM    5  N   UNL     1      -7.959   3.924 -33.981  1.00  0.00     0.037 NA
HETATM    6  C   UNL     1      -7.064   4.558 -33.229  1.00  0.00     0.753 A 
HETATM    7  N   UNL     1      -6.614   3.876 -32.138  1.00  0.00     0.131 NA
HETATM    8  C   UNL     1      -8.983   1.686 -33.679  1.00  0.00     0.164 C 
HETATM    9  C   UNL     1      -9.149   0.675 -32.529  1.00  0.00     0.063 C 
HETATM   10  H   UNL     1      -6.415   1.613 -30.774  1.00  0.00     0.178 HD
ENDROOT
BRANCH   1  11
HETATM   11  C   UNL     1      -6.869  -0.479 -32.591  1.00  0.00    -0.035 A 
HETATM   12  C   UNL     1      -5.510  -0.629 -32.284  1.00  0.00     0.012 A 
HETATM   13  C   UNL     1      -4.693  -1.469 -33.047  1.00  0.00     0.037 A 
HETATM   14  C   UNL     1      -5.207  -2.182 -34.129  1.00  0.00     0.068 A 
HETATM   15  C   UNL     1      -6.553  -2.036 -34.454  1.00  0.00     0.037 A 
HETATM   16  C   UNL     1      -7.374  -1.195 -33.692  1.00  0.00     0.012 A 
BRANCH  14  17
HETATM   17  O   UNL     1      -4.301  -2.971 -34.780  1.00  0.00    -0.356 OA
HETATM   18  C   UNL     1      -3.846  -4.129 -34.092  1.00  0.00     0.210 C 
ENDBRANCH  14  17
ENDBRANCH   1  11
BRANCH   8  19
HETATM   19  C   UNL     1     -10.347   2.126 -34.196  1.00  0.00    -0.031 A 
HETATM   20  C   UNL     1     -11.471   1.312 -33.976  1.00  0.00     0.028 A 
HETATM   21  C   UNL     1     -12.731   1.717 -34.420  1.00  0.00     0.011 A 
HETATM   22 BR   UNL     1     -14.231   0.606 -34.117  1.00  0.00    -0.051 Br
HETATM   23  C   UNL     1     -12.894   2.932 -35.082  1.00  0.00     0.019 A 
HETATM   24  C   UNL     1     -11.789   3.749 -35.304  1.00  0.00     0.002 A 
HETATM   25  C   UNL     1     -10.525   3.351 -34.862  1.00  0.00     0.009 A 
ENDBRANCH   8  19
BRANCH   6  26
HETATM   26  N   UNL     1      -6.544   5.754 -33.490  1.00  0.00    -0.229 N 
HETATM   27  H   UNL     1      -7.181   6.460 -33.832  1.00  0.00     0.174 HD
HETATM   28  H   UNL     1      -5.624   5.767 -33.909  1.00  0.00     0.174 HD
ENDBRANCH   6  26
TORSDOF 4
ENDMDL
MODEL 4
REMARK VINA RESULT:      -8.3      3.616      6.737
REMARK  4 active torsions:
REMARK  status: ('A' for Active; 'I' for Inactive)
REMARK    1  A    between atoms: O_2  and  C_3 
REMARK    2  A    between atoms: C_6  and  C_7 
REMARK    3  A    between atoms: C_12  and  N_13 
REMARK    4  A    between atoms: C_15  and  C_16 
ROOT
HETATM    1  C   UNL     1      -6.371   0.807 -31.820  1.00  0.00     0.135 C 
HETATM    2  N   UNL     1      -5.297   1.793 -31.830  1.00  0.00    -0.214 N 
HETATM    3  C   UNL     1      -5.335   2.835 -32.687  1.00  0.00     0.736 A 
HETATM    4  N   UNL     1      -6.473   3.158 -33.376  1.00  0.00    -0.074 N 
HETATM    5  N   UNL     1      -6.238   4.134 -34.271  1.00  0.00     0.037 NA
HETATM    6  C   UNL     1      -4.971   4.429 -33.990  1.00  0.00     0.753 A 
HETATM    7  N   UNL     1      -4.373   3.643 -33.051  1.00  0.00     0.131 NA
HETATM    8  C   UNL     1      -7.709   2.386 -33.308  1.00  0.00     0.164 C 
HETATM    9  C   UNL     1      -7.725   1.503 -32.046  1.00  0.00     0.063 C 
HETATM   10  H   UNL     1      -4.380   1.460 -31.548  1.00  0.00     0.178 HD
ENDROOT
BRANCH   1  11
HETATM   11  C   UNL     1      -6.133  -0.363 -32.766  1.00  0.00    -0.035 A 
HETATM   12  C   UNL     1      -7.144  -0.955 -33.537  1.00  0.00     0.012 A 
HETATM   13  C   UNL     1      -6.858  -2.024 -34.392  1.00  0.00     0.037 A 
HETATM   14  C   UNL     1      -5.563  -2.528 -34.503  1.00  0.00     0.068 A 
HETATM   15  C   UNL     1      -4.550  -1.958 -33.738  1.00  0.00     0.037 A 
HETATM   16  C   UNL     1      -4.833  -0.887 -32.880  1.00  0.00     0.012 A 
BRANCH  14  17
HETATM   17  O   UNL     1      -5.424  -3.566 -35.381  1.00  0.00    -0.356 OA
HETATM   18  C   UNL     1      -6.449  -4.551 -35.380  1.00  0.00     0.210 C 
ENDBRANCH  14  17
ENDBRANCH   1  11
BRANCH   8  19
HETATM   19  C   UNL     1      -8.955   3.263 -33.353  1.00  0.00    -0.031 A 
HETATM   20  C   UNL     1      -9.903   3.075 -34.372  1.00  0.00     0.028 A 
HETATM   21  C   UNL     1     -11.061   3.854 -34.409  1.00  0.00     0.011 A 
HETATM   22 BR   UNL     1     -12.324   3.588 -35.791  1.00  0.00    -0.051 Br
HETATM   23  C   UNL     1     -11.296   4.823 -33.436  1.00  0.00     0.019 A 
HETATM   24  C   UNL     1     -10.365   5.017 -32.419  1.00  0.00     0.002 A 
HETATM   25  C   UNL     1      -9.204   4.242 -32.375  1.00  0.00     0.009 A 
ENDBRANCH   8  19
BRANCH   6  26
HETATM   26  N   UNL     1      -4.247   5.371 -34.586  1.00  0.00    -0.229 N 
HETATM   27  H   UNL     1      -4.217   6.275 -34.133  1.00  0.00     0.174 HD
HETATM   28  H   UNL     1      -4.281   5.398 -35.596  1.00  0.00     0.174 HD
ENDBRANCH   6  26
TORSDOF 4
ENDMDL
MODEL 5
REMARK VINA RESULT:      -8.3      4.706      7.061
REMARK  4 active torsions:
REMARK  status: ('A' for Active; 'I' for Inactive)
REMARK    1  A    between atoms: O_2  and  C_3 
REMARK    2  A    between atoms: C_6  and  C_7 
REMARK    3  A    between atoms: C_12  and  N_13 
REMARK    4  A    between atoms: C_15  and  C_16 
ROOT
HETATM    1  C   UNL     1      -5.774   0.372 -31.171  1.00  0.00     0.135 C 
HETATM    2  N   UNL     1      -4.492   0.953 -30.791  1.00  0.00    -0.214 N 
HETATM    3  C   UNL     1      -4.052   2.084 -31.380  1.00  0.00     0.736 A 
HETATM    4  N   UNL     1      -4.881   2.865 -32.142  1.00  0.00    -0.074 N 
HETATM    5  N   UNL     1      -4.195   3.855 -32.742  1.00  0.00     0.037 NA
HETATM    6  C   UNL     1      -2.988   3.679 -32.211  1.00  0.00     0.753 A 
HETATM    7  N   UNL     1      -2.849   2.594 -31.399  1.00  0.00     0.131 NA
HETATM    8  C   UNL     1      -6.267   2.526 -32.442  1.00  0.00     0.164 C 
HETATM    9  C   UNL     1      -6.799   1.490 -31.435  1.00  0.00     0.063 C 
HETATM   10  H   UNL     1      -3.787   0.302 -30.457  1.00  0.00     0.178 HD
ENDROOT
BRANCH   1  11
HETATM   11  C   UNL     1      -5.675  -0.631 -32.314  1.00  0.00    -0.035 A 
HETATM   12  C   UNL     1      -4.498  -1.316 -32.644  1.00  0.00     0.012 A 
HETATM   13  C   UNL     1      -4.475  -2.230 -33.703  1.00  0.00     0.037 A 
HETATM   14  C   UNL     1      -5.621  -2.486 -34.455  1.00  0.00     0.068 A 
HETATM   15  C   UNL     1      -6.796  -1.807 -34.146  1.00  0.00     0.037 A 
HETATM   16  C   UNL     1      -6.822  -0.891 -33.086  1.00  0.00     0.012 A 
BRANCH  14  17
HETATM   17  O   UNL     1      -5.460  -3.407 -35.452  1.00  0.00    -0.356 OA
HETATM   18  C   UNL     1      -6.300  -4.553 -35.411  1.00  0.00     0.210 C 
ENDBRANCH  14  17
ENDBRANCH   1  11
BRANCH   8  19
HETATM   19  C   UNL     1      -7.178   3.747 -32.473  1.00  0.00    -0.031 A 
HETATM   20  C   UNL     1      -7.551   4.369 -31.270  1.00  0.00     0.028 A 
HETATM   21  C   UNL     1      -8.363   5.505 -31.285  1.00  0.00     0.011 A 
HETATM   22 BR   UNL     1      -8.855   6.326 -29.655  1.00  0.00    -0.051 Br
HETATM   23  C   UNL     1      -8.811   6.040 -32.491  1.00  0.00     0.019 A 
HETATM   24  C   UNL     1      -8.447   5.434 -33.691  1.00  0.00     0.002 A 
HETATM   25  C   UNL     1      -7.635   4.298 -33.683  1.00  0.00     0.009 A 
ENDBRANCH   8  19
BRANCH   6  26
HETATM   26  N   UNL     1      -1.920   4.431 -32.458  1.00  0.00    -0.229 N 
HETATM   27  H   UNL     1      -1.033   4.087 -32.115  1.00  0.00     0.174 HD
HETATM   28  H   UNL     1      -2.044   5.432 -32.395  1.00  0.00     0.174 HD
ENDBRANCH   6  26
TORSDOF 4
ENDMDL
MODEL 6
REMARK VINA RESULT:      -8.2      4.338      6.909
REMARK  4 active torsions:
REMARK  status: ('A' for Active; 'I' for Inactive)
REMARK    1  A    between atoms: O_2  and  C_3 
REMARK    2  A    between atoms: C_6  and  C_7 
REMARK    3  A    between atoms: C_12  and  N_13 
REMARK    4  A    between atoms: C_15  and  C_16 
ROOT
HETATM    1  C   UNL     1      -5.876   0.503 -31.338  1.00  0.00     0.135 C 
HETATM    2  N   UNL     1      -4.576   1.072 -31.005  1.00  0.00    -0.214 N 
HETATM    3  C   UNL     1      -4.134   2.183 -31.633  1.00  0.00     0.736 A 
HETATM    4  N   UNL     1      -4.970   2.958 -32.391  1.00  0.00    -0.074 N 
HETATM    5  N   UNL     1      -4.286   3.922 -33.033  1.00  0.00     0.037 NA
HETATM    6  C   UNL     1      -3.068   3.741 -32.529  1.00  0.00     0.753 A 
HETATM    7  N   UNL     1      -2.924   2.673 -31.694  1.00  0.00     0.131 NA
HETATM    8  C   UNL     1      -6.369   2.634 -32.648  1.00  0.00     0.164 C 
HETATM    9  C   UNL     1      -6.890   1.630 -31.602  1.00  0.00     0.063 C 
HETATM   10  H   UNL     1      -3.872   0.419 -30.673  1.00  0.00     0.178 HD
ENDROOT
BRANCH   1  11
HETATM   11  C   UNL     1      -5.822  -0.528 -32.458  1.00  0.00    -0.035 A 
HETATM   12  C   UNL     1      -6.922  -0.860 -33.261  1.00  0.00     0.012 A 
HETATM   13  C   UNL     1      -6.804  -1.813 -34.278  1.00  0.00     0.037 A 
HETATM   14  C   UNL     1      -5.591  -2.455 -34.522  1.00  0.00     0.068 A 
HETATM   15  C   UNL     1      -4.491  -2.145 -33.727  1.00  0.00     0.037 A 
HETATM   16  C   UNL     1      -4.606  -1.191 -32.708  1.00  0.00     0.012 A 
BRANCH  14  17
HETATM   17  O   UNL     1      -5.615  -3.355 -35.550  1.00  0.00    -0.356 OA
HETATM   18  C   UNL     1      -6.366  -4.545 -35.346  1.00  0.00     0.210 C 
ENDBRANCH  14  17
ENDBRANCH   1  11
BRANCH   8  19
HETATM   19  C   UNL     1      -7.262   3.868 -32.685  1.00  0.00    -0.031 A 
HETATM   20  C   UNL     1      -8.123   4.072 -33.776  1.00  0.00     0.028 A 
HETATM   21  C   UNL     1      -8.967   5.184 -33.809  1.00  0.00     0.011 A 
HETATM   22 BR   UNL     1     -10.116   5.443 -35.288  1.00  0.00    -0.051 Br
HETATM   23  C   UNL     1      -8.970   6.104 -32.763  1.00  0.00     0.019 A 
HETATM   24  C   UNL     1      -8.123   5.911 -31.674  1.00  0.00     0.002 A 
HETATM   25  C   UNL     1      -7.277   4.801 -31.633  1.00  0.00     0.009 A 
ENDBRANCH   8  19
BRANCH   6  26
HETATM   26  N   UNL     1      -1.995   4.470 -32.822  1.00  0.00    -0.229 N 
HETATM   27  H   UNL     1      -1.183   4.337 -32.234  1.00  0.00     0.174 HD
HETATM   28  H   UNL     1      -2.160   5.422 -33.117  1.00  0.00     0.174 HD
ENDBRANCH   6  26
TORSDOF 4
ENDMDL
MODEL 7
REMARK VINA RESULT:      -8.2      4.891      6.730
REMARK  4 active torsions:
REMARK  status: ('A' for Active; 'I' for Inactive)
REMARK    1  A    between atoms: O_2  and  C_3 
REMARK    2  A    between atoms: C_6  and  C_7 
REMARK    3  A    between atoms: C_12  and  N_13 
REMARK    4  A    between atoms: C_15  and  C_16 
ROOT
HETATM    1  C   UNL     1      -6.610   3.160 -34.025  1.00  0.00     0.135 C 
HETATM    2  N   UNL     1      -7.316   3.633 -32.840  1.00  0.00    -0.214 N 
HETATM    3  C   UNL     1      -6.634   3.958 -31.722  1.00  0.00     0.736 A 
HETATM    4  N   UNL     1      -5.274   4.115 -31.731  1.00  0.00    -0.074 N 
HETATM    5  N   UNL     1      -4.799   4.294 -30.485  1.00  0.00     0.037 NA
HETATM    6  C   UNL     1      -5.933   4.347 -29.792  1.00  0.00     0.753 A 
HETATM    7  N   UNL     1      -7.074   4.117 -30.501  1.00  0.00     0.131 NA
HETATM    8  C   UNL     1      -4.438   3.885 -32.904  1.00  0.00     0.164 C 
HETATM    9  C   UNL     1      -5.287   3.930 -34.188  1.00  0.00     0.063 C 
HETATM   10  H   UNL     1      -8.266   3.292 -32.719  1.00  0.00     0.178 HD
ENDROOT
BRANCH   1  11
HETATM   11  C   UNL     1      -6.432   1.648 -34.067  1.00  0.00    -0.035 A 
HETATM   12  C   UNL     1      -5.568   0.945 -33.216  1.00  0.00     0.012 A 
HETATM   13  C   UNL     1      -5.455  -0.447 -33.303  1.00  0.00     0.037 A 
HETATM   14  C   UNL     1      -6.199  -1.171 -34.233  1.00  0.00     0.068 A 
HETATM   15  C   UNL     1      -7.055  -0.486 -35.092  1.00  0.00     0.037 A 
HETATM   16  C   UNL     1      -7.170   0.907 -35.008  1.00  0.00     0.012 A 
BRANCH  14  17
HETATM   17  O   UNL     1      -5.999  -2.522 -34.203  1.00  0.00    -0.356 OA
HETATM   18  C   UNL     1      -4.659  -2.977 -34.343  1.00  0.00     0.210 C 
ENDBRANCH  14  17
ENDBRANCH   1  11
BRANCH   8  19
HETATM   19  C   UNL     1      -3.279   4.871 -33.003  1.00  0.00    -0.031 A 
HETATM   20  C   UNL     1      -2.174   4.735 -32.147  1.00  0.00     0.028 A 
HETATM   21  C   UNL     1      -1.094   5.614 -32.246  1.00  0.00     0.011 A 
HETATM   22 BR   UNL     1       0.382   5.417 -31.081  1.00  0.00    -0.051 Br
HETATM   23  C   UNL     1      -1.093   6.633 -33.195  1.00  0.00     0.019 A 
HETATM   24  C   UNL     1      -2.182   6.777 -34.052  1.00  0.00     0.002 A 
HETATM   25  C   UNL     1      -3.266   5.901 -33.959  1.00  0.00     0.009 A 
ENDBRANCH   8  19
BRANCH   6  26
HETATM   26  N   UNL     1      -6.027   4.541 -28.480  1.00  0.00    -0.229 N 
HETATM   27  H   UNL     1      -6.900   4.922 -28.139  1.00  0.00     0.174 HD
HETATM   28  H   UNL     1      -5.199   4.880 -28.010  1.00  0.00     0.174 HD
ENDBRANCH   6  26
TORSDOF 4
ENDMDL
MODEL 8
REMARK VINA RESULT:      -8.1      3.580      4.770
REMARK  4 active torsions:
REMARK  status: ('A' for Active; 'I' for Inactive)
REMARK    1  A    between atoms: O_2  and  C_3 
REMARK    2  A    between atoms: C_6  and  C_7 
REMARK    3  A    between atoms: C_12  and  N_13 
REMARK    4  A    between atoms: C_15  and  C_16 
ROOT
HETATM    1  C   UNL     1      -8.081   2.197 -31.070  1.00  0.00     0.135 C 
HETATM    2  N   UNL     1      -7.319   1.033 -30.635  1.00  0.00    -0.214 N 
HETATM    3  C   UNL     1      -6.284   0.578 -31.372  1.00  0.00     0.736 A 
HETATM    4  N   UNL     1      -5.745   1.322 -32.388  1.00  0.00    -0.074 N 
HETATM    5  N   UNL     1      -4.827   0.615 -33.071  1.00  0.00     0.037 NA
HETATM    6  C   UNL     1      -4.783  -0.500 -32.347  1.00  0.00     0.753 A 
HETATM    7  N   UNL     1      -5.674  -0.577 -31.320  1.00  0.00     0.131 NA
HETATM    8  C   UNL     1      -6.266   2.618 -32.810  1.00  0.00     0.164 C 
HETATM    9  C   UNL     1      -7.137   3.236 -31.700  1.00  0.00     0.063 C 
HETATM   10  H   UNL     1      -7.824   0.349 -30.077  1.00  0.00     0.178 HD
ENDROOT
BRANCH   1  11
HETATM   11  C   UNL     1      -9.270   1.851 -31.958  1.00  0.00    -0.035 A 
HETATM   12  C   UNL     1      -9.565   0.549 -32.387  1.00  0.00     0.012 A 
HETATM   13  C   UNL     1     -10.676   0.298 -33.198  1.00  0.00     0.037 A 
HETATM   14  C   UNL     1     -11.521   1.332 -33.599  1.00  0.00     0.068 A 
HETATM   15  C   UNL     1     -11.236   2.633 -33.191  1.00  0.00     0.037 A 
HETATM   16  C   UNL     1     -10.123   2.887 -32.379  1.00  0.00     0.012 A 
BRANCH  14  17
HETATM   17  O   UNL     1     -12.572   0.945 -34.381  1.00  0.00    -0.356 OA
HETATM   18  C   UNL     1     -13.502   0.037 -33.805  1.00  0.00     0.210 C 
ENDBRANCH  14  17
ENDBRANCH   1  11
BRANCH   8  19
HETATM   19  C   UNL     1      -5.166   3.590 -33.219  1.00  0.00    -0.031 A 
HETATM   20  C   UNL     1      -4.063   3.791 -32.372  1.00  0.00     0.028 A 
HETATM   21  C   UNL     1      -3.035   4.657 -32.747  1.00  0.00     0.011 A 
HETATM   22 BR   UNL     1      -1.561   4.917 -31.592  1.00  0.00    -0.051 Br
HETATM   23  C   UNL     1      -3.084   5.330 -33.966  1.00  0.00     0.019 A 
HETATM   24  C   UNL     1      -4.170   5.138 -34.816  1.00  0.00     0.002 A 
HETATM   25  C   UNL     1      -5.202   4.273 -34.447  1.00  0.00     0.009 A 
ENDBRANCH   8  19
BRANCH   6  26
HETATM   26  N   UNL     1      -3.993  -1.543 -32.585  1.00  0.00    -0.229 N 
HETATM   27  H   UNL     1      -3.049  -1.489 -32.226  1.00  0.00     0.174 HD
HETATM   28  H   UNL     1      -4.083  -1.983 -33.490  1.00  0.00     0.174 HD
ENDBRANCH   6  26
TORSDOF 4
ENDMDL
MODEL 9
REMARK VINA RESULT:      -8.1      4.568      5.918
REMARK  4 active torsions:
REMARK  status: ('A' for Active; 'I' for Inactive)
REMARK    1  A    between atoms: O_2  and  C_3 
REMARK    2  A    between atoms: C_6  and  C_7 
REMARK    3  A    between atoms: C_12  and  N_13 
REMARK    4  A    between atoms: C_15  and  C_16 
ROOT
HETATM    1  C   UNL     1      -6.432   2.785 -30.692  1.00  0.00     0.135 C 
HETATM    2  N   UNL     1      -5.756   1.633 -30.108  1.00  0.00    -0.214 N 
HETATM    3  C   UNL     1      -4.667   1.104 -30.705  1.00  0.00     0.736 A 
HETATM    4  N   UNL     1      -4.003   1.767 -31.703  1.00  0.00    -0.074 N 
HETATM    5  N   UNL     1      -3.044   0.993 -32.243  1.00  0.00     0.037 NA
HETATM    6  C   UNL     1      -3.110  -0.074 -31.450  1.00  0.00     0.753 A 
HETATM    7  N   UNL     1      -4.103  -0.061 -30.518  1.00  0.00     0.131 NA
HETATM    8  C   UNL     1      -4.437   3.045 -32.257  1.00  0.00     0.164 C 
HETATM    9  C   UNL     1      -5.395   3.756 -31.284  1.00  0.00     0.063 C 
HETATM   10  H   UNL     1      -6.337   1.000 -29.565  1.00  0.00     0.178 HD
ENDROOT
BRANCH   1  11
HETATM   11  C   UNL     1      -7.534   2.413 -31.675  1.00  0.00    -0.035 A 
HETATM   12  C   UNL     1      -7.919   3.224 -32.752  1.00  0.00     0.012 A 
HETATM   13  C   UNL     1      -8.937   2.821 -33.623  1.00  0.00     0.037 A 
HETATM   14  C   UNL     1      -9.592   1.603 -33.447  1.00  0.00     0.068 A 
HETATM   15  C   UNL     1      -9.228   0.790 -32.377  1.00  0.00     0.037 A 
HETATM   16  C   UNL     1      -8.210   1.191 -31.503  1.00  0.00     0.012 A 
BRANCH  14  17
HETATM   17  O   UNL     1     -10.557   1.330 -34.375  1.00  0.00    -0.356 OA
HETATM   18  C   UNL     1     -11.878   1.127 -33.889  1.00  0.00     0.210 C 
ENDBRANCH  14  17
ENDBRANCH   1  11
BRANCH   8  19
HETATM   19  C   UNL     1      -3.269   3.959 -32.610  1.00  0.00    -0.031 A 
HETATM   20  C   UNL     1      -2.304   4.264 -31.636  1.00  0.00     0.028 A 
HETATM   21  C   UNL     1      -1.215   5.078 -31.953  1.00  0.00     0.011 A 
HETATM   22 BR   UNL     1       0.072   5.479 -30.627  1.00  0.00    -0.051 Br
HETATM   23  C   UNL     1      -1.067   5.595 -33.238  1.00  0.00     0.019 A 
HETATM   24  C   UNL     1      -2.016   5.298 -34.214  1.00  0.00     0.002 A 
HETATM   25  C   UNL     1      -3.107   4.485 -33.903  1.00  0.00     0.009 A 
ENDBRANCH   8  19
BRANCH   6  26
HETATM   26  N   UNL     1      -2.334  -1.150 -31.539  1.00  0.00    -0.229 N 
HETATM   27  H   UNL     1      -1.698  -1.187 -32.324  1.00  0.00     0.174 HD
HETATM   28  H   UNL     1      -2.754  -2.034 -31.286  1.00  0.00     0.174 HD
ENDBRANCH   6  26
TORSDOF 4
ENDMDL
MODEL 10
REMARK VINA RESULT:      -7.9     14.552     16.005
REMARK  4 active torsions:
REMARK  status: ('A' for Active; 'I' for Inactive)
REMARK    1  A    between atoms: O_2  and  C_3 
REMARK    2  A    between atoms: C_6  and  C_7 
REMARK    3  A    between atoms: C_12  and  N_13 
REMARK    4  A    between atoms: C_15  and  C_16 
ROOT
HETATM    1  C   UNL     1      -7.484 -12.420 -37.917  1.00  0.00     0.135 C 
HETATM    2  N   UNL     1      -7.440 -12.946 -36.558  1.00  0.00    -0.214 N 
HETATM    3  C   UNL     1      -6.657 -14.003 -36.259  1.00  0.00     0.736 A 
HETATM    4  N   UNL     1      -5.692 -14.449 -37.124  1.00  0.00    -0.074 N 
HETATM    5  N   UNL     1      -5.139 -15.593 -36.683  1.00  0.00     0.037 NA
HETATM    6  C   UNL     1      -5.733 -15.718 -35.500  1.00  0.00     0.753 A 
HETATM    7  N   UNL     1      -6.687 -14.787 -35.213  1.00  0.00     0.131 NA
HETATM    8  C   UNL     1      -5.466 -13.884 -38.450  1.00  0.00     0.164 C 
HETATM    9  C   UNL     1      -6.081 -12.475 -38.547  1.00  0.00     0.063 C 
HETATM   10  H   UNL     1      -8.282 -12.823 -36.003  1.00  0.00     0.178 HD
ENDROOT
BRANCH   1  11
HETATM   11  C   UNL     1      -8.556 -13.064 -38.786  1.00  0.00    -0.035 A 
HETATM   12  C   UNL     1      -8.802 -14.444 -38.820  1.00  0.00     0.012 A 
HETATM   13  C   UNL     1      -9.806 -14.972 -39.637  1.00  0.00     0.037 A 
HETATM   14  C   UNL     1     -10.592 -14.143 -40.436  1.00  0.00     0.068 A 
HETATM   15  C   UNL     1     -10.356 -12.771 -40.421  1.00  0.00     0.037 A 
HETATM   16  C   UNL     1      -9.350 -12.239 -39.605  1.00  0.00     0.012 A 
BRANCH  14  17
HETATM   17  O   UNL     1     -11.542 -14.789 -41.176  1.00  0.00    -0.356 OA
HETATM   18  C   UNL     1     -11.078 -15.720 -42.146  1.00  0.00     0.210 C 
ENDBRANCH  14  17
ENDBRANCH   1  11
BRANCH   8  19
HETATM   19  C   UNL     1      -3.991 -13.843 -38.828  1.00  0.00    -0.031 A 
HETATM   20  C   UNL     1      -3.488 -14.754 -39.772  1.00  0.00     0.028 A 
HETATM   21  C   UNL     1      -2.144 -14.709 -40.148  1.00  0.00     0.011 A 
HETATM   22 BR   UNL     1      -1.486 -15.947 -41.417  1.00  0.00    -0.051 Br
HETATM   23  C   UNL     1      -1.285 -13.761 -39.598  1.00  0.00     0.019 A 
HETATM   24  C   UNL     1      -1.771 -12.849 -38.664  1.00  0.00     0.002 A 
HETATM   25  C   UNL     1      -3.114 -12.888 -38.283  1.00  0.00     0.009 A 
ENDBRANCH   8  19
BRANCH   6  26
HETATM   26  N   UNL     1      -5.514 -16.695 -34.625  1.00  0.00    -0.229 N 
HETATM   27  H   UNL     1      -6.331 -17.134 -34.222  1.00  0.00     0.174 HD
HETATM   28  H   UNL     1      -4.737 -16.570 -33.991  1.00  0.00     0.174 HD
ENDBRANCH   6  26
TORSDOF 4
ENDMDL
