MODEL 1
REMARK VINA RESULT:      -9.4      0.000      0.000
REMARK  8 active torsions:
REMARK  status: ('A' for Active; 'I' for Inactive)
REMARK    1  A    between atoms: C_3  and  C_27 
REMARK       I    between atoms: N_12  and  C_13 
REMARK    2  A    between atoms: C_13  and  C_14 
REMARK    3  A    between atoms: C_14  and  O_15 
REMARK    4  A    between atoms: C_18  and  C_36 
REMARK    5  A    between atoms: O_19  and  C_36 
REMARK    6  A    between atoms: C_20  and  O_21 
REMARK    7  A    between atoms: C_27  and  C_28 
REMARK       I    between atoms: C_28  and  N_29 
REMARK    8  A    between atoms: N_29  and  C_30 
ROOT
HETATM    1  C           1      -5.994   2.064 -30.140  0.00  0.00     0.016 C 
HETATM    2  C           1      -5.915   1.625 -31.626  0.00  0.00    -0.030 C 
HETATM    3  C           1      -4.404   1.552 -32.022  0.00  0.00     0.056 C 
HETATM    4  C           1      -3.920   2.944 -32.294  0.00  0.00     0.056 A 
HETATM    5  C           1      -4.610   3.792 -33.053  0.00  0.00     0.012 A 
HETATM    6  S           1      -3.910   5.077 -33.141  0.00  0.00    -0.055 SA
HETATM    7  C           1      -2.791   4.638 -32.299  0.00  0.00     0.174 A 
HETATM    8  N           1      -1.795   5.508 -32.045  0.00  0.00    -0.304 N 
HETATM    9  C           1      -0.679   5.354 -31.275  0.00  0.00     0.247 C 
HETATM   10  O           1      -0.421   4.349 -30.662  0.00  0.00    -0.271 OA
HETATM   11  N           1      -2.858   3.455 -31.854  0.00  0.00    -0.227 NA
HETATM   12  C           1      -8.145   2.190 -33.013  0.00  0.00     0.008 C 
HETATM   13  C           1      -8.844   1.296 -31.972  0.00  0.00     0.128 C 
HETATM   14  C           1      -6.518   0.211 -31.738  0.00  0.00     0.013 C 
HETATM   15  H           1      -1.929   6.389 -32.519  0.00  0.00     0.171 HD
HETATM   16  C           1      -8.100   1.433 -34.364  0.00  0.00     0.020 C 
HETATM   17  C           1      -5.920   3.351 -33.624  0.00  0.00     0.055 C 
HETATM   18  C           1      -6.732   2.640 -32.513  0.00  0.00     0.012 C 
HETATM   19  C           1      -8.012   0.144 -31.408  0.00  0.00     0.033 C 
ENDROOT
BRANCH   3  20
HETATM   20  C           1      -3.440   0.809 -31.071  0.00  0.00     0.114 C 
BRANCH  20  21
HETATM   21  C           1      -2.949  -0.514 -31.654  0.00  0.00     0.222 C 
HETATM   22  O           1      -1.790  -0.829 -31.583  0.00  0.00    -0.273 OA
HETATM   23  N           1      -3.929  -1.270 -32.227  0.00  0.00    -0.327 N 
HETATM   24  H           1      -4.869  -0.903 -32.207  0.00  0.00     0.169 HD
BRANCH  23  25
HETATM   25  C           1      -3.933  -2.478 -32.828  0.00  0.00     0.034 A 
HETATM   26  C           1      -4.686  -2.571 -33.941  0.00  0.00     0.029 A 
HETATM   27  C           1      -4.781  -3.718 -34.630  0.00  0.00     0.002 A 
HETATM   28  C           1      -4.113  -4.803 -34.214  0.00  0.00     0.000 A 
HETATM   29  C           1      -3.354  -4.727 -33.111  0.00  0.00     0.002 A 
HETATM   30  C           1      -3.265  -3.574 -32.427  0.00  0.00     0.029 A 
ENDBRANCH  23  25
ENDBRANCH  20  21
ENDBRANCH   3  20
BRANCH  12  31
HETATM   31  C           1      -9.014   3.451 -33.257  0.00  0.00     0.176 C 
BRANCH  31  32
HETATM   32  O           1     -10.379   3.109 -33.394  0.00  0.00    -0.400 OA
HETATM   33  H           1     -10.573   2.913 -34.312  0.00  0.00     0.209 HD
ENDBRANCH  31  32
ENDBRANCH  12  31
BRANCH  13  34
HETATM   34  O           1      -9.324   2.103 -30.921  0.00  0.00    -0.395 OA
HETATM   35  H           1      -9.906   1.562 -30.379  0.00  0.00     0.210 HD
ENDBRANCH  13  34
BRANCH   9  36
HETATM   36  C           1       0.226   6.577 -31.249  0.00  0.00     0.270 C 
BRANCH  36  37
HETATM   37  O           1       0.550   6.937 -29.919  0.00  0.00    -0.387 OA
HETATM   38  C           1      -0.514   7.599 -29.270  0.00  0.00     0.202 C 
ENDBRANCH  36  37
ENDBRANCH   9  36
TORSDOF 8
ENDMDL
MODEL 2
REMARK VINA RESULT:      -9.0      2.001      2.943
REMARK  8 active torsions:
REMARK  status: ('A' for Active; 'I' for Inactive)
REMARK    1  A    between atoms: C_3  and  C_27 
REMARK       I    between atoms: N_12  and  C_13 
REMARK    2  A    between atoms: C_13  and  C_14 
REMARK    3  A    between atoms: C_14  and  O_15 
REMARK    4  A    between atoms: C_18  and  C_36 
REMARK    5  A    between atoms: O_19  and  C_36 
REMARK    6  A    between atoms: C_20  and  O_21 
REMARK    7  A    between atoms: C_27  and  C_28 
REMARK       I    between atoms: C_28  and  N_29 
REMARK    8  A    between atoms: N_29  and  C_30 
ROOT
HETATM    1  C           1      -8.441   2.290 -31.372  0.00  0.00     0.016 C 
HETATM    2  C           1      -8.463   2.517 -32.907  0.00  0.00    -0.030 C 
HETATM    3  C           1      -7.010   2.297 -33.442  0.00  0.00     0.056 C 
HETATM    4  C           1      -6.212   3.534 -33.161  0.00  0.00     0.056 A 
HETATM    5  C           1      -6.681   4.750 -33.432  0.00  0.00     0.012 A 
HETATM    6  S           1      -5.699   5.768 -33.049  0.00  0.00    -0.055 SA
HETATM    7  C           1      -4.717   4.785 -32.576  0.00  0.00     0.174 A 
HETATM    8  N           1      -3.545   5.231 -32.083  0.00  0.00    -0.304 N 
HETATM    9  C           1      -2.499   4.530 -31.558  0.00  0.00     0.247 C 
HETATM   10  O           1      -2.485   3.330 -31.442  0.00  0.00    -0.271 OA
HETATM   11  N           1      -5.061   3.570 -32.655  0.00  0.00    -0.227 NA
HETATM   12  C           1     -10.494   4.079 -33.714  0.00  0.00     0.008 C 
HETATM   13  C           1     -11.386   3.000 -33.072  0.00  0.00     0.128 C 
HETATM   14  C           1      -9.381   1.449 -33.533  0.00  0.00     0.013 C 
HETATM   15  H           1      -3.467   6.236 -32.136  0.00  0.00     0.171 HD
HETATM   16  C           1     -10.623   3.976 -35.254  0.00  0.00     0.020 C 
HETATM   17  C           1      -8.057   4.884 -34.004  0.00  0.00     0.055 C 
HETATM   18  C           1      -9.016   3.960 -33.212  0.00  0.00     0.012 C 
HETATM   19  C           1     -10.850   1.569 -33.118  0.00  0.00     0.033 C 
ENDROOT
BRANCH   3  20
HETATM   20  C           1      -6.251   1.034 -32.980  0.00  0.00     0.114 C 
BRANCH  20  21
HETATM   21  C           1      -6.298  -0.087 -34.016  0.00  0.00     0.222 C 
HETATM   22  O           1      -6.595   0.141 -35.161  0.00  0.00    -0.273 OA
HETATM   23  N           1      -5.970  -1.316 -33.526  0.00  0.00    -0.327 N 
HETATM   24  H           1      -5.722  -1.374 -32.549  0.00  0.00     0.169 HD
BRANCH  23  25
HETATM   25  C           1      -5.873  -2.539 -34.085  0.00  0.00     0.034 A 
HETATM   26  C           1      -4.656  -3.113 -34.023  0.00  0.00     0.029 A 
HETATM   27  C           1      -4.423  -4.325 -34.547  0.00  0.00     0.002 A 
HETATM   28  C           1      -5.418  -4.994 -35.147  0.00  0.00     0.000 A 
HETATM   29  C           1      -6.638  -4.441 -35.214  0.00  0.00     0.002 A 
HETATM   30  C           1      -6.861  -3.226 -34.686  0.00  0.00     0.029 A 
ENDBRANCH  23  25
ENDBRANCH  20  21
ENDBRANCH   3  20
BRANCH  12  31
HETATM   31  C           1     -11.042   5.478 -33.331  0.00  0.00     0.176 C 
BRANCH  31  32
HETATM   32  O           1     -10.623   5.850 -32.032  0.00  0.00    -0.400 OA
HETATM   33  H           1      -9.977   6.556 -32.090  0.00  0.00     0.209 HD
ENDBRANCH  31  32
ENDBRANCH  12  31
BRANCH  13  34
HETATM   34  O           1     -11.666   3.368 -31.740  0.00  0.00    -0.395 OA
HETATM   35  H           1     -11.465   2.612 -31.180  0.00  0.00     0.210 HD
ENDBRANCH  13  34
BRANCH   9  36
HETATM   36  C           1      -1.332   5.402 -31.117  0.00  0.00     0.270 C 
BRANCH  36  37
HETATM   37  O           1      -0.217   4.608 -30.756  0.00  0.00    -0.387 OA
HETATM   38  C           1       0.527   5.179 -29.702  0.00  0.00     0.202 C 
ENDBRANCH  36  37
ENDBRANCH   9  36
TORSDOF 8
ENDMDL
MODEL 3
REMARK VINA RESULT:      -8.8      2.772      6.861
REMARK  8 active torsions:
REMARK  status: ('A' for Active; 'I' for Inactive)
REMARK    1  A    between atoms: C_3  and  C_27 
REMARK       I    between atoms: N_12  and  C_13 
REMARK    2  A    between atoms: C_13  and  C_14 
REMARK    3  A    between atoms: C_14  and  O_15 
REMARK    4  A    between atoms: C_18  and  C_36 
REMARK    5  A    between atoms: O_19  and  C_36 
REMARK    6  A    between atoms: C_20  and  O_21 
REMARK    7  A    between atoms: C_27  and  C_28 
REMARK       I    between atoms: C_28  and  N_29 
REMARK    8  A    between atoms: N_29  and  C_30 
ROOT
HETATM    1  C           1      -4.769   4.721 -34.584  0.00  0.00     0.016 C 
HETATM    2  C           1      -4.252   4.465 -33.143  0.00  0.00    -0.030 C 
HETATM    3  C           1      -5.192   3.405 -32.481  0.00  0.00     0.056 C 
HETATM    4  C           1      -6.440   4.101 -32.027  0.00  0.00     0.056 A 
HETATM    5  C           1      -6.400   5.247 -31.351  0.00  0.00     0.012 A 
HETATM    6  S           1      -7.759   5.702 -31.045  0.00  0.00    -0.055 SA
HETATM    7  C           1      -8.397   4.551 -31.695  0.00  0.00     0.174 A 
HETATM    8  N           1      -9.742   4.476 -31.698  0.00  0.00    -0.304 N 
HETATM    9  C           1     -10.561   3.538 -32.257  0.00  0.00     0.247 C 
HETATM   10  O           1     -10.163   2.586 -32.881  0.00  0.00    -0.271 OA
HETATM   11  N           1      -7.618   3.707 -32.225  0.00  0.00    -0.227 NA
HETATM   12  C           1      -2.820   6.513 -32.156  0.00  0.00     0.008 C 
HETATM   13  C           1      -1.903   6.265 -33.369  0.00  0.00     0.128 C 
HETATM   14  C           1      -2.835   3.866 -33.243  0.00  0.00     0.013 C 
HETATM   15  H           1     -10.167   5.242 -31.196  0.00  0.00     0.171 HD
HETATM   16  C           1      -2.086   6.040 -30.876  0.00  0.00     0.020 C 
HETATM   17  C           1      -5.071   5.872 -31.064  0.00  0.00     0.055 C 
HETATM   18  C           1      -4.214   5.829 -32.353  0.00  0.00     0.012 C 
HETATM   19  C           1      -1.799   4.817 -33.848  0.00  0.00     0.033 C 
ENDROOT
BRANCH   3  20
HETATM   20  C           1      -5.532   2.133 -33.287  0.00  0.00     0.114 C 
BRANCH  20  21
HETATM   21  C           1      -5.164   0.854 -32.539  0.00  0.00     0.222 C 
HETATM   22  O           1      -5.383   0.741 -31.361  0.00  0.00    -0.273 OA
HETATM   23  N           1      -4.598  -0.108 -33.322  0.00  0.00    -0.327 N 
HETATM   24  H           1      -4.484   0.100 -34.304  0.00  0.00     0.169 HD
BRANCH  23  25
HETATM   25  C           1      -4.152  -1.357 -33.076  0.00  0.00     0.034 A 
HETATM   26  C           1      -4.504  -2.290 -33.982  0.00  0.00     0.029 A 
HETATM   27  C           1      -4.130  -3.572 -33.851  0.00  0.00     0.002 A 
HETATM   28  C           1      -3.386  -3.945 -32.800  0.00  0.00     0.000 A 
HETATM   29  C           1      -3.022  -3.029 -31.891  0.00  0.00     0.002 A 
HETATM   30  C           1      -3.401  -1.747 -32.030  0.00  0.00     0.029 A 
ENDBRANCH  23  25
ENDBRANCH  20  21
ENDBRANCH   3  20
BRANCH  12  31
HETATM   31  C           1      -3.032   8.040 -31.989  0.00  0.00     0.176 C 
BRANCH  31  32
HETATM   32  O           1      -1.865   8.756 -32.341  0.00  0.00    -0.400 OA
HETATM   33  H           1      -1.151   8.525 -31.744  0.00  0.00     0.209 HD
ENDBRANCH  31  32
ENDBRANCH  12  31
BRANCH  13  34
HETATM   34  O           1      -2.312   7.096 -34.431  0.00  0.00    -0.395 OA
HETATM   35  H           1      -3.008   7.673 -34.101  0.00  0.00     0.210 HD
ENDBRANCH  13  34
BRANCH   9  36
HETATM   36  C           1     -12.043   3.799 -32.029  0.00  0.00     0.270 C 
BRANCH  36  37
HETATM   37  O           1     -12.803   3.402 -33.155  0.00  0.00    -0.387 OA
HETATM   38  C           1     -13.840   2.509 -32.812  0.00  0.00     0.202 C 
ENDBRANCH  36  37
ENDBRANCH   9  36
TORSDOF 8
ENDMDL
MODEL 4
REMARK VINA RESULT:      -8.6      3.639      7.354
REMARK  8 active torsions:
REMARK  status: ('A' for Active; 'I' for Inactive)
REMARK    1  A    between atoms: C_3  and  C_27 
REMARK       I    between atoms: N_12  and  C_13 
REMARK    2  A    between atoms: C_13  and  C_14 
REMARK    3  A    between atoms: C_14  and  O_15 
REMARK    4  A    between atoms: C_18  and  C_36 
REMARK    5  A    between atoms: O_19  and  C_36 
REMARK    6  A    between atoms: C_20  and  O_21 
REMARK    7  A    between atoms: C_27  and  C_28 
REMARK       I    between atoms: C_28  and  N_29 
REMARK    8  A    between atoms: N_29  and  C_30 
ROOT
HETATM    1  C           1      -6.503   4.229 -33.976  0.00  0.00     0.016 C 
HETATM    2  C           1      -6.341   3.563 -32.584  0.00  0.00    -0.030 C 
HETATM    3  C           1      -7.204   2.259 -32.576  0.00  0.00     0.056 C 
HETATM    4  C           1      -8.635   2.642 -32.348  0.00  0.00     0.056 A 
HETATM    5  C           1      -8.990   3.499 -31.393  0.00  0.00     0.012 A 
HETATM    6  S           1     -10.442   3.694 -31.403  0.00  0.00    -0.055 SA
HETATM    7  C           1     -10.660   2.766 -32.519  0.00  0.00     0.174 A 
HETATM    8  N           1     -11.918   2.567 -32.957  0.00  0.00    -0.304 N 
HETATM    9  C           1     -12.369   1.791 -33.985  0.00  0.00     0.247 C 
HETATM   10  O           1     -11.650   1.142 -34.702  0.00  0.00    -0.271 OA
HETATM   11  N           1      -9.624   2.224 -33.004  0.00  0.00    -0.227 NA
HETATM   12  C           1      -5.630   5.299 -30.660  0.00  0.00     0.008 C 
HETATM   13  C           1      -4.399   5.555 -31.550  0.00  0.00     0.128 C 
HETATM   14  C           1      -4.861   3.171 -32.412  0.00  0.00     0.013 C 
HETATM   15  H           1     -12.596   3.080 -32.413  0.00  0.00     0.171 HD
HETATM   16  C           1      -5.180   4.504 -29.410  0.00  0.00     0.020 C 
HETATM   17  C           1      -7.925   4.120 -30.545  0.00  0.00     0.055 C 
HETATM   18  C           1      -6.769   4.587 -31.464  0.00  0.00     0.012 C 
HETATM   19  C           1      -3.901   4.363 -32.368  0.00  0.00     0.033 C 
ENDROOT
BRANCH   3  20
HETATM   20  C           1      -7.075   1.297 -33.777  0.00  0.00     0.114 C 
BRANCH  20  21
HETATM   21  C           1      -6.695  -0.119 -33.352  0.00  0.00     0.222 C 
HETATM   22  O           1      -6.692  -0.437 -32.191  0.00  0.00    -0.273 OA
HETATM   23  N           1      -6.386  -0.950 -34.388  0.00  0.00    -0.327 N 
HETATM   24  H           1      -6.443  -0.568 -35.322  0.00  0.00     0.169 HD
BRANCH  23  25
HETATM   25  C           1      -6.023  -2.247 -34.457  0.00  0.00     0.034 A 
HETATM   26  C           1      -4.727  -2.503 -34.192  0.00  0.00     0.029 A 
HETATM   27  C           1      -4.236  -3.751 -34.233  0.00  0.00     0.002 A 
HETATM   28  C           1      -5.043  -4.776 -34.540  0.00  0.00     0.000 A 
HETATM   29  C           1      -6.337  -4.540 -34.802  0.00  0.00     0.002 A 
HETATM   30  C           1      -6.821  -3.287 -34.759  0.00  0.00     0.029 A 
ENDBRANCH  23  25
ENDBRANCH  20  21
ENDBRANCH   3  20
BRANCH  12  31
HETATM   31  C           1      -6.163   6.657 -30.135  0.00  0.00     0.176 C 
BRANCH  31  32
HETATM   32  O           1      -5.113   7.446 -29.610  0.00  0.00    -0.400 OA
HETATM   33  H           1      -4.471   7.630 -30.298  0.00  0.00     0.209 HD
ENDBRANCH  31  32
ENDBRANCH  12  31
BRANCH  13  34
HETATM   34  O           1      -4.666   6.646 -32.401  0.00  0.00    -0.395 OA
HETATM   35  H           1      -3.843   6.886 -32.836  0.00  0.00     0.210 HD
ENDBRANCH  13  34
BRANCH   9  36
HETATM   36  C           1     -13.881   1.818 -34.159  0.00  0.00     0.270 C 
BRANCH  36  37
HETATM   37  O           1     -14.524   1.153 -33.087  0.00  0.00    -0.387 OA
HETATM   38  C           1     -15.422   1.995 -32.398  0.00  0.00     0.202 C 
ENDBRANCH  36  37
ENDBRANCH   9  36
TORSDOF 8
ENDMDL
MODEL 5
REMARK VINA RESULT:      -8.6      4.155      8.279
REMARK  8 active torsions:
REMARK  status: ('A' for Active; 'I' for Inactive)
REMARK    1  A    between atoms: C_3  and  C_27 
REMARK       I    between atoms: N_12  and  C_13 
REMARK    2  A    between atoms: C_13  and  C_14 
REMARK    3  A    between atoms: C_14  and  O_15 
REMARK    4  A    between atoms: C_18  and  C_36 
REMARK    5  A    between atoms: O_19  and  C_36 
REMARK    6  A    between atoms: C_20  and  O_21 
REMARK    7  A    between atoms: C_27  and  C_28 
REMARK       I    between atoms: C_28  and  N_29 
REMARK    8  A    between atoms: N_29  and  C_30 
ROOT
HETATM    1  C           1      -6.749   0.834 -34.966  0.00  0.00     0.016 C 
HETATM    2  C           1      -7.139   0.815 -33.464  0.00  0.00    -0.030 C 
HETATM    3  C           1      -8.562   1.448 -33.333  0.00  0.00     0.056 C 
HETATM    4  C           1      -8.421   2.939 -33.389  0.00  0.00     0.056 A 
HETATM    5  C           1      -7.502   3.586 -32.675  0.00  0.00     0.012 A 
HETATM    6  S           1      -7.585   5.027 -32.930  0.00  0.00    -0.055 SA
HETATM    7  C           1      -8.706   4.897 -33.869  0.00  0.00     0.174 A 
HETATM    8  N           1      -9.204   6.012 -34.437  0.00  0.00    -0.304 N 
HETATM    9  C           1     -10.206   6.150 -35.353  0.00  0.00     0.247 C 
HETATM   10  O           1     -10.817   5.223 -35.823  0.00  0.00    -0.271 OA
HETATM   11  N           1      -9.117   3.720 -34.088  0.00  0.00    -0.227 NA
HETATM   12  C           1      -5.013   0.732 -31.823  0.00  0.00     0.008 C 
HETATM   13  C           1      -4.680  -0.578 -32.559  0.00  0.00     0.128 C 
HETATM   14  C           1      -7.215  -0.656 -33.010  0.00  0.00     0.013 C 
HETATM   15  H           1      -8.745   6.847 -34.103  0.00  0.00     0.171 HD
HETATM   16  C           1      -5.497   0.388 -30.393  0.00  0.00     0.020 C 
HETATM   17  C           1      -6.565   2.797 -31.817  0.00  0.00     0.055 C 
HETATM   18  C           1      -6.045   1.587 -32.632  0.00  0.00     0.012 C 
HETATM   19  C           1      -5.874  -1.393 -33.056  0.00  0.00     0.033 C 
ENDROOT
BRANCH   3  20
HETATM   20  C           1      -9.664   0.962 -34.298  0.00  0.00     0.114 C 
BRANCH  20  21
HETATM   21  C           1     -10.996   0.722 -33.590  0.00  0.00     0.222 C 
HETATM   22  O           1     -11.183  -0.278 -32.946  0.00  0.00    -0.273 OA
HETATM   23  N           1     -11.903   1.727 -33.751  0.00  0.00    -0.327 N 
HETATM   24  H           1     -11.619   2.525 -34.301  0.00  0.00     0.169 HD
BRANCH  23  25
HETATM   25  C           1     -13.158   1.922 -33.296  0.00  0.00     0.034 A 
HETATM   26  C           1     -14.113   1.178 -33.888  0.00  0.00     0.029 A 
HETATM   27  C           1     -15.403   1.281 -33.534  0.00  0.00     0.002 A 
HETATM   28  C           1     -15.762   2.136 -32.567  0.00  0.00     0.000 A 
HETATM   29  C           1     -14.825   2.880 -31.963  0.00  0.00     0.002 A 
HETATM   30  C           1     -13.535   2.772 -32.325  0.00  0.00     0.029 A 
ENDBRANCH  23  25
ENDBRANCH  20  21
ENDBRANCH   3  20
BRANCH  12  31
HETATM   31  C           1      -3.711   1.556 -31.647  0.00  0.00     0.176 C 
BRANCH  31  32
HETATM   32  O           1      -2.695   0.778 -31.045  0.00  0.00    -0.400 OA
HETATM   33  H           1      -1.837   1.060 -31.369  0.00  0.00     0.209 HD
ENDBRANCH  31  32
ENDBRANCH  12  31
BRANCH  13  34
HETATM   34  O           1      -3.809  -0.295 -33.631  0.00  0.00    -0.395 OA
HETATM   35  H           1      -2.942  -0.106 -33.261  0.00  0.00     0.210 HD
ENDBRANCH  13  34
BRANCH   9  36
HETATM   36  C           1     -10.490   7.593 -35.744  0.00  0.00     0.270 C 
BRANCH  36  37
HETATM   37  O           1      -9.988   7.873 -37.038  0.00  0.00    -0.387 OA
HETATM   38  C           1     -10.614   8.994 -37.623  0.00  0.00     0.202 C 
ENDBRANCH  36  37
ENDBRANCH   9  36
TORSDOF 8
ENDMDL
MODEL 6
REMARK VINA RESULT:      -8.4      1.616      2.082
REMARK  8 active torsions:
REMARK  status: ('A' for Active; 'I' for Inactive)
REMARK    1  A    between atoms: C_3  and  C_27 
REMARK       I    between atoms: N_12  and  C_13 
REMARK    2  A    between atoms: C_13  and  C_14 
REMARK    3  A    between atoms: C_14  and  O_15 
REMARK    4  A    between atoms: C_18  and  C_36 
REMARK    5  A    between atoms: O_19  and  C_36 
REMARK    6  A    between atoms: C_20  and  O_21 
REMARK    7  A    between atoms: C_27  and  C_28 
REMARK       I    between atoms: C_28  and  N_29 
REMARK    8  A    between atoms: N_29  and  C_30 
ROOT
HETATM    1  C           1      -7.091   3.986 -30.175  0.00  0.00     0.016 C 
HETATM    2  C           1      -7.173   3.381 -31.601  0.00  0.00    -0.030 C 
HETATM    3  C           1      -5.780   2.754 -31.933  0.00  0.00     0.056 C 
HETATM    4  C           1      -4.851   3.859 -32.338  0.00  0.00     0.056 A 
HETATM    5  C           1      -5.213   4.799 -33.208  0.00  0.00     0.012 A 
HETATM    6  S           1      -4.117   5.750 -33.410  0.00  0.00    -0.055 SA
HETATM    7  C           1      -3.211   5.056 -32.487  0.00  0.00     0.174 A 
HETATM    8  N           1      -1.977   5.559 -32.294  0.00  0.00    -0.304 N 
HETATM    9  C           1      -0.977   5.123 -31.474  0.00  0.00     0.247 C 
HETATM   10  O           1      -1.075   4.166 -30.747  0.00  0.00    -0.271 OA
HETATM   11  N           1      -3.676   4.025 -31.920  0.00  0.00    -0.227 NA
HETATM   12  C           1      -9.082   4.508 -33.118  0.00  0.00     0.008 C 
HETATM   13  C           1     -10.040   4.029 -32.011  0.00  0.00     0.128 C 
HETATM   14  C           1      -8.224   2.253 -31.580  0.00  0.00     0.013 C 
HETATM   15  H           1      -1.804   6.373 -32.866  0.00  0.00     0.171 HD
HETATM   16  C           1      -9.304   3.633 -34.376  0.00  0.00     0.020 C 
HETATM   17  C           1      -6.598   4.767 -33.773  0.00  0.00     0.055 C 
HETATM   18  C           1      -7.599   4.505 -32.620  0.00  0.00     0.012 C 
HETATM   19  C           1      -9.649   2.735 -31.297  0.00  0.00     0.033 C 
ENDROOT
BRANCH   3  20
HETATM   20  C           1      -5.124   1.841 -30.875  0.00  0.00     0.114 C 
BRANCH  20  21
HETATM   21  C           1      -4.752   0.471 -31.436  0.00  0.00     0.222 C 
HETATM   22  O           1      -3.861  -0.177 -30.949  0.00  0.00    -0.273 OA
HETATM   23  N           1      -5.515   0.074 -32.494  0.00  0.00    -0.327 N 
HETATM   24  H           1      -6.246   0.700 -32.799  0.00  0.00     0.169 HD
BRANCH  23  25
HETATM   25  C           1      -5.533  -1.039 -33.255  0.00  0.00     0.034 A 
HETATM   26  C           1      -6.745  -1.415 -33.707  0.00  0.00     0.029 A 
HETATM   27  C           1      -6.902  -2.508 -34.468  0.00  0.00     0.002 A 
HETATM   28  C           1      -5.836  -3.250 -34.798  0.00  0.00     0.000 A 
HETATM   29  C           1      -4.621  -2.887 -34.362  0.00  0.00     0.002 A 
HETATM   30  C           1      -4.473  -1.791 -33.599  0.00  0.00     0.029 A 
ENDBRANCH  23  25
ENDBRANCH  20  21
ENDBRANCH   3  20
BRANCH  12  31
HETATM   31  C           1      -9.470   5.953 -33.527  0.00  0.00     0.176 C 
BRANCH  31  32
HETATM   32  O           1      -9.351   6.135 -34.924  0.00  0.00    -0.400 OA
HETATM   33  H           1      -8.557   5.700 -35.241  0.00  0.00     0.209 HD
ENDBRANCH  31  32
ENDBRANCH  12  31
BRANCH  13  34
HETATM   34  O           1     -10.211   5.065 -31.070  0.00  0.00    -0.395 OA
HETATM   35  H           1     -10.984   4.854 -30.539  0.00  0.00     0.210 HD
ENDBRANCH  13  34
BRANCH   9  36
HETATM   36  C           1       0.291   5.961 -31.549  0.00  0.00     0.270 C 
BRANCH  36  37
HETATM   37  O           1       0.105   7.215 -30.919  0.00  0.00    -0.387 OA
HETATM   38  C           1       0.391   7.166 -29.539  0.00  0.00     0.202 C 
ENDBRANCH  36  37
ENDBRANCH   9  36
TORSDOF 8
ENDMDL
MODEL 7
REMARK VINA RESULT:      -8.4      3.636      7.059
REMARK  8 active torsions:
REMARK  status: ('A' for Active; 'I' for Inactive)
REMARK    1  A    between atoms: C_3  and  C_27 
REMARK       I    between atoms: N_12  and  C_13 
REMARK    2  A    between atoms: C_13  and  C_14 
REMARK    3  A    between atoms: C_14  and  O_15 
REMARK    4  A    between atoms: C_18  and  C_36 
REMARK    5  A    between atoms: O_19  and  C_36 
REMARK    6  A    between atoms: C_20  and  O_21 
REMARK    7  A    between atoms: C_27  and  C_28 
REMARK       I    between atoms: C_28  and  N_29 
REMARK    8  A    between atoms: N_29  and  C_30 
ROOT
HETATM    1  C           1      -6.068   5.347 -32.874  0.00  0.00     0.016 C 
HETATM    2  C           1      -5.855   4.613 -31.523  0.00  0.00    -0.030 C 
HETATM    3  C           1      -6.309   3.128 -31.710  0.00  0.00     0.056 C 
HETATM    4  C           1      -7.804   3.079 -31.626  0.00  0.00     0.056 A 
HETATM    5  C           1      -8.476   3.704 -30.662  0.00  0.00     0.012 A 
HETATM    6  S           1      -9.916   3.493 -30.829  0.00  0.00    -0.055 SA
HETATM    7  C           1      -9.756   2.659 -32.026  0.00  0.00     0.174 A 
HETATM    8  N           1     -10.859   2.168 -32.623  0.00  0.00    -0.304 N 
HETATM    9  C           1     -10.974   1.407 -33.749  0.00  0.00     0.247 C 
HETATM   10  O           1     -10.036   1.056 -34.420  0.00  0.00    -0.271 OA
HETATM   11  N           1      -8.568   2.474 -32.422  0.00  0.00    -0.227 NA
HETATM   12  C           1      -5.848   6.273 -29.411  0.00  0.00     0.008 C 
HETATM   13  C           1      -4.663   6.946 -30.128  0.00  0.00     0.128 C 
HETATM   14  C           1      -4.347   4.626 -31.206  0.00  0.00     0.013 C 
HETATM   15  H           1     -11.702   2.417 -32.127  0.00  0.00     0.171 HD
HETATM   16  C           1      -5.310   5.509 -28.175  0.00  0.00     0.020 C 
HETATM   17  C           1      -7.715   4.504 -29.652  0.00  0.00     0.055 C 
HETATM   18  C           1      -6.658   5.361 -30.392  0.00  0.00     0.012 C 
HETATM   19  C           1      -3.773   6.026 -30.965  0.00  0.00     0.033 C 
ENDROOT
BRANCH   3  20
HETATM   20  C           1      -5.800   2.366 -32.953  0.00  0.00     0.114 C 
BRANCH  20  21
HETATM   21  C           1      -5.762   0.855 -32.735  0.00  0.00     0.222 C 
HETATM   22  O           1      -5.707   0.391 -31.625  0.00  0.00    -0.273 OA
HETATM   23  N           1      -5.809   0.123 -33.885  0.00  0.00    -0.327 N 
HETATM   24  H           1      -5.872   0.631 -34.755  0.00  0.00     0.169 HD
BRANCH  23  25
HETATM   25  C           1      -5.813  -1.202 -34.138  0.00  0.00     0.034 A 
HETATM   26  C           1      -4.620  -1.818 -34.035  0.00  0.00     0.029 A 
HETATM   27  C           1      -4.486  -3.132 -34.268  0.00  0.00     0.002 A 
HETATM   28  C           1      -5.558  -3.861 -34.608  0.00  0.00     0.000 A 
HETATM   29  C           1      -6.755  -3.265 -34.710  0.00  0.00     0.002 A 
HETATM   30  C           1      -6.880  -1.948 -34.476  0.00  0.00     0.029 A 
ENDBRANCH  23  25
ENDBRANCH  20  21
ENDBRANCH   3  20
BRANCH  12  31
HETATM   31  C           1      -6.791   7.373 -28.857  0.00  0.00     0.176 C 
BRANCH  31  32
HETATM   32  O           1      -6.986   7.222 -27.465  0.00  0.00    -0.400 OA
HETATM   33  H           1      -6.138   7.240 -27.016  0.00  0.00     0.209 HD
ENDBRANCH  31  32
ENDBRANCH  12  31
BRANCH  13  34
HETATM   34  O           1      -5.148   8.003 -30.925  0.00  0.00    -0.395 OA
HETATM   35  H           1      -4.578   8.073 -31.697  0.00  0.00     0.210 HD
ENDBRANCH  13  34
BRANCH   9  36
HETATM   36  C           1     -12.408   1.035 -34.098  0.00  0.00     0.270 C 
BRANCH  36  37
HETATM   37  O           1     -12.737   1.469 -35.405  0.00  0.00    -0.387 OA
HETATM   38  C           1     -12.715   2.874 -35.523  0.00  0.00     0.202 C 
ENDBRANCH  36  37
ENDBRANCH   9  36
TORSDOF 8
ENDMDL
MODEL 8
REMARK VINA RESULT:      -8.1      2.610      7.531
REMARK  8 active torsions:
REMARK  status: ('A' for Active; 'I' for Inactive)
REMARK    1  A    between atoms: C_3  and  C_27 
REMARK       I    between atoms: N_12  and  C_13 
REMARK    2  A    between atoms: C_13  and  C_14 
REMARK    3  A    between atoms: C_14  and  O_15 
REMARK    4  A    between atoms: C_18  and  C_36 
REMARK    5  A    between atoms: O_19  and  C_36 
REMARK    6  A    between atoms: C_20  and  O_21 
REMARK    7  A    between atoms: C_27  and  C_28 
REMARK       I    between atoms: C_28  and  N_29 
REMARK    8  A    between atoms: N_29  and  C_30 
ROOT
HETATM    1  C           1      -6.804   4.510 -33.746  0.00  0.00     0.016 C 
HETATM    2  C           1      -6.596   4.509 -32.209  0.00  0.00    -0.030 C 
HETATM    3  C           1      -5.404   3.547 -31.890  0.00  0.00     0.056 C 
HETATM    4  C           1      -5.912   2.138 -31.933  0.00  0.00     0.056 A 
HETATM    5  C           1      -7.040   1.778 -31.324  0.00  0.00     0.012 A 
HETATM    6  S           1      -7.297   0.351 -31.537  0.00  0.00    -0.055 SA
HETATM    7  C           1      -6.080   0.149 -32.333  0.00  0.00     0.174 A 
HETATM    8  N           1      -5.820  -1.083 -32.813  0.00  0.00    -0.304 N 
HETATM    9  C           1      -4.788  -1.512 -33.595  0.00  0.00     0.247 C 
HETATM   10  O           1      -3.913  -0.793 -34.005  0.00  0.00    -0.271 OA
HETATM   11  N           1      -5.362   1.173 -32.524  0.00  0.00    -0.227 NA
HETATM   12  C           1      -8.804   5.202 -30.844  0.00  0.00     0.008 C 
HETATM   13  C           1      -8.707   6.515 -31.642  0.00  0.00     0.128 C 
HETATM   14  C           1      -6.201   5.935 -31.779  0.00  0.00     0.013 C 
HETATM   15  H           1      -6.511  -1.758 -32.520  0.00  0.00     0.171 HD
HETATM   16  C           1      -8.414   5.488 -29.372  0.00  0.00     0.020 C 
HETATM   17  C           1      -7.838   2.818 -30.604  0.00  0.00     0.055 C 
HETATM   18  C           1      -7.937   4.077 -31.502  0.00  0.00     0.012 C 
HETATM   19  C           1      -7.297   6.980 -32.006  0.00  0.00     0.033 C 
ENDROOT
BRANCH   3  20
HETATM   20  C           1      -4.112   3.694 -32.722  0.00  0.00     0.114 C 
BRANCH  20  21
HETATM   21  C           1      -2.887   3.972 -31.854  0.00  0.00     0.222 C 
HETATM   22  O           1      -2.311   3.076 -31.293  0.00  0.00    -0.273 OA
HETATM   23  N           1      -2.529   5.286 -31.798  0.00  0.00    -0.327 N 
HETATM   24  H           1      -3.083   5.941 -32.329  0.00  0.00     0.169 HD
BRANCH  23  25
HETATM   25  C           1      -1.529   5.946 -31.178  0.00  0.00     0.034 A 
HETATM   26  C           1      -1.874   6.598 -30.051  0.00  0.00     0.029 A 
HETATM   27  C           1      -0.975   7.298 -29.342  0.00  0.00     0.002 A 
HETATM   28  C           1       0.299   7.357 -29.754  0.00  0.00     0.000 A 
HETATM   29  C           1       0.661   6.710 -30.871  0.00  0.00     0.002 A 
HETATM   30  C           1      -0.245   6.011 -31.575  0.00  0.00     0.029 A 
ENDBRANCH  23  25
ENDBRANCH  20  21
ENDBRANCH   3  20
BRANCH  12  31
HETATM   31  C           1     -10.284   4.739 -30.813  0.00  0.00     0.176 C 
BRANCH  31  32
HETATM   32  O           1     -11.109   5.715 -30.207  0.00  0.00    -0.400 OA
HETATM   33  H           1     -11.386   6.357 -30.863  0.00  0.00     0.209 HD
ENDBRANCH  31  32
ENDBRANCH  12  31
BRANCH  13  34
HETATM   34  O           1      -9.493   6.404 -32.808  0.00  0.00    -0.395 OA
HETATM   35  H           1     -10.376   6.723 -32.597  0.00  0.00     0.210 HD
ENDBRANCH  13  34
BRANCH   9  36
HETATM   36  C           1      -4.838  -2.999 -33.918  0.00  0.00     0.270 C 
BRANCH  36  37
HETATM   37  O           1      -5.599  -3.236 -35.088  0.00  0.00    -0.387 OA
HETATM   38  C           1      -6.287  -4.467 -35.038  0.00  0.00     0.202 C 
ENDBRANCH  36  37
ENDBRANCH   9  36
TORSDOF 8
ENDMDL
MODEL 9
REMARK VINA RESULT:      -7.8      3.099      5.648
REMARK  8 active torsions:
REMARK  status: ('A' for Active; 'I' for Inactive)
REMARK    1  A    between atoms: C_3  and  C_27 
REMARK       I    between atoms: N_12  and  C_13 
REMARK    2  A    between atoms: C_13  and  C_14 
REMARK    3  A    between atoms: C_14  and  O_15 
REMARK    4  A    between atoms: C_18  and  C_36 
REMARK    5  A    between atoms: O_19  and  C_36 
REMARK    6  A    between atoms: C_20  and  O_21 
REMARK    7  A    between atoms: C_27  and  C_28 
REMARK       I    between atoms: C_28  and  N_29 
REMARK    8  A    between atoms: N_29  and  C_30 
ROOT
HETATM    1  C           1      -6.736   1.805 -30.141  0.00  0.00     0.016 C 
HETATM    2  C           1      -6.695   2.202 -31.641  0.00  0.00    -0.030 C 
HETATM    3  C           1      -5.491   3.179 -31.842  0.00  0.00     0.056 C 
HETATM    4  C           1      -5.908   4.542 -31.379  0.00  0.00     0.056 A 
HETATM    5  C           1      -7.072   5.081 -31.736  0.00  0.00     0.012 A 
HETATM    6  S           1      -7.220   6.409 -31.135  0.00  0.00    -0.055 SA
HETATM    7  C           1      -5.915   6.361 -30.465  0.00  0.00     0.174 A 
HETATM    8  N           1      -5.533   7.417 -29.720  0.00  0.00    -0.304 N 
HETATM    9  C           1      -4.400   7.597 -28.982  0.00  0.00     0.247 C 
HETATM   10  O           1      -3.529   6.771 -28.877  0.00  0.00    -0.271 OA
HETATM   11  N           1      -5.242   5.302 -30.630  0.00  0.00    -0.227 NA
HETATM   12  C           1      -9.073   1.953 -32.865  0.00  0.00     0.008 C 
HETATM   13  C           1      -8.969   0.474 -32.447  0.00  0.00     0.128 C 
HETATM   14  C           1      -6.432   0.927 -32.466  0.00  0.00     0.013 C 
HETATM   15  H           1      -6.211   8.165 -29.745  0.00  0.00     0.171 HD
HETATM   16  C           1      -8.861   2.050 -34.396  0.00  0.00     0.020 C 
HETATM   17  C           1      -8.001   4.288 -32.599  0.00  0.00     0.055 C 
HETATM   18  C           1      -8.077   2.841 -32.048  0.00  0.00     0.012 C 
HETATM   19  C           1      -7.557  -0.109 -32.385  0.00  0.00     0.033 C 
ENDROOT
BRANCH   3  20
HETATM   20  C           1      -4.127   2.783 -31.234  0.00  0.00     0.114 C 
BRANCH  20  21
HETATM   21  C           1      -2.968   3.569 -31.843  0.00  0.00     0.222 C 
HETATM   22  O           1      -2.634   3.393 -32.987  0.00  0.00    -0.273 OA
HETATM   23  N           1      -2.387   4.460 -30.990  0.00  0.00    -0.327 N 
HETATM   24  H           1      -2.771   4.527 -30.058  0.00  0.00     0.169 HD
BRANCH  23  25
HETATM   25  C           1      -1.373   5.340 -31.121  0.00  0.00     0.034 A 
HETATM   26  C           1      -0.278   5.080 -30.381  0.00  0.00     0.029 A 
HETATM   27  C           1       0.798   5.881 -30.415  0.00  0.00     0.002 A 
HETATM   28  C           1       0.796   6.966 -31.200  0.00  0.00     0.000 A 
HETATM   29  C           1      -0.284   7.238 -31.947  0.00  0.00     0.002 A 
HETATM   30  C           1      -1.357   6.431 -31.907  0.00  0.00     0.029 A 
ENDBRANCH  23  25
ENDBRANCH  20  21
ENDBRANCH   3  20
BRANCH  12  31
HETATM   31  C           1     -10.519   2.449 -32.600  0.00  0.00     0.176 C 
BRANCH  31  32
HETATM   32  O           1     -10.677   2.858 -31.256  0.00  0.00    -0.400 OA
HETATM   33  H           1      -9.910   2.594 -30.745  0.00  0.00     0.209 HD
ENDBRANCH  31  32
ENDBRANCH  12  31
BRANCH  13  34
HETATM   34  O           1      -9.617   0.299 -31.207  0.00  0.00    -0.395 OA
HETATM   35  H           1      -8.978   0.489 -30.514  0.00  0.00     0.210 HD
ENDBRANCH  13  34
BRANCH   9  36
HETATM   36  C           1      -4.327   8.948 -28.285  0.00  0.00     0.270 C 
BRANCH  36  37
HETATM   37  O           1      -4.887   8.877 -26.987  0.00  0.00    -0.387 OA
HETATM   38  C           1      -6.019   9.707 -26.846  0.00  0.00     0.202 C 
ENDBRANCH  36  37
ENDBRANCH   9  36
TORSDOF 8
ENDMDL
MODEL 10
REMARK VINA RESULT:      -7.5      3.734      6.653
REMARK  8 active torsions:
REMARK  status: ('A' for Active; 'I' for Inactive)
REMARK    1  A    between atoms: C_3  and  C_27 
REMARK       I    between atoms: N_12  and  C_13 
REMARK    2  A    between atoms: C_13  and  C_14 
REMARK    3  A    between atoms: C_14  and  O_15 
REMARK    4  A    between atoms: C_18  and  C_36 
REMARK    5  A    between atoms: O_19  and  C_36 
REMARK    6  A    between atoms: C_20  and  O_21 
REMARK    7  A    between atoms: C_27  and  C_28 
REMARK       I    between atoms: C_28  and  N_29 
REMARK    8  A    between atoms: N_29  and  C_30 
ROOT
HETATM    1  C           1      -6.271   2.665 -33.918  0.00  0.00     0.016 C 
HETATM    2  C           1      -6.865   2.144 -32.583  0.00  0.00    -0.030 C 
HETATM    3  C           1      -7.831   3.244 -32.031  0.00  0.00     0.056 C 
HETATM    4  C           1      -7.007   4.309 -31.375  0.00  0.00     0.056 A 
HETATM    5  C           1      -6.024   4.015 -30.526  0.00  0.00     0.012 A 
HETATM    6  S           1      -5.385   5.244 -30.047  0.00  0.00    -0.055 SA
HETATM    7  C           1      -6.267   6.124 -30.823  0.00  0.00     0.174 A 
HETATM    8  N           1      -6.089   7.456 -30.735  0.00  0.00    -0.304 N 
HETATM    9  C           1      -6.747   8.466 -31.374  0.00  0.00     0.247 C 
HETATM   10  O           1      -7.632   8.291 -32.173  0.00  0.00    -0.271 OA
HETATM   11  N           1      -7.135   5.549 -31.543  0.00  0.00    -0.227 NA
HETATM   12  C           1      -5.324   0.296 -31.390  0.00  0.00     0.008 C 
HETATM   13  C           1      -5.521  -0.499 -32.694  0.00  0.00     0.128 C 
HETATM   14  C           1      -7.690   0.879 -32.889  0.00  0.00     0.013 C 
HETATM   15  H           1      -5.357   7.699 -30.084  0.00  0.00     0.171 HD
HETATM   16  C           1      -6.140  -0.387 -30.265  0.00  0.00     0.020 C 
HETATM   17  C           1      -5.716   2.578 -30.245  0.00  0.00     0.055 C 
HETATM   18  C           1      -5.692   1.804 -31.587  0.00  0.00     0.012 C 
HETATM   19  C           1      -6.857  -0.296 -33.409  0.00  0.00     0.033 C 
ENDROOT
BRANCH   3  20
HETATM   20  C           1      -8.858   3.862 -33.004  0.00  0.00     0.114 C 
BRANCH  20  21
HETATM   21  C           1     -10.279   3.367 -32.745  0.00  0.00     0.222 C 
HETATM   22  O           1     -10.920   3.785 -31.815  0.00  0.00    -0.273 OA
HETATM   23  N           1     -10.726   2.450 -33.650  0.00  0.00    -0.327 N 
HETATM   24  H           1     -10.098   2.193 -34.398  0.00  0.00     0.169 HD
BRANCH  23  25
HETATM   25  C           1     -11.892   1.787 -33.797  0.00  0.00     0.034 A 
HETATM   26  C           1     -11.857   0.476 -33.492  0.00  0.00     0.029 A 
HETATM   27  C           1     -12.947  -0.299 -33.601  0.00  0.00     0.002 A 
HETATM   28  C           1     -14.104   0.233 -34.019  0.00  0.00     0.000 A 
HETATM   29  C           1     -14.158   1.538 -34.323  0.00  0.00     0.002 A 
HETATM   30  C           1     -13.061   2.307 -34.211  0.00  0.00     0.029 A 
ENDBRANCH  23  25
ENDBRANCH  20  21
ENDBRANCH   3  20
BRANCH  12  31
HETATM   31  C           1      -3.836   0.197 -30.961  0.00  0.00     0.176 C 
BRANCH  31  32
HETATM   32  O           1      -3.310  -1.084 -31.246  0.00  0.00    -0.400 OA
HETATM   33  H           1      -3.945  -1.758 -30.996  0.00  0.00     0.209 HD
ENDBRANCH  31  32
ENDBRANCH  12  31
BRANCH  13  34
HETATM   34  O           1      -4.456  -0.214 -33.572  0.00  0.00    -0.395 OA
HETATM   35  H           1      -4.828   0.196 -34.359  0.00  0.00     0.210 HD
ENDBRANCH  13  34
BRANCH   9  36
HETATM   36  C           1      -6.259   9.857 -30.992  0.00  0.00     0.270 C 
BRANCH  36  37
HETATM   37  O           1      -4.940  10.074 -31.459  0.00  0.00    -0.387 OA
HETATM   38  C           1      -4.026  10.275 -30.404  0.00  0.00     0.202 C 
ENDBRANCH  36  37
ENDBRANCH   9  36
TORSDOF 8
ENDMDL
