MODEL 1
REMARK VINA RESULT:      -7.6      0.000      0.000
REMARK  6 active torsions:
REMARK  status: ('A' for Active; 'I' for Inactive)
REMARK    1  A    between atoms: C_2  and  N_3 
REMARK    2  A    between atoms: C_4  and  C_20 
REMARK    3  A    between atoms: C_10  and  C_11 
REMARK    4  A    between atoms: C_14  and  C_15 
REMARK    5  A    between atoms: C_15  and  N_16 
REMARK    6  A    between atoms: C_24  and  N_25 
ROOT
HETATM    1  N   UNL     1      -9.732   1.963 -33.905  1.00  0.00    -0.327 N 
HETATM    2  C   UNL     1     -10.906   2.672 -34.113  1.00  0.00     0.166 A 
HETATM    3  N   UNL     1     -10.656   3.966 -34.200  1.00  0.00    -0.225 NA
HETATM    4  C   UNL     1      -9.302   4.105 -34.057  1.00  0.00     0.104 A 
HETATM    5  C   UNL     1      -8.536   5.274 -34.099  1.00  0.00     0.150 A 
HETATM    6  N   UNL     1      -7.195   5.227 -33.929  1.00  0.00    -0.270 NA
HETATM    7  C   UNL     1      -6.625   4.022 -33.705  1.00  0.00     0.131 A 
HETATM    8  C   UNL     1      -7.290   2.788 -33.637  1.00  0.00     0.021 A 
HETATM    9  C   UNL     1      -8.683   2.870 -33.839  1.00  0.00     0.079 A 
ENDROOT
BRANCH   8  10
HETATM   10  C   UNL     1      -6.548   1.568 -33.347  1.00  0.00    -0.022 A 
HETATM   11  C   UNL     1      -5.971   1.364 -32.084  1.00  0.00     0.013 A 
HETATM   12  C   UNL     1      -5.214   0.219 -31.817  1.00  0.00     0.010 A 
HETATM   13  C   UNL     1      -5.007  -0.749 -32.808  1.00  0.00    -0.031 A 
HETATM   14  C   UNL     1      -5.561  -0.533 -34.077  1.00  0.00     0.010 A 
HETATM   15  C   UNL     1      -6.328   0.606 -34.341  1.00  0.00     0.013 A 
BRANCH  13  16
HETATM   16  C   UNL     1      -4.120  -1.938 -32.522  1.00  0.00     0.305 C 
BRANCH  16  17
HETATM   17  N   UNL     1      -3.003  -1.618 -31.639  1.00  0.00     0.082 N 
HETATM   18  H   UNL     1      -2.748  -0.641 -31.775  1.00  0.00     0.313 HD
HETATM   19  H   UNL     1      -2.193  -2.168 -31.918  1.00  0.00     0.313 HD
ENDBRANCH  16  17
ENDBRANCH  13  16
ENDBRANCH   8  10
BRANCH   1  20
HETATM   20  C   UNL     1      -9.624   0.517 -33.825  1.00  0.00     0.126 C 
HETATM   21  C   UNL     1      -9.728   0.004 -32.400  1.00  0.00     0.027 C 
ENDBRANCH   1  20
BRANCH   2  22
HETATM   22  C   UNL     1     -12.304   2.136 -34.236  1.00  0.00     0.179 A 
HETATM   23  N   UNL     1     -12.774   1.468 -35.292  1.00  0.00    -0.097 NA
HETATM   24  O   UNL     1     -14.086   1.146 -34.959  1.00  0.00    -0.104 OA
HETATM   25  N   UNL     1     -14.419   1.616 -33.696  1.00  0.00    -0.085 NA
HETATM   26  C   UNL     1     -13.328   2.238 -33.257  1.00  0.00     0.186 A 
BRANCH  26  27
HETATM   27  N   UNL     1     -13.221   2.855 -32.063  1.00  0.00    -0.380 N 
HETATM   28  H   UNL     1     -13.239   3.865 -32.008  1.00  0.00     0.158 HD
HETATM   29  H   UNL     1     -13.496   2.358 -31.217  1.00  0.00     0.158 HD
ENDBRANCH  26  27
ENDBRANCH   2  22
TORSDOF 6
ENDMDL
MODEL 2
REMARK VINA RESULT:      -7.6      3.636      7.288
REMARK  6 active torsions:
REMARK  status: ('A' for Active; 'I' for Inactive)
REMARK    1  A    between atoms: C_2  and  N_3 
REMARK    2  A    between atoms: C_4  and  C_20 
REMARK    3  A    between atoms: C_10  and  C_11 
REMARK    4  A    between atoms: C_14  and  C_15 
REMARK    5  A    between atoms: C_15  and  N_16 
REMARK    6  A    between atoms: C_24  and  N_25 
ROOT
HETATM    1  N   UNL     1      -5.744  -0.957 -33.422  1.00  0.00    -0.327 N 
HETATM    2  C   UNL     1      -5.065  -2.157 -33.562  1.00  0.00     0.166 A 
HETATM    3  N   UNL     1      -3.904  -2.108 -32.935  1.00  0.00    -0.225 NA
HETATM    4  C   UNL     1      -3.826  -0.864 -32.369  1.00  0.00     0.104 A 
HETATM    5  C   UNL     1      -2.805  -0.328 -31.578  1.00  0.00     0.150 A 
HETATM    6  N   UNL     1      -2.891   0.935 -31.104  1.00  0.00    -0.270 NA
HETATM    7  C   UNL     1      -3.984   1.663 -31.429  1.00  0.00     0.131 A 
HETATM    8  C   UNL     1      -5.064   1.234 -32.215  1.00  0.00     0.021 A 
HETATM    9  C   UNL     1      -4.953  -0.094 -32.676  1.00  0.00     0.079 A 
ENDROOT
BRANCH   8  10
HETATM   10  C   UNL     1      -6.161   2.144 -32.518  1.00  0.00    -0.022 A 
HETATM   11  C   UNL     1      -6.033   3.108 -33.530  1.00  0.00     0.013 A 
HETATM   12  C   UNL     1      -7.062   4.018 -33.790  1.00  0.00     0.010 A 
HETATM   13  C   UNL     1      -8.244   3.995 -33.038  1.00  0.00    -0.031 A 
HETATM   14  C   UNL     1      -8.361   3.050 -32.009  1.00  0.00     0.010 A 
HETATM   15  C   UNL     1      -7.337   2.132 -31.757  1.00  0.00     0.013 A 
BRANCH  13  16
HETATM   16  C   UNL     1      -9.309   5.038 -33.283  1.00  0.00     0.305 C 
BRANCH  16  17
HETATM   17  N   UNL     1      -8.871   6.102 -34.180  1.00  0.00     0.082 N 
HETATM   18  H   UNL     1      -7.926   6.382 -33.919  1.00  0.00     0.313 HD
HETATM   19  H   UNL     1      -9.462   6.918 -34.039  1.00  0.00     0.313 HD
ENDBRANCH  16  17
ENDBRANCH  13  16
ENDBRANCH   8  10
BRANCH   1  20
HETATM   20  C   UNL     1      -7.077  -0.679 -33.927  1.00  0.00     0.126 C 
HETATM   21  C   UNL     1      -7.054   0.024 -35.273  1.00  0.00     0.027 C 
ENDBRANCH   1  20
BRANCH   2  22
HETATM   22  C   UNL     1      -5.504  -3.391 -34.300  1.00  0.00     0.179 A 
HETATM   23  N   UNL     1      -6.675  -3.529 -34.925  1.00  0.00    -0.097 NA
HETATM   24  O   UNL     1      -6.637  -4.802 -35.485  1.00  0.00    -0.104 OA
HETATM   25  N   UNL     1      -5.438  -5.444 -35.203  1.00  0.00    -0.085 NA
HETATM   26  C   UNL     1      -4.747  -4.581 -34.462  1.00  0.00     0.186 A 
BRANCH  26  27
HETATM   27  N   UNL     1      -3.517  -4.810 -33.959  1.00  0.00    -0.380 N 
HETATM   28  H   UNL     1      -3.296  -4.540 -33.010  1.00  0.00     0.158 HD
HETATM   29  H   UNL     1      -2.947  -5.559 -34.353  1.00  0.00     0.158 HD
ENDBRANCH  26  27
ENDBRANCH   2  22
TORSDOF 6
ENDMDL
MODEL 3
REMARK VINA RESULT:      -7.4      3.070      7.408
REMARK  6 active torsions:
REMARK  status: ('A' for Active; 'I' for Inactive)
REMARK    1  A    between atoms: C_2  and  N_3 
REMARK    2  A    between atoms: C_4  and  C_20 
REMARK    3  A    between atoms: C_10  and  C_11 
REMARK    4  A    between atoms: C_14  and  C_15 
REMARK    5  A    between atoms: C_15  and  N_16 
REMARK    6  A    between atoms: C_24  and  N_25 
ROOT
HETATM    1  N   UNL     1      -5.483  -0.576 -32.915  1.00  0.00    -0.327 N 
HETATM    2  C   UNL     1      -4.285  -1.273 -32.892  1.00  0.00     0.166 A 
HETATM    3  N   UNL     1      -3.320  -0.521 -32.395  1.00  0.00    -0.225 NA
HETATM    4  C   UNL     1      -3.896   0.680 -32.079  1.00  0.00     0.104 A 
HETATM    5  C   UNL     1      -3.302   1.807 -31.499  1.00  0.00     0.150 A 
HETATM    6  N   UNL     1      -4.027   2.923 -31.261  1.00  0.00    -0.270 NA
HETATM    7  C   UNL     1      -5.333   2.919 -31.612  1.00  0.00     0.131 A 
HETATM    8  C   UNL     1      -6.032   1.855 -32.202  1.00  0.00     0.021 A 
HETATM    9  C   UNL     1      -5.253   0.700 -32.417  1.00  0.00     0.079 A 
ENDROOT
BRANCH   8  10
HETATM   10  C   UNL     1      -7.435   2.008 -32.565  1.00  0.00    -0.022 A 
HETATM   11  C   UNL     1      -8.448   1.519 -31.726  1.00  0.00     0.013 A 
HETATM   12  C   UNL     1      -9.794   1.616 -32.094  1.00  0.00     0.010 A 
HETATM   13  C   UNL     1     -10.162   2.196 -33.315  1.00  0.00    -0.031 A 
HETATM   14  C   UNL     1      -9.148   2.661 -34.164  1.00  0.00     0.010 A 
HETATM   15  C   UNL     1      -7.804   2.575 -33.792  1.00  0.00     0.013 A 
BRANCH  13  16
HETATM   16  C   UNL     1     -11.615   2.218 -33.727  1.00  0.00     0.305 C 
BRANCH  16  17
HETATM   17  N   UNL     1     -12.334   1.005 -33.351  1.00  0.00     0.082 N 
HETATM   18  H   UNL     1     -13.139   0.897 -33.966  1.00  0.00     0.313 HD
HETATM   19  H   UNL     1     -12.704   1.117 -32.410  1.00  0.00     0.313 HD
ENDBRANCH  16  17
ENDBRANCH  13  16
ENDBRANCH   8  10
BRANCH   1  20
HETATM   20  C   UNL     1      -6.764  -1.114 -33.337  1.00  0.00     0.126 C 
HETATM   21  C   UNL     1      -7.039  -0.873 -34.811  1.00  0.00     0.027 C 
ENDBRANCH   1  20
BRANCH   2  22
HETATM   22  C   UNL     1      -4.023  -2.682 -33.345  1.00  0.00     0.179 A 
HETATM   23  N   UNL     1      -4.422  -3.195 -34.511  1.00  0.00    -0.097 NA
HETATM   24  O   UNL     1      -3.939  -4.499 -34.515  1.00  0.00    -0.104 OA
HETATM   25  N   UNL     1      -3.240  -4.785 -33.350  1.00  0.00    -0.085 NA
HETATM   26  C   UNL     1      -3.304  -3.672 -32.623  1.00  0.00     0.186 A 
BRANCH  26  27
HETATM   27  N   UNL     1      -2.759  -3.518 -31.400  1.00  0.00    -0.380 N 
HETATM   28  H   UNL     1      -3.349  -3.347 -30.597  1.00  0.00     0.158 HD
HETATM   29  H   UNL     1      -1.848  -3.932 -31.203  1.00  0.00     0.158 HD
ENDBRANCH  26  27
ENDBRANCH   2  22
TORSDOF 6
ENDMDL
MODEL 4
REMARK VINA RESULT:      -7.4      4.178      6.987
REMARK  6 active torsions:
REMARK  status: ('A' for Active; 'I' for Inactive)
REMARK    1  A    between atoms: C_2  and  N_3 
REMARK    2  A    between atoms: C_4  and  C_20 
REMARK    3  A    between atoms: C_10  and  C_11 
REMARK    4  A    between atoms: C_14  and  C_15 
REMARK    5  A    between atoms: C_15  and  N_16 
REMARK    6  A    between atoms: C_24  and  N_25 
ROOT
HETATM    1  N   UNL     1      -4.351   4.346 -32.836  1.00  0.00    -0.327 N 
HETATM    2  C   UNL     1      -4.388   5.725 -32.977  1.00  0.00     0.166 A 
HETATM    3  N   UNL     1      -5.632   6.164 -32.915  1.00  0.00    -0.225 NA
HETATM    4  C   UNL     1      -6.418   5.061 -32.720  1.00  0.00     0.104 A 
HETATM    5  C   UNL     1      -7.806   4.996 -32.561  1.00  0.00     0.150 A 
HETATM    6  N   UNL     1      -8.425   3.807 -32.384  1.00  0.00    -0.270 NA
HETATM    7  C   UNL     1      -7.665   2.689 -32.377  1.00  0.00     0.131 A 
HETATM    8  C   UNL     1      -6.271   2.631 -32.531  1.00  0.00     0.021 A 
HETATM    9  C   UNL     1      -5.654   3.889 -32.693  1.00  0.00     0.079 A 
ENDROOT
BRANCH   8  10
HETATM   10  C   UNL     1      -5.585   1.346 -32.543  1.00  0.00    -0.022 A 
HETATM   11  C   UNL     1      -5.603   0.537 -33.689  1.00  0.00     0.013 A 
HETATM   12  C   UNL     1      -4.990  -0.720 -33.691  1.00  0.00     0.010 A 
HETATM   13  C   UNL     1      -4.351  -1.206 -32.542  1.00  0.00    -0.031 A 
HETATM   14  C   UNL     1      -4.357  -0.409 -31.389  1.00  0.00     0.010 A 
HETATM   15  C   UNL     1      -4.958   0.853 -31.391  1.00  0.00     0.013 A 
BRANCH  13  16
HETATM   16  C   UNL     1      -3.766  -2.599 -32.542  1.00  0.00     0.305 C 
BRANCH  16  17
HETATM   17  N   UNL     1      -2.699  -2.769 -31.560  1.00  0.00     0.082 N 
HETATM   18  H   UNL     1      -2.999  -3.453 -30.866  1.00  0.00     0.313 HD
HETATM   19  H   UNL     1      -2.566  -1.892 -31.061  1.00  0.00     0.313 HD
ENDBRANCH  16  17
ENDBRANCH  13  16
ENDBRANCH   8  10
BRANCH   1  20
HETATM   20  C   UNL     1      -3.148   3.535 -32.791  1.00  0.00     0.126 C 
HETATM   21  C   UNL     1      -2.492   3.543 -31.422  1.00  0.00     0.027 C 
ENDBRANCH   1  20
BRANCH   2  22
HETATM   22  C   UNL     1      -3.235   6.668 -33.177  1.00  0.00     0.179 A 
HETATM   23  N   UNL     1      -2.499   6.746 -34.288  1.00  0.00    -0.097 NA
HETATM   24  O   UNL     1      -1.579   7.760 -34.040  1.00  0.00    -0.104 OA
HETATM   25  N   UNL     1      -1.755   8.305 -32.774  1.00  0.00    -0.085 NA
HETATM   26  C   UNL     1      -2.764   7.624 -32.239  1.00  0.00     0.186 A 
BRANCH  26  27
HETATM   27  N   UNL     1      -3.259   7.826 -31.001  1.00  0.00    -0.380 N 
HETATM   28  H   UNL     1      -2.953   8.619 -30.453  1.00  0.00     0.158 HD
HETATM   29  H   UNL     1      -4.173   7.444 -30.759  1.00  0.00     0.158 HD
ENDBRANCH  26  27
ENDBRANCH   2  22
TORSDOF 6
ENDMDL
MODEL 5
REMARK VINA RESULT:      -7.3      1.608      2.039
REMARK  6 active torsions:
REMARK  status: ('A' for Active; 'I' for Inactive)
REMARK    1  A    between atoms: C_2  and  N_3 
REMARK    2  A    between atoms: C_4  and  C_20 
REMARK    3  A    between atoms: C_10  and  C_11 
REMARK    4  A    between atoms: C_14  and  C_15 
REMARK    5  A    between atoms: C_15  and  N_16 
REMARK    6  A    between atoms: C_24  and  N_25 
ROOT
HETATM    1  N   UNL     1      -9.597   2.531 -33.372  1.00  0.00    -0.327 N 
HETATM    2  C   UNL     1     -10.493   3.533 -33.035  1.00  0.00     0.166 A 
HETATM    3  N   UNL     1      -9.898   4.712 -33.054  1.00  0.00    -0.225 NA
HETATM    4  C   UNL     1      -8.599   4.480 -33.418  1.00  0.00     0.104 A 
HETATM    5  C   UNL     1      -7.567   5.405 -33.606  1.00  0.00     0.150 A 
HETATM    6  N   UNL     1      -6.329   4.994 -33.962  1.00  0.00    -0.270 NA
HETATM    7  C   UNL     1      -6.120   3.666 -34.116  1.00  0.00     0.131 A 
HETATM    8  C   UNL     1      -7.073   2.650 -33.950  1.00  0.00     0.021 A 
HETATM    9  C   UNL     1      -8.358   3.114 -33.599  1.00  0.00     0.079 A 
ENDROOT
BRANCH   8  10
HETATM   10  C   UNL     1      -6.694   1.253 -34.110  1.00  0.00    -0.022 A 
HETATM   11  C   UNL     1      -7.175   0.500 -35.193  1.00  0.00     0.013 A 
HETATM   12  C   UNL     1      -6.857  -0.855 -35.324  1.00  0.00     0.010 A 
HETATM   13  C   UNL     1      -6.056  -1.497 -34.370  1.00  0.00    -0.031 A 
HETATM   14  C   UNL     1      -5.597  -0.753 -33.275  1.00  0.00     0.010 A 
HETATM   15  C   UNL     1      -5.905   0.606 -33.150  1.00  0.00     0.013 A 
BRANCH  13  16
HETATM   16  C   UNL     1      -5.791  -2.980 -34.489  1.00  0.00     0.305 C 
BRANCH  16  17
HETATM   17  N   UNL     1      -4.371  -3.312 -34.439  1.00  0.00     0.082 N 
HETATM   18  H   UNL     1      -4.008  -3.061 -33.520  1.00  0.00     0.313 HD
HETATM   19  H   UNL     1      -3.872  -2.734 -35.112  1.00  0.00     0.313 HD
ENDBRANCH  16  17
ENDBRANCH  13  16
ENDBRANCH   8  10
BRANCH   1  20
HETATM   20  C   UNL     1      -9.922   1.123 -33.512  1.00  0.00     0.126 C 
HETATM   21  C   UNL     1      -9.588   0.321 -32.267  1.00  0.00     0.027 C 
ENDBRANCH   1  20
BRANCH   2  22
HETATM   22  C   UNL     1     -11.948   3.398 -32.683  1.00  0.00     0.179 A 
HETATM   23  N   UNL     1     -12.904   3.012 -33.531  1.00  0.00    -0.097 NA
HETATM   24  O   UNL     1     -14.072   3.002 -32.776  1.00  0.00    -0.104 OA
HETATM   25  N   UNL     1     -13.830   3.381 -31.462  1.00  0.00    -0.085 NA
HETATM   26  C   UNL     1     -12.526   3.638 -31.409  1.00  0.00     0.186 A 
BRANCH  26  27
HETATM   27  N   UNL     1     -11.867   4.051 -30.308  1.00  0.00    -0.380 N 
HETATM   28  H   UNL     1     -10.859   4.128 -30.315  1.00  0.00     0.158 HD
HETATM   29  H   UNL     1     -12.352   4.631 -29.623  1.00  0.00     0.158 HD
ENDBRANCH  26  27
ENDBRANCH   2  22
TORSDOF 6
ENDMDL
MODEL 6
REMARK VINA RESULT:      -7.2      3.984      7.834
REMARK  6 active torsions:
REMARK  status: ('A' for Active; 'I' for Inactive)
REMARK    1  A    between atoms: C_2  and  N_3 
REMARK    2  A    between atoms: C_4  and  C_20 
REMARK    3  A    between atoms: C_10  and  C_11 
REMARK    4  A    between atoms: C_14  and  C_15 
REMARK    5  A    between atoms: C_15  and  N_16 
REMARK    6  A    between atoms: C_24  and  N_25 
ROOT
HETATM    1  N   UNL     1      -4.628   3.606 -32.972  1.00  0.00    -0.327 N 
HETATM    2  C   UNL     1      -3.387   4.149 -32.675  1.00  0.00     0.166 A 
HETATM    3  N   UNL     1      -2.669   3.302 -31.961  1.00  0.00    -0.225 NA
HETATM    4  C   UNL     1      -3.444   2.186 -31.796  1.00  0.00     0.104 A 
HETATM    5  C   UNL     1      -3.129   0.994 -31.136  1.00  0.00     0.150 A 
HETATM    6  N   UNL     1      -4.028  -0.013 -31.063  1.00  0.00    -0.270 NA
HETATM    7  C   UNL     1      -5.239   0.174 -31.635  1.00  0.00     0.131 A 
HETATM    8  C   UNL     1      -5.668   1.323 -32.317  1.00  0.00     0.021 A 
HETATM    9  C   UNL     1      -4.699   2.346 -32.393  1.00  0.00     0.079 A 
ENDROOT
BRANCH   8  10
HETATM   10  C   UNL     1      -7.021   1.400 -32.850  1.00  0.00    -0.022 A 
HETATM   11  C   UNL     1      -8.074   1.892 -32.063  1.00  0.00     0.013 A 
HETATM   12  C   UNL     1      -9.384   1.921 -32.551  1.00  0.00     0.010 A 
HETATM   13  C   UNL     1      -9.678   1.448 -33.837  1.00  0.00    -0.031 A 
HETATM   14  C   UNL     1      -8.632   0.932 -34.613  1.00  0.00     0.010 A 
HETATM   15  C   UNL     1      -7.320   0.915 -34.130  1.00  0.00     0.013 A 
BRANCH  13  16
HETATM   16  C   UNL     1     -11.112   1.414 -34.313  1.00  0.00     0.305 C 
BRANCH  16  17
HETATM   17  N   UNL     1     -12.078   1.447 -33.220  1.00  0.00     0.082 N 
HETATM   18  H   UNL     1     -11.859   0.696 -32.566  1.00  0.00     0.313 HD
HETATM   19  H   UNL     1     -13.004   1.244 -33.590  1.00  0.00     0.313 HD
ENDBRANCH  16  17
ENDBRANCH  13  16
ENDBRANCH   8  10
BRANCH   1  20
HETATM   20  C   UNL     1      -5.648   4.232 -33.793  1.00  0.00     0.126 C 
HETATM   21  C   UNL     1      -6.556   5.150 -32.993  1.00  0.00     0.027 C 
ENDBRANCH   1  20
BRANCH   2  22
HETATM   22  C   UNL     1      -2.848   5.497 -33.065  1.00  0.00     0.179 A 
HETATM   23  N   UNL     1      -3.007   6.616 -32.354  1.00  0.00    -0.097 NA
HETATM   24  O   UNL     1      -2.326   7.596 -33.069  1.00  0.00    -0.104 OA
HETATM   25  N   UNL     1      -1.746   7.075 -34.218  1.00  0.00    -0.085 NA
HETATM   26  C   UNL     1      -2.079   5.787 -34.223  1.00  0.00     0.186 A 
BRANCH  26  27
HETATM   27  N   UNL     1      -1.727   4.904 -35.179  1.00  0.00    -0.380 N 
HETATM   28  H   UNL     1      -0.782   4.894 -35.541  1.00  0.00     0.158 HD
HETATM   29  H   UNL     1      -2.248   4.033 -35.271  1.00  0.00     0.158 HD
ENDBRANCH  26  27
ENDBRANCH   2  22
TORSDOF 6
ENDMDL
MODEL 7
REMARK VINA RESULT:      -7.2      3.822      7.814
REMARK  6 active torsions:
REMARK  status: ('A' for Active; 'I' for Inactive)
REMARK    1  A    between atoms: C_2  and  N_3 
REMARK    2  A    between atoms: C_4  and  C_20 
REMARK    3  A    between atoms: C_10  and  C_11 
REMARK    4  A    between atoms: C_14  and  C_15 
REMARK    5  A    between atoms: C_15  and  N_16 
REMARK    6  A    between atoms: C_24  and  N_25 
ROOT
HETATM    1  N   UNL     1      -4.849   2.859 -32.109  1.00  0.00    -0.327 N 
HETATM    2  C   UNL     1      -3.634   3.399 -31.715  1.00  0.00     0.166 A 
HETATM    3  N   UNL     1      -2.790   2.440 -31.378  1.00  0.00    -0.225 NA
HETATM    4  C   UNL     1      -3.457   1.259 -31.562  1.00  0.00     0.104 A 
HETATM    5  C   UNL     1      -2.991  -0.045 -31.370  1.00  0.00     0.150 A 
HETATM    6  N   UNL     1      -3.798  -1.106 -31.596  1.00  0.00    -0.270 NA
HETATM    7  C   UNL     1      -5.066  -0.866 -31.999  1.00  0.00     0.131 A 
HETATM    8  C   UNL     1      -5.643   0.394 -32.219  1.00  0.00     0.021 A 
HETATM    9  C   UNL     1      -4.769   1.478 -31.995  1.00  0.00     0.079 A 
ENDROOT
BRANCH   8  10
HETATM   10  C   UNL     1      -7.041   0.504 -32.615  1.00  0.00    -0.022 A 
HETATM   11  C   UNL     1      -7.404   0.488 -33.970  1.00  0.00     0.013 A 
HETATM   12  C   UNL     1      -8.738   0.645 -34.359  1.00  0.00     0.010 A 
HETATM   13  C   UNL     1      -9.745   0.832 -33.402  1.00  0.00    -0.031 A 
HETATM   14  C   UNL     1      -9.378   0.875 -32.049  1.00  0.00     0.010 A 
HETATM   15  C   UNL     1      -8.046   0.705 -31.660  1.00  0.00     0.013 A 
BRANCH  13  16
HETATM   16  C   UNL     1     -11.167   1.080 -33.847  1.00  0.00     0.305 C 
BRANCH  16  17
HETATM   17  N   UNL     1     -11.253   1.880 -35.064  1.00  0.00     0.082 N 
HETATM   18  H   UNL     1     -11.152   1.264 -35.869  1.00  0.00     0.313 HD
HETATM   19  H   UNL     1     -10.464   2.523 -35.094  1.00  0.00     0.313 HD
ENDBRANCH  16  17
ENDBRANCH  13  16
ENDBRANCH   8  10
BRANCH   1  20
HETATM   20  C   UNL     1      -5.985   3.615 -32.605  1.00  0.00     0.126 C 
HETATM   21  C   UNL     1      -5.921   3.845 -34.105  1.00  0.00     0.027 C 
ENDBRANCH   1  20
BRANCH   2  22
HETATM   22  C   UNL     1      -3.240   4.847 -31.649  1.00  0.00     0.179 A 
HETATM   23  N   UNL     1      -3.775   5.745 -30.819  1.00  0.00    -0.097 NA
HETATM   24  O   UNL     1      -3.095   6.929 -31.082  1.00  0.00    -0.104 OA
HETATM   25  N   UNL     1      -2.139   6.755 -32.075  1.00  0.00    -0.085 NA
HETATM   26  C   UNL     1      -2.238   5.477 -32.433  1.00  0.00     0.186 A 
BRANCH  26  27
HETATM   27  N   UNL     1      -1.491   4.885 -33.386  1.00  0.00    -0.380 N 
HETATM   28  H   UNL     1      -1.412   3.877 -33.419  1.00  0.00     0.158 HD
HETATM   29  H   UNL     1      -1.323   5.373 -34.265  1.00  0.00     0.158 HD
ENDBRANCH  26  27
ENDBRANCH   2  22
TORSDOF 6
ENDMDL
MODEL 8
REMARK VINA RESULT:      -7.1     15.837     17.937
REMARK  6 active torsions:
REMARK  status: ('A' for Active; 'I' for Inactive)
REMARK    1  A    between atoms: C_2  and  N_3 
REMARK    2  A    between atoms: C_4  and  C_20 
REMARK    3  A    between atoms: C_10  and  C_11 
REMARK    4  A    between atoms: C_14  and  C_15 
REMARK    5  A    between atoms: C_15  and  N_16 
REMARK    6  A    between atoms: C_24  and  N_25 
ROOT
HETATM    1  N   UNL     1      -4.597 -14.047 -37.564  1.00  0.00    -0.327 N 
HETATM    2  C   UNL     1      -3.331 -13.953 -37.007  1.00  0.00     0.166 A 
HETATM    3  N   UNL     1      -3.411 -13.653 -35.723  1.00  0.00    -0.225 NA
HETATM    4  C   UNL     1      -4.745 -13.559 -35.434  1.00  0.00     0.104 A 
HETATM    5  C   UNL     1      -5.355 -13.287 -34.205  1.00  0.00     0.150 A 
HETATM    6  N   UNL     1      -6.701 -13.224 -34.102  1.00  0.00    -0.270 NA
HETATM    7  C   UNL     1      -7.435 -13.418 -35.222  1.00  0.00     0.131 A 
HETATM    8  C   UNL     1      -6.936 -13.691 -36.504  1.00  0.00     0.021 A 
HETATM    9  C   UNL     1      -5.529 -13.771 -36.573  1.00  0.00     0.079 A 
ENDROOT
BRANCH   8  10
HETATM   10  C   UNL     1      -7.846 -13.838 -37.632  1.00  0.00    -0.022 A 
HETATM   11  C   UNL     1      -8.272 -12.716 -38.359  1.00  0.00     0.013 A 
HETATM   12  C   UNL     1      -9.186 -12.845 -39.409  1.00  0.00     0.010 A 
HETATM   13  C   UNL     1      -9.707 -14.099 -39.755  1.00  0.00    -0.031 A 
HETATM   14  C   UNL     1      -9.302 -15.216 -39.011  1.00  0.00     0.010 A 
HETATM   15  C   UNL     1      -8.378 -15.090 -37.970  1.00  0.00     0.013 A 
BRANCH  13  16
HETATM   16  C   UNL     1     -10.753 -14.204 -40.839  1.00  0.00     0.305 C 
BRANCH  16  17
HETATM   17  N   UNL     1     -11.723 -13.114 -40.805  1.00  0.00     0.082 N 
HETATM   18  H   UNL     1     -11.456 -12.415 -41.497  1.00  0.00     0.313 HD
HETATM   19  H   UNL     1     -11.672 -12.655 -39.898  1.00  0.00     0.313 HD
ENDBRANCH  16  17
ENDBRANCH  13  16
ENDBRANCH   8  10
BRANCH   1  20
HETATM   20  C   UNL     1      -4.888 -14.423 -38.936  1.00  0.00     0.126 C 
HETATM   21  C   UNL     1      -4.938 -13.226 -39.869  1.00  0.00     0.027 C 
ENDBRANCH   1  20
BRANCH   2  22
HETATM   22  C   UNL     1      -2.003 -14.147 -37.683  1.00  0.00     0.179 A 
HETATM   23  N   UNL     1      -1.293 -15.278 -37.658  1.00  0.00    -0.097 NA
HETATM   24  O   UNL     1      -0.166 -15.013 -38.430  1.00  0.00    -0.104 OA
HETATM   25  N   UNL     1      -0.187 -13.717 -38.929  1.00  0.00    -0.085 NA
HETATM   26  C   UNL     1      -1.310 -13.180 -38.458  1.00  0.00     0.186 A 
BRANCH  26  27
HETATM   27  N   UNL     1      -1.718 -11.918 -38.695  1.00  0.00    -0.380 N 
HETATM   28  H   UNL     1      -1.508 -11.471 -39.578  1.00  0.00     0.158 HD
HETATM   29  H   UNL     1      -2.525 -11.550 -38.192  1.00  0.00     0.158 HD
ENDBRANCH  26  27
ENDBRANCH   2  22
TORSDOF 6
ENDMDL
MODEL 9
REMARK VINA RESULT:      -7.0      4.212      8.020
REMARK  6 active torsions:
REMARK  status: ('A' for Active; 'I' for Inactive)
REMARK    1  A    between atoms: C_2  and  N_3 
REMARK    2  A    between atoms: C_4  and  C_20 
REMARK    3  A    between atoms: C_10  and  C_11 
REMARK    4  A    between atoms: C_14  and  C_15 
REMARK    5  A    between atoms: C_15  and  N_16 
REMARK    6  A    between atoms: C_24  and  N_25 
ROOT
HETATM    1  N   UNL     1      -4.475   4.242 -32.944  1.00  0.00    -0.327 N 
HETATM    2  C   UNL     1      -3.189   4.698 -32.696  1.00  0.00     0.166 A 
HETATM    3  N   UNL     1      -2.503   3.800 -32.013  1.00  0.00    -0.225 NA
HETATM    4  C   UNL     1      -3.346   2.739 -31.819  1.00  0.00     0.104 A 
HETATM    5  C   UNL     1      -3.087   1.526 -31.173  1.00  0.00     0.150 A 
HETATM    6  N   UNL     1      -4.050   0.583 -31.066  1.00  0.00    -0.270 NA
HETATM    7  C   UNL     1      -5.267   0.855 -31.589  1.00  0.00     0.131 A 
HETATM    8  C   UNL     1      -5.642   2.033 -32.251  1.00  0.00     0.021 A 
HETATM    9  C   UNL     1      -4.610   2.987 -32.364  1.00  0.00     0.079 A 
ENDROOT
BRANCH   8  10
HETATM   10  C   UNL     1      -7.008   2.205 -32.729  1.00  0.00    -0.022 A 
HETATM   11  C   UNL     1      -7.978   2.815 -31.920  1.00  0.00     0.013 A 
HETATM   12  C   UNL     1      -9.302   2.936 -32.352  1.00  0.00     0.010 A 
HETATM   13  C   UNL     1      -9.694   2.442 -33.604  1.00  0.00    -0.031 A 
HETATM   14  C   UNL     1      -8.730   1.810 -34.402  1.00  0.00     0.010 A 
HETATM   15  C   UNL     1      -7.404   1.700 -33.974  1.00  0.00     0.013 A 
BRANCH  13  16
HETATM   16  C   UNL     1     -11.145   2.512 -34.018  1.00  0.00     0.305 C 
BRANCH  16  17
HETATM   17  N   UNL     1     -12.066   2.244 -32.918  1.00  0.00     0.082 N 
HETATM   18  H   UNL     1     -12.731   1.532 -33.214  1.00  0.00     0.313 HD
HETATM   19  H   UNL     1     -12.609   3.084 -32.729  1.00  0.00     0.313 HD
ENDBRANCH  16  17
ENDBRANCH  13  16
ENDBRANCH   8  10
BRANCH   1  20
HETATM   20  C   UNL     1      -5.482   4.940 -33.722  1.00  0.00     0.126 C 
HETATM   21  C   UNL     1      -6.254   5.956 -32.898  1.00  0.00     0.027 C 
ENDBRANCH   1  20
BRANCH   2  22
HETATM   22  C   UNL     1      -2.574   6.007 -33.105  1.00  0.00     0.179 A 
HETATM   23  N   UNL     1      -2.229   6.330 -34.354  1.00  0.00    -0.097 NA
HETATM   24  O   UNL     1      -1.735   7.627 -34.267  1.00  0.00    -0.104 OA
HETATM   25  N   UNL     1      -1.780   8.100 -32.962  1.00  0.00    -0.085 NA
HETATM   26  C   UNL     1      -2.283   7.098 -32.245  1.00  0.00     0.186 A 
BRANCH  26  27
HETATM   27  N   UNL     1      -2.487   7.131 -30.913  1.00  0.00    -0.380 N 
HETATM   28  H   UNL     1      -3.031   6.407 -30.463  1.00  0.00     0.158 HD
HETATM   29  H   UNL     1      -1.822   7.624 -30.317  1.00  0.00     0.158 HD
ENDBRANCH  26  27
ENDBRANCH   2  22
TORSDOF 6
ENDMDL
MODEL 10
REMARK VINA RESULT:      -6.9      1.936      2.436
REMARK  6 active torsions:
REMARK  status: ('A' for Active; 'I' for Inactive)
REMARK    1  A    between atoms: C_2  and  N_3 
REMARK    2  A    between atoms: C_4  and  C_20 
REMARK    3  A    between atoms: C_10  and  C_11 
REMARK    4  A    between atoms: C_14  and  C_15 
REMARK    5  A    between atoms: C_15  and  N_16 
REMARK    6  A    between atoms: C_24  and  N_25 
ROOT
HETATM    1  N   UNL     1      -9.341   1.859 -32.742  1.00  0.00    -0.327 N 
HETATM    2  C   UNL     1     -10.615   2.375 -32.929  1.00  0.00     0.166 A 
HETATM    3  N   UNL     1     -10.838   3.371 -32.091  1.00  0.00    -0.225 NA
HETATM    4  C   UNL     1      -9.694   3.515 -31.353  1.00  0.00     0.104 A 
HETATM    5  C   UNL     1      -9.415   4.448 -30.349  1.00  0.00     0.150 A 
HETATM    6  N   UNL     1      -8.222   4.442 -29.714  1.00  0.00    -0.270 NA
HETATM    7  C   UNL     1      -7.318   3.501 -30.069  1.00  0.00     0.131 A 
HETATM    8  C   UNL     1      -7.488   2.515 -31.053  1.00  0.00     0.021 A 
HETATM    9  C   UNL     1      -8.734   2.563 -31.711  1.00  0.00     0.079 A 
ENDROOT
BRANCH   8  10
HETATM   10  C   UNL     1      -6.438   1.536 -31.303  1.00  0.00    -0.022 A 
HETATM   11  C   UNL     1      -5.304   1.879 -32.056  1.00  0.00     0.013 A 
HETATM   12  C   UNL     1      -4.318   0.930 -32.343  1.00  0.00     0.010 A 
HETATM   13  C   UNL     1      -4.444  -0.391 -31.893  1.00  0.00    -0.031 A 
HETATM   14  C   UNL     1      -5.590  -0.740 -31.164  1.00  0.00     0.010 A 
HETATM   15  C   UNL     1      -6.569   0.212 -30.866  1.00  0.00     0.013 A 
BRANCH  13  16
HETATM   16  C   UNL     1      -3.408  -1.418 -32.282  1.00  0.00     0.305 C 
BRANCH  16  17
HETATM   17  N   UNL     1      -2.176  -1.309 -31.507  1.00  0.00     0.082 N 
HETATM   18  H   UNL     1      -1.677  -2.196 -31.557  1.00  0.00     0.313 HD
HETATM   19  H   UNL     1      -2.413  -1.167 -30.527  1.00  0.00     0.313 HD
ENDBRANCH  16  17
ENDBRANCH  13  16
ENDBRANCH   8  10
BRANCH   1  20
HETATM   20  C   UNL     1      -8.737   0.801 -33.532  1.00  0.00     0.126 C 
HETATM   21  C   UNL     1      -7.887   1.338 -34.670  1.00  0.00     0.027 C 
ENDBRANCH   1  20
BRANCH   2  22
HETATM   22  C   UNL     1     -11.660   1.934 -33.915  1.00  0.00     0.179 A 
HETATM   23  N   UNL     1     -12.368   0.806 -33.820  1.00  0.00    -0.097 NA
HETATM   24  O   UNL     1     -13.222   0.824 -34.918  1.00  0.00    -0.104 OA
HETATM   25  N   UNL     1     -13.038   1.967 -35.685  1.00  0.00    -0.085 NA
HETATM   26  C   UNL     1     -12.067   2.643 -35.076  1.00  0.00     0.186 A 
BRANCH  26  27
HETATM   27  N   UNL     1     -11.564   3.819 -35.499  1.00  0.00    -0.380 N 
HETATM   28  H   UNL     1     -11.112   3.885 -36.402  1.00  0.00     0.158 HD
HETATM   29  H   UNL     1     -11.946   4.689 -35.129  1.00  0.00     0.158 HD
ENDBRANCH  26  27
ENDBRANCH   2  22
TORSDOF 6
ENDMDL
