MODEL 1
REMARK VINA RESULT:      -8.4      0.000      0.000
REMARK  9 active torsions:
REMARK  status: ('A' for Active; 'I' for Inactive)
REMARK    1  A    between atoms: C_2  and  C_3 
REMARK    2  A    between atoms: C_3  and  C_4 
REMARK    3  A    between atoms: C_4  and  N_5 
REMARK    4  A    between atoms: C_14  and  C_15 
REMARK    5  A    between atoms: C_15  and  C_16 
REMARK    6  A    between atoms: C_16  and  C_17 
REMARK       I    between atoms: C_17  and  N_18 
REMARK    7  A    between atoms: N_18  and  C_19 
REMARK    8  A    between atoms: N_32  and  C_33 
REMARK    9  A    between atoms: C_33  and  C_34 
ROOT
HETATM    1  N   UNL     1      -4.448   3.845 -32.653  1.00  0.00    -0.282 N 
HETATM    2  C   UNL     1      -3.422   3.723 -31.718  1.00  0.00     0.331 A 
HETATM    3  O   UNL     1      -2.733   4.664 -31.327  1.00  0.00    -0.246 OA
HETATM    4  N   UNL     1      -3.192   2.466 -31.195  1.00  0.00    -0.273 N 
HETATM    5  C   UNL     1      -3.871   1.303 -31.477  1.00  0.00     0.280 A 
HETATM    6  O   UNL     1      -3.624   0.246 -30.911  1.00  0.00    -0.265 OA
HETATM    7  C   UNL     1      -4.895   1.493 -32.449  1.00  0.00     0.151 A 
HETATM    8  C   UNL     1      -5.167   2.717 -32.987  1.00  0.00     0.168 A 
HETATM    9  N   UNL     1      -6.221   2.665 -33.840  1.00  0.00    -0.215 NA
HETATM   10  C   UNL     1      -6.540   1.383 -33.927  1.00  0.00     0.109 A 
HETATM   11  N   UNL     1      -5.761   0.626 -33.064  1.00  0.00    -0.327 N 
HETATM   12  H   UNL     1      -2.443   2.401 -30.520  1.00  0.00     0.173 HD
ENDROOT
BRANCH  10  13
HETATM   13  C   UNL     1      -7.609   0.827 -34.822  1.00  0.00     0.088 C 
BRANCH  13  14
HETATM   14  C   UNL     1      -8.896   0.497 -34.068  1.00  0.00     0.110 C 
BRANCH  14  15
HETATM   15  C   UNL     1      -9.391   1.647 -33.210  1.00  0.00     0.218 C 
HETATM   16  N   UNL     1     -10.037   2.657 -33.893  1.00  0.00    -0.356 N 
HETATM   17  H   UNL     1     -10.357   2.348 -34.817  1.00  0.00     0.162 HD
HETATM   18  O   UNL     1      -9.194   1.670 -32.001  1.00  0.00    -0.274 OA
BRANCH  16  19
HETATM   19  C   UNL     1     -10.856   3.693 -33.269  1.00  0.00     0.089 C 
HETATM   20  C   UNL     1     -12.012   3.069 -32.474  1.00  0.00     0.063 C 
HETATM   21  C   UNL     1     -13.224   2.625 -33.312  1.00  0.00     0.121 C 
HETATM   22  C   UNL     1     -13.004   1.306 -34.060  1.00  0.00     0.046 C 
HETATM   23  C   UNL     1     -14.439   2.428 -32.382  1.00  0.00     0.046 C 
HETATM   24  N   UNL     1     -13.621   3.716 -34.284  1.00  0.00    -0.059 N 
HETATM   25  H   UNL     1     -14.131   4.431 -33.745  1.00  0.00     0.279 HD
HETATM   26  H   UNL     1     -14.325   3.345 -34.937  1.00  0.00     0.279 HD
HETATM   27  C   UNL     1     -12.559   4.448 -35.081  1.00  0.00     0.121 C 
HETATM   28  C   UNL     1     -13.233   5.740 -35.595  1.00  0.00     0.046 C 
HETATM   29  C   UNL     1     -12.164   3.626 -36.309  1.00  0.00     0.046 C 
HETATM   30  C   UNL     1     -11.406   4.826 -34.146  1.00  0.00     0.063 C 
ENDBRANCH  16  19
ENDBRANCH  14  15
ENDBRANCH  13  14
ENDBRANCH  10  13
BRANCH  11  31
HETATM   31  C   UNL     1      -5.888  -0.799 -32.815  1.00  0.00     0.134 C 
BRANCH  31  32
HETATM   32  C   UNL     1      -5.182  -1.689 -33.849  1.00  0.00    -0.004 C 
HETATM   33  C   UNL     1      -4.052  -2.508 -33.224  1.00  0.00     0.011 C 
HETATM   34  C   UNL     1      -6.203  -2.621 -34.502  1.00  0.00     0.011 C 
ENDBRANCH  31  32
ENDBRANCH  11  31
BRANCH   1  35
HETATM   35  C   UNL     1      -4.677   5.123 -33.320  1.00  0.00     0.135 C 
BRANCH  35  36
HETATM   36  C   UNL     1      -3.891   5.299 -34.621  1.00  0.00     0.020 C 
BRANCH  36  37
HETATM   37  C   UNL     1      -2.624   6.135 -34.448  1.00  0.00    -0.003 C 
HETATM   38  C   UNL     1      -1.381   5.323 -34.775  1.00  0.00     0.005 C 
ENDBRANCH  36  37
ENDBRANCH  35  36
ENDBRANCH   1  35
TORSDOF 9
ENDMDL
MODEL 2
REMARK VINA RESULT:      -8.2      1.992      4.969
REMARK  9 active torsions:
REMARK  status: ('A' for Active; 'I' for Inactive)
REMARK    1  A    between atoms: C_2  and  C_3 
REMARK    2  A    between atoms: C_3  and  C_4 
REMARK    3  A    between atoms: C_4  and  N_5 
REMARK    4  A    between atoms: C_14  and  C_15 
REMARK    5  A    between atoms: C_15  and  C_16 
REMARK    6  A    between atoms: C_16  and  C_17 
REMARK       I    between atoms: C_17  and  N_18 
REMARK    7  A    between atoms: N_18  and  C_19 
REMARK    8  A    between atoms: N_32  and  C_33 
REMARK    9  A    between atoms: C_33  and  C_34 
ROOT
HETATM    1  N   UNL     1      -5.420  -0.468 -32.788  1.00  0.00    -0.282 N 
HETATM    2  C   UNL     1      -4.159  -0.911 -32.393  1.00  0.00     0.331 A 
HETATM    3  O   UNL     1      -3.754  -2.061 -32.553  1.00  0.00    -0.246 OA
HETATM    4  N   UNL     1      -3.321   0.016 -31.806  1.00  0.00    -0.273 N 
HETATM    5  C   UNL     1      -3.576   1.348 -31.573  1.00  0.00     0.280 A 
HETATM    6  O   UNL     1      -2.737   2.103 -31.097  1.00  0.00    -0.265 OA
HETATM    7  C   UNL     1      -4.884   1.733 -31.984  1.00  0.00     0.151 A 
HETATM    8  C   UNL     1      -5.745   0.856 -32.578  1.00  0.00     0.168 A 
HETATM    9  N   UNL     1      -6.905   1.461 -32.940  1.00  0.00    -0.215 NA
HETATM   10  C   UNL     1      -6.818   2.695 -32.469  1.00  0.00     0.109 A 
HETATM   11  N   UNL     1      -5.576   2.913 -31.893  1.00  0.00    -0.327 N 
HETATM   12  H   UNL     1      -2.413  -0.327 -31.528  1.00  0.00     0.173 HD
ENDROOT
BRANCH  10  13
HETATM   13  C   UNL     1      -7.908   3.722 -32.562  1.00  0.00     0.088 C 
BRANCH  13  14
HETATM   14  C   UNL     1      -7.821   4.562 -33.835  1.00  0.00     0.110 C 
BRANCH  14  15
HETATM   15  C   UNL     1      -9.150   4.682 -34.557  1.00  0.00     0.218 C 
HETATM   16  N   UNL     1      -9.969   3.574 -34.473  1.00  0.00    -0.356 N 
HETATM   17  H   UNL     1      -9.701   2.961 -33.696  1.00  0.00     0.162 HD
HETATM   18  O   UNL     1      -9.444   5.690 -35.189  1.00  0.00    -0.274 OA
BRANCH  16  19
HETATM   19  C   UNL     1     -11.389   3.560 -34.811  1.00  0.00     0.089 C 
HETATM   20  C   UNL     1     -12.202   4.366 -33.788  1.00  0.00     0.063 C 
HETATM   21  C   UNL     1     -12.515   3.634 -32.471  1.00  0.00     0.121 C 
HETATM   22  C   UNL     1     -11.327   3.571 -31.505  1.00  0.00     0.046 C 
HETATM   23  C   UNL     1     -13.661   4.367 -31.743  1.00  0.00     0.046 C 
HETATM   24  N   UNL     1     -13.032   2.239 -32.754  1.00  0.00    -0.059 N 
HETATM   25  H   UNL     1     -14.014   2.334 -33.049  1.00  0.00     0.279 HD
HETATM   26  H   UNL     1     -13.086   1.714 -31.870  1.00  0.00     0.279 HD
HETATM   27  C   UNL     1     -12.348   1.370 -33.792  1.00  0.00     0.121 C 
HETATM   28  C   UNL     1     -13.359   0.255 -34.142  1.00  0.00     0.046 C 
HETATM   29  C   UNL     1     -11.120   0.692 -33.182  1.00  0.00     0.046 C 
HETATM   30  C   UNL     1     -12.079   2.209 -35.045  1.00  0.00     0.063 C 
ENDBRANCH  16  19
ENDBRANCH  14  15
ENDBRANCH  13  14
ENDBRANCH  10  13
BRANCH  11  31
HETATM   31  C   UNL     1      -5.082   4.169 -31.357  1.00  0.00     0.134 C 
BRANCH  31  32
HETATM   32  C   UNL     1      -4.375   5.064 -32.386  1.00  0.00    -0.004 C 
HETATM   33  C   UNL     1      -5.078   6.412 -32.552  1.00  0.00     0.011 C 
HETATM   34  C   UNL     1      -2.922   5.282 -31.961  1.00  0.00     0.011 C 
ENDBRANCH  31  32
ENDBRANCH  11  31
BRANCH   1  35
HETATM   35  C   UNL     1      -6.392  -1.419 -33.321  1.00  0.00     0.135 C 
BRANCH  35  36
HETATM   36  C   UNL     1      -6.264  -1.666 -34.825  1.00  0.00     0.020 C 
BRANCH  36  37
HETATM   37  C   UNL     1      -5.655  -3.027 -35.159  1.00  0.00    -0.003 C 
HETATM   38  C   UNL     1      -6.683  -4.138 -35.015  1.00  0.00     0.005 C 
ENDBRANCH  36  37
ENDBRANCH  35  36
ENDBRANCH   1  35
TORSDOF 9
ENDMDL
MODEL 3
REMARK VINA RESULT:      -8.2      2.252      4.754
REMARK  9 active torsions:
REMARK  status: ('A' for Active; 'I' for Inactive)
REMARK    1  A    between atoms: C_2  and  C_3 
REMARK    2  A    between atoms: C_3  and  C_4 
REMARK    3  A    between atoms: C_4  and  N_5 
REMARK    4  A    between atoms: C_14  and  C_15 
REMARK    5  A    between atoms: C_15  and  C_16 
REMARK    6  A    between atoms: C_16  and  C_17 
REMARK       I    between atoms: C_17  and  N_18 
REMARK    7  A    between atoms: N_18  and  C_19 
REMARK    8  A    between atoms: N_32  and  C_33 
REMARK    9  A    between atoms: C_33  and  C_34 
ROOT
HETATM    1  N   UNL     1      -4.506  -0.442 -32.292  1.00  0.00    -0.282 N 
HETATM    2  C   UNL     1      -3.364   0.050 -31.662  1.00  0.00     0.331 A 
HETATM    3  O   UNL     1      -2.315  -0.582 -31.550  1.00  0.00    -0.246 OA
HETATM    4  N   UNL     1      -3.427   1.334 -31.157  1.00  0.00    -0.273 N 
HETATM    5  C   UNL     1      -4.489   2.206 -31.213  1.00  0.00     0.280 A 
HETATM    6  O   UNL     1      -4.421   3.350 -30.783  1.00  0.00    -0.265 OA
HETATM    7  C   UNL     1      -5.627   1.638 -31.854  1.00  0.00     0.151 A 
HETATM    8  C   UNL     1      -5.611   0.378 -32.378  1.00  0.00     0.168 A 
HETATM    9  N   UNL     1      -6.783   0.078 -32.994  1.00  0.00    -0.215 NA
HETATM   10  C   UNL     1      -7.579   1.108 -32.755  1.00  0.00     0.109 A 
HETATM   11  N   UNL     1      -6.897   2.106 -32.076  1.00  0.00    -0.327 N 
HETATM   12  H   UNL     1      -2.588   1.669 -30.704  1.00  0.00     0.173 HD
ENDROOT
BRANCH  10  13
HETATM   13  C   UNL     1      -9.016   1.193 -33.179  1.00  0.00     0.088 C 
BRANCH  13  14
HETATM   14  C   UNL     1      -9.844   0.001 -32.701  1.00  0.00     0.110 C 
BRANCH  14  15
HETATM   15  C   UNL     1     -11.312   0.113 -33.070  1.00  0.00     0.218 C 
HETATM   16  N   UNL     1     -11.756   1.392 -33.338  1.00  0.00    -0.356 N 
HETATM   17  H   UNL     1     -10.980   2.030 -33.545  1.00  0.00     0.162 HD
HETATM   18  O   UNL     1     -12.040  -0.872 -33.095  1.00  0.00    -0.274 OA
BRANCH  16  19
HETATM   19  C   UNL     1     -13.016   1.715 -34.000  1.00  0.00     0.089 C 
HETATM   20  C   UNL     1     -12.806   2.788 -35.079  1.00  0.00     0.063 C 
HETATM   21  C   UNL     1     -12.715   4.234 -34.561  1.00  0.00     0.121 C 
HETATM   22  C   UNL     1     -11.362   4.577 -33.931  1.00  0.00     0.046 C 
HETATM   23  C   UNL     1     -12.935   5.209 -35.737  1.00  0.00     0.046 C 
HETATM   24  N   UNL     1     -13.834   4.513 -33.580  1.00  0.00    -0.059 N 
HETATM   25  H   UNL     1     -14.691   4.661 -34.131  1.00  0.00     0.279 HD
HETATM   26  H   UNL     1     -13.667   5.424 -33.128  1.00  0.00     0.279 HD
HETATM   27  C   UNL     1     -14.176   3.497 -32.506  1.00  0.00     0.121 C 
HETATM   28  C   UNL     1     -15.589   3.872 -32.006  1.00  0.00     0.046 C 
HETATM   29  C   UNL     1     -13.222   3.646 -31.320  1.00  0.00     0.046 C 
HETATM   30  C   UNL     1     -14.225   2.103 -33.138  1.00  0.00     0.063 C 
ENDBRANCH  16  19
ENDBRANCH  14  15
ENDBRANCH  13  14
ENDBRANCH  10  13
BRANCH  11  31
HETATM   31  C   UNL     1      -7.412   3.418 -31.726  1.00  0.00     0.134 C 
BRANCH  31  32
HETATM   32  C   UNL     1      -8.102   3.484 -30.355  1.00  0.00    -0.004 C 
HETATM   33  C   UNL     1      -7.442   4.507 -29.430  1.00  0.00     0.011 C 
HETATM   34  C   UNL     1      -9.580   3.828 -30.543  1.00  0.00     0.011 C 
ENDBRANCH  31  32
ENDBRANCH  11  31
BRANCH   1  35
HETATM   35  C   UNL     1      -4.542  -1.825 -32.758  1.00  0.00     0.135 C 
BRANCH  35  36
HETATM   36  C   UNL     1      -4.507  -1.973 -34.280  1.00  0.00     0.020 C 
BRANCH  36  37
HETATM   37  C   UNL     1      -5.199  -3.242 -34.775  1.00  0.00    -0.003 C 
HETATM   38  C   UNL     1      -6.712  -3.092 -34.740  1.00  0.00     0.005 C 
ENDBRANCH  36  37
ENDBRANCH  35  36
ENDBRANCH   1  35
TORSDOF 9
ENDMDL
MODEL 4
REMARK VINA RESULT:      -8.1      1.285      2.293
REMARK  9 active torsions:
REMARK  status: ('A' for Active; 'I' for Inactive)
REMARK    1  A    between atoms: C_2  and  C_3 
REMARK    2  A    between atoms: C_3  and  C_4 
REMARK    3  A    between atoms: C_4  and  N_5 
REMARK    4  A    between atoms: C_14  and  C_15 
REMARK    5  A    between atoms: C_15  and  C_16 
REMARK    6  A    between atoms: C_16  and  C_17 
REMARK       I    between atoms: C_17  and  N_18 
REMARK    7  A    between atoms: N_18  and  C_19 
REMARK    8  A    between atoms: N_32  and  C_33 
REMARK    9  A    between atoms: C_33  and  C_34 
ROOT
HETATM    1  N   UNL     1      -4.475   3.644 -32.522  1.00  0.00    -0.282 N 
HETATM    2  C   UNL     1      -3.350   3.442 -31.725  1.00  0.00     0.331 A 
HETATM    3  O   UNL     1      -2.605   4.345 -31.347  1.00  0.00    -0.246 OA
HETATM    4  N   UNL     1      -3.084   2.147 -31.329  1.00  0.00    -0.273 N 
HETATM    5  C   UNL     1      -3.811   1.015 -31.617  1.00  0.00     0.280 A 
HETATM    6  O   UNL     1      -3.518  -0.085 -31.165  1.00  0.00    -0.265 OA
HETATM    7  C   UNL     1      -4.936   1.287 -32.447  1.00  0.00     0.151 A 
HETATM    8  C   UNL     1      -5.248   2.551 -32.855  1.00  0.00     0.168 A 
HETATM    9  N   UNL     1      -6.394   2.574 -33.581  1.00  0.00    -0.215 NA
HETATM   10  C   UNL     1      -6.742   1.306 -33.727  1.00  0.00     0.109 A 
HETATM   11  N   UNL     1      -5.883   0.478 -33.020  1.00  0.00    -0.327 N 
HETATM   12  H   UNL     1      -2.263   2.024 -30.753  1.00  0.00     0.173 HD
ENDROOT
BRANCH  10  13
HETATM   13  C   UNL     1      -7.917   0.830 -34.531  1.00  0.00     0.088 C 
BRANCH  13  14
HETATM   14  C   UNL     1      -9.006   0.196 -33.666  1.00  0.00     0.110 C 
BRANCH  14  15
HETATM   15  C   UNL     1     -10.330   0.934 -33.747  1.00  0.00     0.218 C 
HETATM   16  N   UNL     1     -10.249   2.244 -34.173  1.00  0.00    -0.356 N 
HETATM   17  H   UNL     1      -9.366   2.433 -34.658  1.00  0.00     0.162 HD
HETATM   18  O   UNL     1     -11.381   0.394 -33.425  1.00  0.00    -0.274 OA
BRANCH  16  19
HETATM   19  C   UNL     1     -11.385   3.046 -34.619  1.00  0.00     0.089 C 
HETATM   20  C   UNL     1     -10.913   4.235 -35.469  1.00  0.00     0.063 C 
HETATM   21  C   UNL     1     -10.380   5.441 -34.675  1.00  0.00     0.121 C 
HETATM   22  C   UNL     1      -8.962   5.242 -34.132  1.00  0.00     0.046 C 
HETATM   23  C   UNL     1     -10.351   6.680 -35.594  1.00  0.00     0.046 C 
HETATM   24  N   UNL     1     -11.327   5.788 -33.546  1.00  0.00    -0.059 N 
HETATM   25  H   UNL     1     -12.125   6.289 -33.962  1.00  0.00     0.279 HD
HETATM   26  H   UNL     1     -10.882   6.489 -32.936  1.00  0.00     0.279 HD
HETATM   27  C   UNL     1     -11.909   4.690 -32.676  1.00  0.00     0.121 C 
HETATM   28  C   UNL     1     -13.129   5.317 -31.964  1.00  0.00     0.046 C 
HETATM   29  C   UNL     1     -10.907   4.293 -31.591  1.00  0.00     0.046 C 
HETATM   30  C   UNL     1     -12.391   3.547 -33.574  1.00  0.00     0.063 C 
ENDBRANCH  16  19
ENDBRANCH  14  15
ENDBRANCH  13  14
ENDBRANCH  10  13
BRANCH  11  31
HETATM   31  C   UNL     1      -6.004  -0.961 -32.867  1.00  0.00     0.134 C 
BRANCH  31  32
HETATM   32  C   UNL     1      -5.419  -1.775 -34.031  1.00  0.00    -0.004 C 
HETATM   33  C   UNL     1      -4.239  -2.641 -33.589  1.00  0.00     0.011 C 
HETATM   34  C   UNL     1      -6.512  -2.654 -34.639  1.00  0.00     0.011 C 
ENDBRANCH  31  32
ENDBRANCH  11  31
BRANCH   1  35
HETATM   35  C   UNL     1      -4.758   4.972 -33.060  1.00  0.00     0.135 C 
BRANCH  35  36
HETATM   36  C   UNL     1      -4.204   5.208 -34.466  1.00  0.00     0.020 C 
BRANCH  36  37
HETATM   37  C   UNL     1      -2.860   5.934 -34.467  1.00  0.00    -0.003 C 
HETATM   38  C   UNL     1      -1.740   5.015 -34.930  1.00  0.00     0.005 C 
ENDBRANCH  36  37
ENDBRANCH  35  36
ENDBRANCH   1  35
TORSDOF 9
ENDMDL
MODEL 5
REMARK VINA RESULT:      -8.0      3.640      6.660
REMARK  9 active torsions:
REMARK  status: ('A' for Active; 'I' for Inactive)
REMARK    1  A    between atoms: C_2  and  C_3 
REMARK    2  A    between atoms: C_3  and  C_4 
REMARK    3  A    between atoms: C_4  and  N_5 
REMARK    4  A    between atoms: C_14  and  C_15 
REMARK    5  A    between atoms: C_15  and  C_16 
REMARK    6  A    between atoms: C_16  and  C_17 
REMARK       I    between atoms: C_17  and  N_18 
REMARK    7  A    between atoms: N_18  and  C_19 
REMARK    8  A    between atoms: N_32  and  C_33 
REMARK    9  A    between atoms: C_33  and  C_34 
ROOT
HETATM    1  N   UNL     1      -1.631   7.015 -28.694  1.00  0.00    -0.282 N 
HETATM    2  C   UNL     1      -0.279   6.806 -28.427  1.00  0.00     0.331 A 
HETATM    3  O   UNL     1       0.305   7.258 -27.443  1.00  0.00    -0.246 OA
HETATM    4  N   UNL     1       0.427   6.026 -29.321  1.00  0.00    -0.273 N 
HETATM    5  C   UNL     1      -0.051   5.407 -30.453  1.00  0.00     0.280 A 
HETATM    6  O   UNL     1       0.650   4.685 -31.151  1.00  0.00    -0.265 OA
HETATM    7  C   UNL     1      -1.432   5.673 -30.678  1.00  0.00     0.151 A 
HETATM    8  C   UNL     1      -2.175   6.429 -29.818  1.00  0.00     0.168 A 
HETATM    9  N   UNL     1      -3.475   6.491 -30.202  1.00  0.00    -0.215 NA
HETATM   10  C   UNL     1      -3.526   5.868 -31.368  1.00  0.00     0.109 A 
HETATM   11  N   UNL     1      -2.291   5.325 -31.688  1.00  0.00    -0.327 N 
HETATM   12  H   UNL     1       1.404   5.889 -29.108  1.00  0.00     0.173 HD
ENDROOT
BRANCH  10  13
HETATM   13  C   UNL     1      -4.757   5.749 -32.220  1.00  0.00     0.088 C 
BRANCH  13  14
HETATM   14  C   UNL     1      -5.456   4.399 -32.061  1.00  0.00     0.110 C 
BRANCH  14  15
HETATM   15  C   UNL     1      -5.940   3.825 -33.380  1.00  0.00     0.218 C 
HETATM   16  N   UNL     1      -6.211   2.472 -33.371  1.00  0.00    -0.356 N 
HETATM   17  H   UNL     1      -6.339   2.116 -32.418  1.00  0.00     0.162 HD
HETATM   18  O   UNL     1      -6.048   4.527 -34.379  1.00  0.00    -0.274 OA
BRANCH  16  19
HETATM   19  C   UNL     1      -6.965   1.766 -34.402  1.00  0.00     0.089 C 
HETATM   20  C   UNL     1      -8.467   1.778 -34.084  1.00  0.00     0.063 C 
HETATM   21  C   UNL     1      -8.929   0.740 -33.046  1.00  0.00     0.121 C 
HETATM   22  C   UNL     1      -8.601   1.129 -31.600  1.00  0.00     0.046 C 
HETATM   23  C   UNL     1     -10.460   0.574 -33.140  1.00  0.00     0.046 C 
HETATM   24  N   UNL     1      -8.346  -0.620 -33.365  1.00  0.00    -0.059 N 
HETATM   25  H   UNL     1      -8.895  -1.010 -34.144  1.00  0.00     0.279 HD
HETATM   26  H   UNL     1      -8.534  -1.260 -32.580  1.00  0.00     0.279 HD
HETATM   27  C   UNL     1      -6.885  -0.749 -33.755  1.00  0.00     0.121 C 
HETATM   28  C   UNL     1      -6.750  -2.133 -34.429  1.00  0.00     0.046 C 
HETATM   29  C   UNL     1      -6.007  -0.769 -32.502  1.00  0.00     0.046 C 
HETATM   30  C   UNL     1      -6.545   0.338 -34.778  1.00  0.00     0.063 C 
ENDBRANCH  16  19
ENDBRANCH  14  15
ENDBRANCH  13  14
ENDBRANCH  10  13
BRANCH  11  31
HETATM   31  C   UNL     1      -1.986   4.494 -32.839  1.00  0.00     0.134 C 
BRANCH  31  32
HETATM   32  C   UNL     1      -1.612   5.277 -34.106  1.00  0.00    -0.004 C 
HETATM   33  C   UNL     1      -2.771   5.342 -35.103  1.00  0.00     0.011 C 
HETATM   34  C   UNL     1      -1.176   6.692 -33.722  1.00  0.00     0.011 C 
ENDBRANCH  31  32
ENDBRANCH  11  31
BRANCH   1  35
HETATM   35  C   UNL     1      -2.411   7.912 -27.847  1.00  0.00     0.135 C 
BRANCH  35  36
HETATM   36  C   UNL     1      -3.118   7.214 -26.684  1.00  0.00     0.020 C 
BRANCH  36  37
HETATM   37  C   UNL     1      -2.750   7.799 -25.321  1.00  0.00    -0.003 C 
HETATM   38  C   UNL     1      -1.945   9.080 -25.473  1.00  0.00     0.005 C 
ENDBRANCH  36  37
ENDBRANCH  35  36
ENDBRANCH   1  35
TORSDOF 9
ENDMDL
MODEL 6
REMARK VINA RESULT:      -8.0      1.831      2.949
REMARK  9 active torsions:
REMARK  status: ('A' for Active; 'I' for Inactive)
REMARK    1  A    between atoms: C_2  and  C_3 
REMARK    2  A    between atoms: C_3  and  C_4 
REMARK    3  A    between atoms: C_4  and  N_5 
REMARK    4  A    between atoms: C_14  and  C_15 
REMARK    5  A    between atoms: C_15  and  C_16 
REMARK    6  A    between atoms: C_16  and  C_17 
REMARK       I    between atoms: C_17  and  N_18 
REMARK    7  A    between atoms: N_18  and  C_19 
REMARK    8  A    between atoms: N_32  and  C_33 
REMARK    9  A    between atoms: C_33  and  C_34 
ROOT
HETATM    1  N   UNL     1      -4.488   3.440 -32.700  1.00  0.00    -0.282 N 
HETATM    2  C   UNL     1      -3.402   3.189 -31.863  1.00  0.00     0.331 A 
HETATM    3  O   UNL     1      -2.629   4.057 -31.461  1.00  0.00    -0.246 OA
HETATM    4  N   UNL     1      -3.210   1.883 -31.455  1.00  0.00    -0.273 N 
HETATM    5  C   UNL     1      -3.979   0.786 -31.766  1.00  0.00     0.280 A 
HETATM    6  O   UNL     1      -3.755  -0.325 -31.302  1.00  0.00    -0.265 OA
HETATM    7  C   UNL     1      -5.061   1.107 -32.635  1.00  0.00     0.151 A 
HETATM    8  C   UNL     1      -5.298   2.383 -33.057  1.00  0.00     0.168 A 
HETATM    9  N   UNL     1      -6.416   2.457 -33.823  1.00  0.00    -0.215 NA
HETATM   10  C   UNL     1      -6.818   1.206 -33.978  1.00  0.00     0.109 A 
HETATM   11  N   UNL     1      -6.024   0.341 -33.240  1.00  0.00    -0.327 N 
HETATM   12  H   UNL     1      -2.417   1.725 -30.850  1.00  0.00     0.173 HD
ENDROOT
BRANCH  10  13
HETATM   13  C   UNL     1      -7.985   0.781 -34.822  1.00  0.00     0.088 C 
BRANCH  13  14
HETATM   14  C   UNL     1      -9.306   0.797 -34.052  1.00  0.00     0.110 C 
BRANCH  14  15
HETATM   15  C   UNL     1     -10.055   2.109 -34.190  1.00  0.00     0.218 C 
HETATM   16  N   UNL     1      -9.496   3.181 -33.525  1.00  0.00    -0.356 N 
HETATM   17  H   UNL     1      -8.511   3.013 -33.292  1.00  0.00     0.162 HD
HETATM   18  O   UNL     1     -11.098   2.183 -34.830  1.00  0.00    -0.274 OA
BRANCH  16  19
HETATM   19  C   UNL     1      -9.848   4.579 -33.752  1.00  0.00     0.089 C 
HETATM   20  C   UNL     1      -8.650   5.497 -33.468  1.00  0.00     0.063 C 
HETATM   21  C   UNL     1      -8.396   5.808 -31.983  1.00  0.00     0.121 C 
HETATM   22  C   UNL     1      -7.722   4.663 -31.221  1.00  0.00     0.046 C 
HETATM   23  C   UNL     1      -7.472   7.039 -31.874  1.00  0.00     0.046 C 
HETATM   24  N   UNL     1      -9.688   6.201 -31.298  1.00  0.00    -0.059 N 
HETATM   25  H   UNL     1      -9.892   7.174 -31.569  1.00  0.00     0.279 HD
HETATM   26  H   UNL     1      -9.529   6.253 -30.282  1.00  0.00     0.279 HD
HETATM   27  C   UNL     1     -10.955   5.406 -31.551  1.00  0.00     0.121 C 
HETATM   28  C   UNL     1     -12.120   6.311 -31.088  1.00  0.00     0.046 C 
HETATM   29  C   UNL     1     -10.976   4.157 -30.668  1.00  0.00     0.046 C 
HETATM   30  C   UNL     1     -11.091   5.150 -33.054  1.00  0.00     0.063 C 
ENDBRANCH  16  19
ENDBRANCH  14  15
ENDBRANCH  13  14
ENDBRANCH  10  13
BRANCH  11  31
HETATM   31  C   UNL     1      -6.217  -1.090 -33.088  1.00  0.00     0.134 C 
BRANCH  31  32
HETATM   32  C   UNL     1      -5.714  -1.928 -34.273  1.00  0.00    -0.004 C 
HETATM   33  C   UNL     1      -4.371  -2.595 -33.973  1.00  0.00     0.011 C 
HETATM   34  C   UNL     1      -6.756  -2.990 -34.627  1.00  0.00     0.011 C 
ENDBRANCH  31  32
ENDBRANCH  11  31
BRANCH   1  35
HETATM   35  C   UNL     1      -4.689   4.778 -33.249  1.00  0.00     0.135 C 
BRANCH  35  36
HETATM   36  C   UNL     1      -3.982   5.017 -34.585  1.00  0.00     0.020 C 
BRANCH  36  37
HETATM   37  C   UNL     1      -2.778   5.950 -34.467  1.00  0.00    -0.003 C 
HETATM   38  C   UNL     1      -1.486   5.224 -34.809  1.00  0.00     0.005 C 
ENDBRANCH  36  37
ENDBRANCH  35  36
ENDBRANCH   1  35
TORSDOF 9
ENDMDL
MODEL 7
REMARK VINA RESULT:      -7.9      1.880      5.117
REMARK  9 active torsions:
REMARK  status: ('A' for Active; 'I' for Inactive)
REMARK    1  A    between atoms: C_2  and  C_3 
REMARK    2  A    between atoms: C_3  and  C_4 
REMARK    3  A    between atoms: C_4  and  N_5 
REMARK    4  A    between atoms: C_14  and  C_15 
REMARK    5  A    between atoms: C_15  and  C_16 
REMARK    6  A    between atoms: C_16  and  C_17 
REMARK       I    between atoms: C_17  and  N_18 
REMARK    7  A    between atoms: N_18  and  C_19 
REMARK    8  A    between atoms: N_32  and  C_33 
REMARK    9  A    between atoms: C_33  and  C_34 
ROOT
HETATM    1  N   UNL     1      -4.987  -1.486 -33.828  1.00  0.00    -0.282 N 
HETATM    2  C   UNL     1      -3.897  -2.113 -33.228  1.00  0.00     0.331 A 
HETATM    3  O   UNL     1      -3.481  -3.225 -33.550  1.00  0.00    -0.246 OA
HETATM    4  N   UNL     1      -3.245  -1.421 -32.227  1.00  0.00    -0.273 N 
HETATM    5  C   UNL     1      -3.535  -0.163 -31.751  1.00  0.00     0.280 A 
HETATM    6  O   UNL     1      -2.854   0.388 -30.895  1.00  0.00    -0.265 OA
HETATM    7  C   UNL     1      -4.667   0.416 -32.394  1.00  0.00     0.151 A 
HETATM    8  C   UNL     1      -5.337  -0.224 -33.396  1.00  0.00     0.168 A 
HETATM    9  N   UNL     1      -6.338   0.544 -33.898  1.00  0.00    -0.215 NA
HETATM   10  C   UNL     1      -6.369   1.623 -33.132  1.00  0.00     0.109 A 
HETATM   11  N   UNL     1      -5.337   1.597 -32.206  1.00  0.00    -0.327 N 
HETATM   12  H   UNL     1      -2.459  -1.894 -31.806  1.00  0.00     0.173 HD
ENDROOT
BRANCH  10  13
HETATM   13  C   UNL     1      -7.372   2.733 -33.261  1.00  0.00     0.088 C 
BRANCH  13  14
HETATM   14  C   UNL     1      -8.649   2.469 -32.465  1.00  0.00     0.110 C 
BRANCH  14  15
HETATM   15  C   UNL     1      -9.792   1.969 -33.329  1.00  0.00     0.218 C 
HETATM   16  N   UNL     1     -11.054   2.342 -32.912  1.00  0.00    -0.356 N 
HETATM   17  H   UNL     1     -11.023   3.140 -32.270  1.00  0.00     0.162 HD
HETATM   18  O   UNL     1      -9.588   1.262 -34.309  1.00  0.00    -0.274 OA
BRANCH  16  19
HETATM   19  C   UNL     1     -12.262   2.250 -33.727  1.00  0.00     0.089 C 
HETATM   20  C   UNL     1     -12.300   3.372 -34.775  1.00  0.00     0.063 C 
HETATM   21  C   UNL     1     -12.762   4.744 -34.254  1.00  0.00     0.121 C 
HETATM   22  C   UNL     1     -11.688   5.495 -33.462  1.00  0.00     0.046 C 
HETATM   23  C   UNL     1     -13.157   5.634 -35.451  1.00  0.00     0.046 C 
HETATM   24  N   UNL     1     -14.017   4.595 -33.420  1.00  0.00    -0.059 N 
HETATM   25  H   UNL     1     -14.803   4.468 -34.074  1.00  0.00     0.279 HD
HETATM   26  H   UNL     1     -14.221   5.491 -32.954  1.00  0.00     0.279 HD
HETATM   27  C   UNL     1     -14.121   3.483 -32.394  1.00  0.00     0.121 C 
HETATM   28  C   UNL     1     -15.627   3.344 -32.074  1.00  0.00     0.046 C 
HETATM   29  C   UNL     1     -13.420   3.895 -31.099  1.00  0.00     0.046 C 
HETATM   30  C   UNL     1     -13.624   2.178 -33.022  1.00  0.00     0.063 C 
ENDBRANCH  16  19
ENDBRANCH  14  15
ENDBRANCH  13  14
ENDBRANCH  10  13
BRANCH  11  31
HETATM   31  C   UNL     1      -4.996   2.648 -31.264  1.00  0.00     0.134 C 
BRANCH  31  32
HETATM   32  C   UNL     1      -4.302   3.864 -31.896  1.00  0.00    -0.004 C 
HETATM   33  C   UNL     1      -4.813   5.183 -31.313  1.00  0.00     0.011 C 
HETATM   34  C   UNL     1      -2.791   3.754 -31.688  1.00  0.00     0.011 C 
ENDBRANCH  31  32
ENDBRANCH  11  31
BRANCH   1  35
HETATM   35  C   UNL     1      -5.783  -2.201 -34.822  1.00  0.00     0.135 C 
BRANCH  35  36
HETATM   36  C   UNL     1      -6.963  -2.978 -34.235  1.00  0.00     0.020 C 
BRANCH  36  37
HETATM   37  C   UNL     1      -7.115  -4.377 -34.829  1.00  0.00    -0.003 C 
HETATM   38  C   UNL     1      -5.784  -4.903 -35.342  1.00  0.00     0.005 C 
ENDBRANCH  36  37
ENDBRANCH  35  36
ENDBRANCH   1  35
TORSDOF 9
ENDMDL
MODEL 8
REMARK VINA RESULT:      -7.9      1.791      4.808
REMARK  9 active torsions:
REMARK  status: ('A' for Active; 'I' for Inactive)
REMARK    1  A    between atoms: C_2  and  C_3 
REMARK    2  A    between atoms: C_3  and  C_4 
REMARK    3  A    between atoms: C_4  and  N_5 
REMARK    4  A    between atoms: C_14  and  C_15 
REMARK    5  A    between atoms: C_15  and  C_16 
REMARK    6  A    between atoms: C_16  and  C_17 
REMARK       I    between atoms: C_17  and  N_18 
REMARK    7  A    between atoms: N_18  and  C_19 
REMARK    8  A    between atoms: N_32  and  C_33 
REMARK    9  A    between atoms: C_33  and  C_34 
ROOT
HETATM    1  N   UNL     1      -5.529   0.891 -32.171  1.00  0.00    -0.282 N 
HETATM    2  C   UNL     1      -4.403   0.358 -31.545  1.00  0.00     0.331 A 
HETATM    3  O   UNL     1      -4.294  -0.823 -31.218  1.00  0.00    -0.246 OA
HETATM    4  N   UNL     1      -3.350   1.218 -31.304  1.00  0.00    -0.273 N 
HETATM    5  C   UNL     1      -3.268   2.553 -31.623  1.00  0.00     0.280 A 
HETATM    6  O   UNL     1      -2.259   3.216 -31.417  1.00  0.00    -0.265 OA
HETATM    7  C   UNL     1      -4.454   3.039 -32.245  1.00  0.00     0.151 A 
HETATM    8  C   UNL     1      -5.517   2.227 -32.514  1.00  0.00     0.168 A 
HETATM    9  N   UNL     1      -6.504   2.894 -33.165  1.00  0.00    -0.215 NA
HETATM   10  C   UNL     1      -6.108   4.156 -33.202  1.00  0.00     0.109 A 
HETATM   11  N   UNL     1      -4.835   4.286 -32.668  1.00  0.00    -0.327 N 
HETATM   12  H   UNL     1      -2.546   0.810 -30.849  1.00  0.00     0.173 HD
ENDROOT
BRANCH  10  13
HETATM   13  C   UNL     1      -6.917   5.289 -33.764  1.00  0.00     0.088 C 
BRANCH  13  14
HETATM   14  C   UNL     1      -7.475   6.210 -32.680  1.00  0.00     0.110 C 
BRANCH  14  15
HETATM   15  C   UNL     1      -8.204   5.457 -31.582  1.00  0.00     0.218 C 
HETATM   16  N   UNL     1      -9.393   4.867 -31.960  1.00  0.00    -0.356 N 
HETATM   17  H   UNL     1      -9.460   4.762 -32.978  1.00  0.00     0.162 HD
HETATM   18  O   UNL     1      -7.764   5.412 -30.439  1.00  0.00    -0.274 OA
BRANCH  16  19
HETATM   19  C   UNL     1     -10.104   3.854 -31.186  1.00  0.00     0.089 C 
HETATM   20  C   UNL     1      -9.774   2.444 -31.699  1.00  0.00     0.063 C 
HETATM   21  C   UNL     1     -10.537   2.007 -32.961  1.00  0.00     0.121 C 
HETATM   22  C   UNL     1      -9.994   2.624 -34.254  1.00  0.00     0.046 C 
HETATM   23  C   UNL     1     -10.439   0.474 -33.108  1.00  0.00     0.046 C 
HETATM   24  N   UNL     1     -12.013   2.314 -32.817  1.00  0.00    -0.059 N 
HETATM   25  H   UNL     1     -12.415   1.590 -32.204  1.00  0.00     0.279 HD
HETATM   26  H   UNL     1     -12.479   2.161 -33.723  1.00  0.00     0.279 HD
HETATM   27  C   UNL     1     -12.461   3.652 -32.262  1.00  0.00     0.121 C 
HETATM   28  C   UNL     1     -13.935   3.461 -31.837  1.00  0.00     0.046 C 
HETATM   29  C   UNL     1     -12.443   4.711 -33.366  1.00  0.00     0.046 C 
HETATM   30  C   UNL     1     -11.625   3.982 -31.022  1.00  0.00     0.063 C 
ENDBRANCH  16  19
ENDBRANCH  14  15
ENDBRANCH  13  14
ENDBRANCH  10  13
BRANCH  11  31
HETATM   31  C   UNL     1      -4.038   5.499 -32.625  1.00  0.00     0.134 C 
BRANCH  31  32
HETATM   32  C   UNL     1      -2.931   5.568 -33.688  1.00  0.00    -0.004 C 
HETATM   33  C   UNL     1      -3.478   5.353 -35.100  1.00  0.00     0.011 C 
HETATM   34  C   UNL     1      -2.226   6.923 -33.604  1.00  0.00     0.011 C 
ENDBRANCH  31  32
ENDBRANCH  11  31
BRANCH   1  35
HETATM   35  C   UNL     1      -6.716   0.063 -32.364  1.00  0.00     0.135 C 
BRANCH  35  36
HETATM   36  C   UNL     1      -6.506  -1.119 -33.311  1.00  0.00     0.020 C 
BRANCH  36  37
HETATM   37  C   UNL     1      -6.312  -0.694 -34.766  1.00  0.00    -0.003 C 
HETATM   38  C   UNL     1      -7.513   0.089 -35.274  1.00  0.00     0.005 C 
ENDBRANCH  36  37
ENDBRANCH  35  36
ENDBRANCH   1  35
TORSDOF 9
ENDMDL
MODEL 9
REMARK VINA RESULT:      -7.7      3.305      8.888
REMARK  9 active torsions:
REMARK  status: ('A' for Active; 'I' for Inactive)
REMARK    1  A    between atoms: C_2  and  C_3 
REMARK    2  A    between atoms: C_3  and  C_4 
REMARK    3  A    between atoms: C_4  and  N_5 
REMARK    4  A    between atoms: C_14  and  C_15 
REMARK    5  A    between atoms: C_15  and  C_16 
REMARK    6  A    between atoms: C_16  and  C_17 
REMARK       I    between atoms: C_17  and  N_18 
REMARK    7  A    between atoms: N_18  and  C_19 
REMARK    8  A    between atoms: N_32  and  C_33 
REMARK    9  A    between atoms: C_33  and  C_34 
ROOT
HETATM    1  N   UNL     1      -7.951   0.716 -32.629  1.00  0.00    -0.282 N 
HETATM    2  C   UNL     1      -9.242   0.562 -32.125  1.00  0.00     0.331 A 
HETATM    3  O   UNL     1      -9.968  -0.398 -32.377  1.00  0.00    -0.246 OA
HETATM    4  N   UNL     1      -9.708   1.547 -31.277  1.00  0.00    -0.273 N 
HETATM    5  C   UNL     1      -9.041   2.673 -30.851  1.00  0.00     0.280 A 
HETATM    6  O   UNL     1      -9.527   3.458 -30.048  1.00  0.00    -0.265 OA
HETATM    7  C   UNL     1      -7.736   2.778 -31.414  1.00  0.00     0.151 A 
HETATM    8  C   UNL     1      -7.227   1.826 -32.248  1.00  0.00     0.168 A 
HETATM    9  N   UNL     1      -5.948   2.107 -32.606  1.00  0.00    -0.215 NA
HETATM   10  C   UNL     1      -5.693   3.299 -32.089  1.00  0.00     0.109 A 
HETATM   11  N   UNL     1      -6.762   3.739 -31.323  1.00  0.00    -0.327 N 
HETATM   12  H   UNL     1     -10.645   1.415 -30.925  1.00  0.00     0.173 HD
ENDROOT
BRANCH  10  13
HETATM   13  C   UNL     1      -4.416   4.061 -32.288  1.00  0.00     0.088 C 
BRANCH  13  14
HETATM   14  C   UNL     1      -4.246   4.564 -33.721  1.00  0.00     0.110 C 
BRANCH  14  15
HETATM   15  C   UNL     1      -3.524   5.897 -33.798  1.00  0.00     0.218 C 
HETATM   16  N   UNL     1      -3.519   6.633 -32.630  1.00  0.00    -0.356 N 
HETATM   17  H   UNL     1      -3.731   6.052 -31.812  1.00  0.00     0.162 HD
HETATM   18  O   UNL     1      -3.013   6.286 -34.841  1.00  0.00    -0.274 OA
BRANCH  16  19
HETATM   19  C   UNL     1      -2.648   7.775 -32.369  1.00  0.00     0.089 C 
HETATM   20  C   UNL     1      -1.174   7.344 -32.352  1.00  0.00     0.063 C 
HETATM   21  C   UNL     1      -0.695   6.687 -31.046  1.00  0.00     0.121 C 
HETATM   22  C   UNL     1      -1.141   5.230 -30.890  1.00  0.00     0.046 C 
HETATM   23  C   UNL     1       0.848   6.701 -31.007  1.00  0.00     0.046 C 
HETATM   24  N   UNL     1      -1.144   7.501 -29.851  1.00  0.00    -0.059 N 
HETATM   25  H   UNL     1      -0.518   8.316 -29.786  1.00  0.00     0.279 HD
HETATM   26  H   UNL     1      -0.953   6.969 -28.989  1.00  0.00     0.279 HD
HETATM   27  C   UNL     1      -2.562   8.036 -29.785  1.00  0.00     0.121 C 
HETATM   28  C   UNL     1      -2.543   9.152 -28.716  1.00  0.00     0.046 C 
HETATM   29  C   UNL     1      -3.512   6.946 -29.283  1.00  0.00     0.046 C 
HETATM   30  C   UNL     1      -2.926   8.650 -31.139  1.00  0.00     0.063 C 
ENDBRANCH  16  19
ENDBRANCH  14  15
ENDBRANCH  13  14
ENDBRANCH  10  13
BRANCH  11  31
HETATM   31  C   UNL     1      -6.811   4.953 -30.527  1.00  0.00     0.134 C 
BRANCH  31  32
HETATM   32  C   UNL     1      -6.917   6.246 -31.349  1.00  0.00    -0.004 C 
HETATM   33  C   UNL     1      -8.086   6.205 -32.334  1.00  0.00     0.011 C 
HETATM   34  C   UNL     1      -7.072   7.440 -30.406  1.00  0.00     0.011 C 
ENDBRANCH  31  32
ENDBRANCH  11  31
BRANCH   1  35
HETATM   35  C   UNL     1      -7.434  -0.234 -33.609  1.00  0.00     0.135 C 
BRANCH  35  36
HETATM   36  C   UNL     1      -6.279  -1.095 -33.095  1.00  0.00     0.020 C 
BRANCH  36  37
HETATM   37  C   UNL     1      -5.708  -2.030 -34.160  1.00  0.00    -0.003 C 
HETATM   38  C   UNL     1      -6.765  -3.002 -34.661  1.00  0.00     0.005 C 
ENDBRANCH  36  37
ENDBRANCH  35  36
ENDBRANCH   1  35
TORSDOF 9
ENDMDL
MODEL 10
REMARK VINA RESULT:      -7.6      2.325      7.972
REMARK  9 active torsions:
REMARK  status: ('A' for Active; 'I' for Inactive)
REMARK    1  A    between atoms: C_2  and  C_3 
REMARK    2  A    between atoms: C_3  and  C_4 
REMARK    3  A    between atoms: C_4  and  N_5 
REMARK    4  A    between atoms: C_14  and  C_15 
REMARK    5  A    between atoms: C_15  and  C_16 
REMARK    6  A    between atoms: C_16  and  C_17 
REMARK       I    between atoms: C_17  and  N_18 
REMARK    7  A    between atoms: N_18  and  C_19 
REMARK    8  A    between atoms: N_32  and  C_33 
REMARK    9  A    between atoms: C_33  and  C_34 
ROOT
HETATM    1  N   UNL     1     -10.649   3.703 -33.392  1.00  0.00    -0.282 N 
HETATM    2  C   UNL     1     -11.722   2.823 -33.258  1.00  0.00     0.331 A 
HETATM    3  O   UNL     1     -12.902   3.161 -33.341  1.00  0.00    -0.246 OA
HETATM    4  N   UNL     1     -11.423   1.493 -33.041  1.00  0.00    -0.273 N 
HETATM    5  C   UNL     1     -10.176   0.918 -32.952  1.00  0.00     0.280 A 
HETATM    6  O   UNL     1     -10.019  -0.289 -32.814  1.00  0.00    -0.265 OA
HETATM    7  C   UNL     1      -9.125   1.871 -33.081  1.00  0.00     0.151 A 
HETATM    8  C   UNL     1      -9.370   3.194 -33.308  1.00  0.00     0.168 A 
HETATM    9  N   UNL     1      -8.219   3.897 -33.459  1.00  0.00    -0.215 NA
HETATM   10  C   UNL     1      -7.247   3.034 -33.212  1.00  0.00     0.109 A 
HETATM   11  N   UNL     1      -7.761   1.764 -32.999  1.00  0.00    -0.327 N 
HETATM   12  H   UNL     1     -12.215   0.875 -32.946  1.00  0.00     0.173 HD
ENDROOT
BRANCH  10  13
HETATM   13  C   UNL     1      -5.786   3.378 -33.185  1.00  0.00     0.088 C 
BRANCH  13  14
HETATM   14  C   UNL     1      -5.274   3.887 -34.533  1.00  0.00     0.110 C 
BRANCH  14  15
HETATM   15  C   UNL     1      -4.430   5.142 -34.409  1.00  0.00     0.218 C 
HETATM   16  N   UNL     1      -4.442   5.741 -33.166  1.00  0.00    -0.356 N 
HETATM   17  H   UNL     1      -4.765   5.097 -32.436  1.00  0.00     0.162 HD
HETATM   18  O   UNL     1      -3.811   5.590 -35.367  1.00  0.00    -0.274 OA
BRANCH  16  19
HETATM   19  C   UNL     1      -3.491   6.755 -32.721  1.00  0.00     0.089 C 
HETATM   20  C   UNL     1      -2.078   6.164 -32.602  1.00  0.00     0.063 C 
HETATM   21  C   UNL     1      -1.808   5.356 -31.321  1.00  0.00     0.121 C 
HETATM   22  C   UNL     1      -2.415   3.949 -31.341  1.00  0.00     0.046 C 
HETATM   23  C   UNL     1      -0.285   5.196 -31.133  1.00  0.00     0.046 C 
HETATM   24  N   UNL     1      -2.295   6.116 -30.106  1.00  0.00    -0.059 N 
HETATM   25  H   UNL     1      -1.599   6.850 -29.908  1.00  0.00     0.279 HD
HETATM   26  H   UNL     1      -2.250   5.500 -29.281  1.00  0.00     0.279 HD
HETATM   27  C   UNL     1      -3.650   6.798 -30.127  1.00  0.00     0.121 C 
HETATM   28  C   UNL     1      -3.629   7.816 -28.964  1.00  0.00     0.046 C 
HETATM   29  C   UNL     1      -4.753   5.783 -29.819  1.00  0.00     0.046 C 
HETATM   30  C   UNL     1      -3.806   7.555 -31.449  1.00  0.00     0.063 C 
ENDBRANCH  16  19
ENDBRANCH  14  15
ENDBRANCH  13  14
ENDBRANCH  10  13
BRANCH  11  31
HETATM   31  C   UNL     1      -6.996   0.547 -32.793  1.00  0.00     0.134 C 
BRANCH  31  32
HETATM   32  C   UNL     1      -6.266   0.038 -34.045  1.00  0.00    -0.004 C 
HETATM   33  C   UNL     1      -4.999  -0.743 -33.692  1.00  0.00     0.011 C 
HETATM   34  C   UNL     1      -7.209  -0.843 -34.865  1.00  0.00     0.011 C 
ENDBRANCH  31  32
ENDBRANCH  11  31
BRANCH   1  35
HETATM   35  C   UNL     1     -10.895   5.137 -33.522  1.00  0.00     0.135 C 
BRANCH  35  36
HETATM   36  C   UNL     1     -10.814   5.656 -34.959  1.00  0.00     0.020 C 
BRANCH  36  37
HETATM   37  C   UNL     1     -11.980   6.571 -35.332  1.00  0.00    -0.003 C 
HETATM   38  C   UNL     1     -13.187   5.764 -35.785  1.00  0.00     0.005 C 
ENDBRANCH  36  37
ENDBRANCH  35  36
ENDBRANCH   1  35
TORSDOF 9
ENDMDL
