MODEL 1
REMARK VINA RESULT:     -10.7      0.000      0.000
REMARK  7 active torsions:
REMARK  status: ('A' for Active; 'I' for Inactive)
REMARK    1  A    between atoms: C_2  and  C_3 
REMARK    2  A    between atoms: N_16  and  C_17 
REMARK    3  A    between atoms: C_17  and  C_18 
REMARK       I    between atoms: C_18  and  N_19 
REMARK    4  A    between atoms: N_19  and  C_20 
REMARK    5  A    between atoms: C_21  and  C_22 
REMARK       I    between atoms: C_22  and  N_23 
REMARK    6  A    between atoms: N_23  and  C_24 
REMARK    7  A    between atoms: C_24  and  C_25 
ROOT
HETATM    1  C   UNL     1      -4.819   2.488 -30.626  1.00  0.00     0.240 C 
ENDROOT
BRANCH   1   2
HETATM    2  N   UNL     1      -5.501   1.596 -31.530  1.00  0.00    -0.259 N 
HETATM    3  C   UNL     1      -6.509   0.788 -31.136  1.00  0.00     0.326 C 
HETATM    4  N   UNL     1      -6.720  -0.170 -32.088  1.00  0.00    -0.321 N 
HETATM    5  O   UNL     1      -7.107   0.818 -30.072  1.00  0.00    -0.247 OA
HETATM    6  C   UNL     1      -5.678  -0.212 -33.105  1.00  0.00     0.140 C 
HETATM    7  H   UNL     1      -7.304  -0.947 -31.814  1.00  0.00     0.165 HD
HETATM    8  C   UNL     1      -6.254  -0.008 -34.504  1.00  0.00     0.055 C 
HETATM    9  C   UNL     1      -4.925   1.088 -32.660  1.00  0.00     0.261 C 
HETATM   10  O   UNL     1      -3.931   1.565 -33.193  1.00  0.00    -0.270 OA
BRANCH   6  11
HETATM   11  C   UNL     1      -4.812  -1.491 -33.013  1.00  0.00    -0.010 C 
HETATM   12  C   UNL     1      -5.067  -2.688 -33.770  1.00  0.00    -0.017 A 
HETATM   13  C   UNL     1      -4.296  -3.853 -33.490  1.00  0.00    -0.025 A 
HETATM   14  C   UNL     1      -6.026  -2.821 -34.808  1.00  0.00     0.013 A 
HETATM   15  C   UNL     1      -4.560  -5.070 -34.138  1.00  0.00     0.012 A 
HETATM   16  C   UNL     1      -3.245  -3.809 -32.570  1.00  0.00     0.012 C 
HETATM   17  C   UNL     1      -5.558  -5.170 -35.102  1.00  0.00     0.001 A 
HETATM   18  C   UNL     1      -6.278  -4.040 -35.450  1.00  0.00     0.001 A 
HETATM   19  C   UNL     1      -2.923  -2.626 -31.926  1.00  0.00     0.002 C 
HETATM   20  C   UNL     1      -3.693  -1.490 -32.149  1.00  0.00     0.011 C 
ENDBRANCH   6  11
ENDBRANCH   1   2
BRANCH   1  21
HETATM   21  C   UNL     1      -4.363   3.838 -31.183  1.00  0.00     0.240 C 
HETATM   22  N   UNL     1      -2.982   3.844 -31.355  1.00  0.00    -0.325 N 
HETATM   23  H   UNL     1      -2.466   3.247 -30.719  1.00  0.00     0.169 HD
HETATM   24  O   UNL     1      -5.097   4.804 -31.359  1.00  0.00    -0.271 OA
BRANCH  22  25
HETATM   25  C   UNL     1      -2.225   4.849 -31.994  1.00  0.00     0.050 A 
HETATM   26  C   UNL     1      -1.650   5.969 -31.374  1.00  0.00     0.058 A 
HETATM   27  C   UNL     1      -0.982   6.936 -32.146  1.00  0.00     0.019 A 
HETATM   28  C   UNL     1      -0.876   6.794 -33.528  1.00  0.00     0.001 A 
HETATM   29  C   UNL     1      -1.461   5.699 -34.152  1.00  0.00     0.002 A 
HETATM   30  C   UNL     1      -2.140   4.742 -33.393  1.00  0.00     0.030 A 
BRANCH  26  31
HETATM   31  C   UNL     1      -1.909   6.380 -29.978  1.00  0.00     0.254 C 
HETATM   32  N   UNL     1      -0.829   6.319 -29.134  1.00  0.00    -0.351 N 
HETATM   33  H   UNL     1      -0.186   5.549 -29.316  1.00  0.00     0.163 HD
HETATM   34  O   UNL     1      -3.006   6.840 -29.684  1.00  0.00    -0.268 OA
BRANCH  32  35
HETATM   35  C   UNL     1      -0.986   6.694 -27.748  1.00  0.00     0.187 C 
BRANCH  35  36
HETATM   36  C   UNL     1       0.143   7.573 -27.352  1.00  0.00     0.070 A 
HETATM   37  O   UNL     1       0.249   7.880 -26.027  1.00  0.00    -0.325 OA
HETATM   38  C   UNL     1       1.332   8.688 -25.891  1.00  0.00     0.142 A 
HETATM   39  C   UNL     1       1.925   8.908 -27.111  1.00  0.00     0.027 A 
HETATM   40  C   UNL     1       1.155   8.191 -28.058  1.00  0.00     0.036 A 
ENDBRANCH  35  36
ENDBRANCH  32  35
ENDBRANCH  26  31
ENDBRANCH  22  25
ENDBRANCH   1  21
TORSDOF 7
ENDMDL
MODEL 2
REMARK VINA RESULT:     -10.5      3.002     10.513
REMARK  7 active torsions:
REMARK  status: ('A' for Active; 'I' for Inactive)
REMARK    1  A    between atoms: C_2  and  C_3 
REMARK    2  A    between atoms: N_16  and  C_17 
REMARK    3  A    between atoms: C_17  and  C_18 
REMARK       I    between atoms: C_18  and  N_19 
REMARK    4  A    between atoms: N_19  and  C_20 
REMARK    5  A    between atoms: C_21  and  C_22 
REMARK       I    between atoms: C_22  and  N_23 
REMARK    6  A    between atoms: N_23  and  C_24 
REMARK    7  A    between atoms: C_24  and  C_25 
ROOT
HETATM    1  C   UNL     1      -5.070   3.849 -32.302  1.00  0.00     0.240 C 
ENDROOT
BRANCH   1   2
HETATM    2  N   UNL     1      -3.724   4.303 -32.546  1.00  0.00    -0.259 N 
HETATM    3  C   UNL     1      -2.650   3.758 -31.934  1.00  0.00     0.326 C 
HETATM    4  N   UNL     1      -1.575   4.592 -32.078  1.00  0.00    -0.321 N 
HETATM    5  O   UNL     1      -2.616   2.732 -31.274  1.00  0.00    -0.247 OA
HETATM    6  C   UNL     1      -1.929   5.901 -32.610  1.00  0.00     0.140 C 
HETATM    7  H   UNL     1      -0.776   4.392 -31.495  1.00  0.00     0.165 HD
HETATM    8  C   UNL     1      -1.168   6.207 -33.898  1.00  0.00     0.055 C 
HETATM    9  C   UNL     1      -3.421   5.570 -32.955  1.00  0.00     0.261 C 
HETATM   10  O   UNL     1      -4.232   6.336 -33.463  1.00  0.00    -0.270 OA
BRANCH   6  11
HETATM   11  C   UNL     1      -1.772   7.027 -31.560  1.00  0.00    -0.010 C 
HETATM   12  C   UNL     1      -0.943   6.922 -30.389  1.00  0.00    -0.017 A 
HETATM   13  C   UNL     1      -0.997   7.962 -29.416  1.00  0.00    -0.025 A 
HETATM   14  C   UNL     1      -0.041   5.863 -30.107  1.00  0.00     0.013 A 
HETATM   15  C   UNL     1      -0.274   7.870 -28.215  1.00  0.00     0.012 A 
HETATM   16  C   UNL     1      -1.761   9.110 -29.640  1.00  0.00     0.012 C 
HETATM   17  C   UNL     1       0.546   6.778 -27.953  1.00  0.00     0.001 A 
HETATM   18  C   UNL     1       0.678   5.784 -28.908  1.00  0.00     0.001 A 
HETATM   19  C   UNL     1      -2.468   9.265 -30.820  1.00  0.00     0.002 C 
HETATM   20  C   UNL     1      -2.468   8.242 -31.761  1.00  0.00     0.011 C 
ENDBRANCH   6  11
ENDBRANCH   1   2
BRANCH   1  21
HETATM   21  C   UNL     1      -5.631   2.782 -33.244  1.00  0.00     0.240 C 
HETATM   22  N   UNL     1      -5.302   1.511 -32.782  1.00  0.00    -0.325 N 
HETATM   23  H   UNL     1      -4.440   1.456 -32.251  1.00  0.00     0.169 HD
HETATM   24  O   UNL     1      -6.203   3.017 -34.303  1.00  0.00    -0.271 OA
BRANCH  22  25
HETATM   25  C   UNL     1      -5.779   0.286 -33.295  1.00  0.00     0.050 A 
HETATM   26  C   UNL     1      -7.124  -0.101 -33.389  1.00  0.00     0.058 A 
HETATM   27  C   UNL     1      -7.456  -1.386 -33.853  1.00  0.00     0.019 A 
HETATM   28  C   UNL     1      -6.461  -2.286 -34.230  1.00  0.00     0.001 A 
HETATM   29  C   UNL     1      -5.126  -1.918 -34.120  1.00  0.00     0.002 A 
HETATM   30  C   UNL     1      -4.788  -0.648 -33.644  1.00  0.00     0.030 A 
BRANCH  26  31
HETATM   31  C   UNL     1      -8.253   0.637 -32.785  1.00  0.00     0.254 C 
HETATM   32  N   UNL     1      -8.861   1.558 -33.600  1.00  0.00    -0.351 N 
HETATM   33  H   UNL     1      -8.232   2.045 -34.240  1.00  0.00     0.163 HD
HETATM   34  O   UNL     1      -8.644   0.321 -31.667  1.00  0.00    -0.268 OA
BRANCH  32  35
HETATM   35  C   UNL     1      -9.970   2.334 -33.096  1.00  0.00     0.187 C 
BRANCH  35  36
HETATM   36  C   UNL     1     -11.207   1.933 -33.810  1.00  0.00     0.070 A 
HETATM   37  O   UNL     1     -11.603   2.725 -34.849  1.00  0.00    -0.325 OA
HETATM   38  C   UNL     1     -12.744   2.185 -35.349  1.00  0.00     0.142 A 
HETATM   39  C   UNL     1     -13.092   1.057 -34.645  1.00  0.00     0.027 A 
HETATM   40  C   UNL     1     -12.101   0.894 -33.647  1.00  0.00     0.036 A 
ENDBRANCH  35  36
ENDBRANCH  32  35
ENDBRANCH  26  31
ENDBRANCH  22  25
ENDBRANCH   1  21
TORSDOF 7
ENDMDL
MODEL 3
REMARK VINA RESULT:     -10.4      2.325     10.478
REMARK  7 active torsions:
REMARK  status: ('A' for Active; 'I' for Inactive)
REMARK    1  A    between atoms: C_2  and  C_3 
REMARK    2  A    between atoms: N_16  and  C_17 
REMARK    3  A    between atoms: C_17  and  C_18 
REMARK       I    between atoms: C_18  and  N_19 
REMARK    4  A    between atoms: N_19  and  C_20 
REMARK    5  A    between atoms: C_21  and  C_22 
REMARK       I    between atoms: C_22  and  N_23 
REMARK    6  A    between atoms: N_23  and  C_24 
REMARK    7  A    between atoms: C_24  and  C_25 
ROOT
HETATM    1  C   UNL     1      -5.280   4.153 -31.374  1.00  0.00     0.240 C 
ENDROOT
BRANCH   1   2
HETATM    2  N   UNL     1      -4.086   4.736 -31.933  1.00  0.00    -0.259 N 
HETATM    3  C   UNL     1      -2.861   4.195 -31.760  1.00  0.00     0.326 C 
HETATM    4  N   UNL     1      -1.907   5.119 -32.086  1.00  0.00    -0.321 N 
HETATM    5  O   UNL     1      -2.597   3.093 -31.306  1.00  0.00    -0.247 OA
HETATM    6  C   UNL     1      -2.445   6.459 -32.280  1.00  0.00     0.140 C 
HETATM    7  H   UNL     1      -0.963   4.901 -31.804  1.00  0.00     0.165 HD
HETATM    8  C   UNL     1      -2.123   6.996 -33.672  1.00  0.00     0.055 C 
HETATM    9  C   UNL     1      -3.961   6.067 -32.214  1.00  0.00     0.261 C 
HETATM   10  O   UNL     1      -4.910   6.832 -32.333  1.00  0.00    -0.270 OA
BRANCH   6  11
HETATM   11  C   UNL     1      -2.010   7.438 -31.164  1.00  0.00    -0.010 C 
HETATM   12  C   UNL     1      -1.048   7.115 -30.144  1.00  0.00    -0.017 A 
HETATM   13  C   UNL     1      -0.840   8.040 -29.080  1.00  0.00    -0.025 A 
HETATM   14  C   UNL     1      -0.251   5.941 -30.100  1.00  0.00     0.013 A 
HETATM   15  C   UNL     1       0.023   7.738 -28.014  1.00  0.00     0.012 A 
HETATM   16  C   UNL     1      -1.482   9.282 -29.079  1.00  0.00     0.012 C 
HETATM   17  C   UNL     1       0.732   6.543 -27.981  1.00  0.00     0.001 A 
HETATM   18  C   UNL     1       0.609   5.652 -29.034  1.00  0.00     0.001 A 
HETATM   19  C   UNL     1      -2.319   9.642 -30.121  1.00  0.00     0.002 C 
HETATM   20  C   UNL     1      -2.573   8.735 -31.144  1.00  0.00     0.011 C 
ENDBRANCH   6  11
ENDBRANCH   1   2
BRANCH   1  21
HETATM   21  C   UNL     1      -6.073   3.193 -32.262  1.00  0.00     0.240 C 
HETATM   22  N   UNL     1      -7.187   2.714 -31.579  1.00  0.00    -0.325 N 
HETATM   23  H   UNL     1      -7.084   2.661 -30.572  1.00  0.00     0.169 HD
HETATM   24  O   UNL     1      -5.724   2.825 -33.379  1.00  0.00    -0.271 OA
BRANCH  22  25
HETATM   25  C   UNL     1      -8.233   1.941 -32.124  1.00  0.00     0.050 A 
HETATM   26  C   UNL     1      -8.161   0.583 -32.469  1.00  0.00     0.058 A 
HETATM   27  C   UNL     1      -9.261  -0.049 -33.077  1.00  0.00     0.019 A 
HETATM   28  C   UNL     1     -10.432   0.658 -33.338  1.00  0.00     0.001 A 
HETATM   29  C   UNL     1     -10.504   2.008 -33.020  1.00  0.00     0.002 A 
HETATM   30  C   UNL     1      -9.410   2.646 -32.430  1.00  0.00     0.030 A 
BRANCH  26  31
HETATM   31  C   UNL     1      -6.915  -0.211 -32.495  1.00  0.00     0.254 C 
HETATM   32  N   UNL     1      -6.409  -0.476 -33.743  1.00  0.00    -0.351 N 
HETATM   33  H   UNL     1      -7.112  -0.626 -34.467  1.00  0.00     0.163 HD
HETATM   34  O   UNL     1      -6.360  -0.488 -31.438  1.00  0.00    -0.268 OA
BRANCH  32  35
HETATM   35  C   UNL     1      -5.197  -1.252 -33.871  1.00  0.00     0.187 C 
BRANCH  35  36
HETATM   36  C   UNL     1      -5.547  -2.636 -34.275  1.00  0.00     0.070 A 
HETATM   37  O   UNL     1      -4.560  -3.574 -34.179  1.00  0.00    -0.325 OA
HETATM   38  C   UNL     1      -5.089  -4.752 -34.599  1.00  0.00     0.142 A 
HETATM   39  C   UNL     1      -6.402  -4.587 -34.967  1.00  0.00     0.027 A 
HETATM   40  C   UNL     1      -6.700  -3.218 -34.762  1.00  0.00     0.036 A 
ENDBRANCH  35  36
ENDBRANCH  32  35
ENDBRANCH  26  31
ENDBRANCH  22  25
ENDBRANCH   1  21
TORSDOF 7
ENDMDL
MODEL 4
REMARK VINA RESULT:     -10.4      1.714      2.790
REMARK  7 active torsions:
REMARK  status: ('A' for Active; 'I' for Inactive)
REMARK    1  A    between atoms: C_2  and  C_3 
REMARK    2  A    between atoms: N_16  and  C_17 
REMARK    3  A    between atoms: C_17  and  C_18 
REMARK       I    between atoms: C_18  and  N_19 
REMARK    4  A    between atoms: N_19  and  C_20 
REMARK    5  A    between atoms: C_21  and  C_22 
REMARK       I    between atoms: C_22  and  N_23 
REMARK    6  A    between atoms: N_23  and  C_24 
REMARK    7  A    between atoms: C_24  and  C_25 
ROOT
HETATM    1  C   UNL     1      -6.667   4.095 -32.028  1.00  0.00     0.240 C 
ENDROOT
BRANCH   1   2
HETATM    2  N   UNL     1      -7.428   2.881 -31.867  1.00  0.00    -0.259 N 
HETATM    3  C   UNL     1      -7.387   2.140 -30.739  1.00  0.00     0.326 C 
HETATM    4  N   UNL     1      -7.910   0.902 -30.992  1.00  0.00    -0.321 N 
HETATM    5  O   UNL     1      -6.894   2.452 -29.667  1.00  0.00    -0.247 OA
HETATM    6  C   UNL     1      -8.125   0.646 -32.409  1.00  0.00     0.140 C 
HETATM    7  H   UNL     1      -7.746   0.198 -30.287  1.00  0.00     0.165 HD
HETATM    8  C   UNL     1      -9.585   0.305 -32.701  1.00  0.00     0.055 C 
HETATM    9  C   UNL     1      -7.821   2.097 -32.914  1.00  0.00     0.261 C 
HETATM   10  O   UNL     1      -7.864   2.481 -34.077  1.00  0.00    -0.270 OA
BRANCH   6  11
HETATM   11  C   UNL     1      -7.156  -0.421 -32.972  1.00  0.00    -0.010 C 
HETATM   12  C   UNL     1      -5.822  -0.635 -32.475  1.00  0.00    -0.017 A 
HETATM   13  C   UNL     1      -4.968  -1.539 -33.171  1.00  0.00    -0.025 A 
HETATM   14  C   UNL     1      -5.263  -0.029 -31.319  1.00  0.00     0.013 A 
HETATM   15  C   UNL     1      -3.632  -1.720 -32.780  1.00  0.00     0.012 A 
HETATM   16  C   UNL     1      -5.446  -2.281 -34.254  1.00  0.00     0.012 C 
HETATM   17  C   UNL     1      -3.108  -1.052 -31.679  1.00  0.00     0.001 A 
HETATM   18  C   UNL     1      -3.930  -0.220 -30.937  1.00  0.00     0.001 A 
HETATM   19  C   UNL     1      -6.764  -2.163 -34.661  1.00  0.00     0.002 C 
HETATM   20  C   UNL     1      -7.601  -1.251 -34.027  1.00  0.00     0.011 C 
ENDBRANCH   6  11
ENDBRANCH   1   2
BRANCH   1  21
HETATM   21  C   UNL     1      -5.190   3.953 -32.400  1.00  0.00     0.240 C 
HETATM   22  N   UNL     1      -4.700   5.159 -32.893  1.00  0.00    -0.325 N 
HETATM   23  H   UNL     1      -5.385   5.746 -33.354  1.00  0.00     0.169 HD
HETATM   24  O   UNL     1      -4.558   2.903 -32.359  1.00  0.00    -0.271 OA
BRANCH  22  25
HETATM   25  C   UNL     1      -3.352   5.456 -33.184  1.00  0.00     0.050 A 
HETATM   26  C   UNL     1      -2.423   6.024 -32.299  1.00  0.00     0.058 A 
HETATM   27  C   UNL     1      -1.126   6.337 -32.746  1.00  0.00     0.019 A 
HETATM   28  C   UNL     1      -0.746   6.084 -34.062  1.00  0.00     0.001 A 
HETATM   29  C   UNL     1      -1.667   5.541 -34.949  1.00  0.00     0.002 A 
HETATM   30  C   UNL     1      -2.962   5.242 -34.517  1.00  0.00     0.030 A 
BRANCH  26  31
HETATM   31  C   UNL     1      -2.760   6.584 -30.974  1.00  0.00     0.254 C 
HETATM   32  N   UNL     1      -1.705   6.734 -30.110  1.00  0.00    -0.351 N 
HETATM   33  H   UNL     1      -0.989   6.010 -30.179  1.00  0.00     0.163 HD
HETATM   34  O   UNL     1      -3.903   6.972 -30.763  1.00  0.00    -0.268 OA
BRANCH  32  35
HETATM   35  C   UNL     1      -1.936   7.267 -28.788  1.00  0.00     0.187 C 
BRANCH  35  36
HETATM   36  C   UNL     1      -0.647   7.731 -28.218  1.00  0.00     0.070 A 
HETATM   37  O   UNL     1      -0.663   8.151 -26.920  1.00  0.00    -0.325 OA
HETATM   38  C   UNL     1       0.603   8.532 -26.609  1.00  0.00     0.142 A 
HETATM   39  C   UNL     1       1.435   8.365 -27.691  1.00  0.00     0.027 A 
HETATM   40  C   UNL     1       0.628   7.851 -28.733  1.00  0.00     0.036 A 
ENDBRANCH  35  36
ENDBRANCH  32  35
ENDBRANCH  26  31
ENDBRANCH  22  25
ENDBRANCH   1  21
TORSDOF 7
ENDMDL
MODEL 5
REMARK VINA RESULT:     -10.3      1.809      2.384
REMARK  7 active torsions:
REMARK  status: ('A' for Active; 'I' for Inactive)
REMARK    1  A    between atoms: C_2  and  C_3 
REMARK    2  A    between atoms: N_16  and  C_17 
REMARK    3  A    between atoms: C_17  and  C_18 
REMARK       I    between atoms: C_18  and  N_19 
REMARK    4  A    between atoms: N_19  and  C_20 
REMARK    5  A    between atoms: C_21  and  C_22 
REMARK       I    between atoms: C_22  and  N_23 
REMARK    6  A    between atoms: N_23  and  C_24 
REMARK    7  A    between atoms: C_24  and  C_25 
ROOT
HETATM    1  C   UNL     1      -7.462   4.844 -32.201  1.00  0.00     0.240 C 
ENDROOT
BRANCH   1   2
HETATM    2  N   UNL     1      -7.719   3.532 -31.664  1.00  0.00    -0.259 N 
HETATM    3  C   UNL     1      -7.465   3.208 -30.377  1.00  0.00     0.326 C 
HETATM    4  N   UNL     1      -7.470   1.847 -30.243  1.00  0.00    -0.321 N 
HETATM    5  O   UNL     1      -7.186   3.969 -29.465  1.00  0.00    -0.247 OA
HETATM    6  C   UNL     1      -7.494   1.143 -31.518  1.00  0.00     0.140 C 
HETATM    7  H   UNL     1      -7.093   1.485 -29.380  1.00  0.00     0.165 HD
HETATM    8  C   UNL     1      -8.700   0.212 -31.620  1.00  0.00     0.055 C 
HETATM    9  C   UNL     1      -7.729   2.398 -32.426  1.00  0.00     0.261 C 
HETATM   10  O   UNL     1      -7.849   2.395 -33.645  1.00  0.00    -0.270 OA
BRANCH   6  11
HETATM   11  C   UNL     1      -6.165   0.407 -31.812  1.00  0.00    -0.010 C 
HETATM   12  C   UNL     1      -6.010  -0.587 -32.842  1.00  0.00    -0.017 A 
HETATM   13  C   UNL     1      -4.783  -1.307 -32.919  1.00  0.00    -0.025 A 
HETATM   14  C   UNL     1      -6.979  -0.918 -33.824  1.00  0.00     0.013 A 
HETATM   15  C   UNL     1      -4.609  -2.345 -33.849  1.00  0.00     0.012 A 
HETATM   16  C   UNL     1      -3.713  -0.987 -32.079  1.00  0.00     0.012 C 
HETATM   17  C   UNL     1      -5.614  -2.680 -34.749  1.00  0.00     0.001 A 
HETATM   18  C   UNL     1      -6.793  -1.953 -34.749  1.00  0.00     0.001 A 
HETATM   19  C   UNL     1      -3.821   0.048 -31.166  1.00  0.00     0.002 C 
HETATM   20  C   UNL     1      -5.025   0.731 -31.040  1.00  0.00     0.011 C 
ENDBRANCH   6  11
ENDBRANCH   1   2
BRANCH   1  21
HETATM   21  C   UNL     1      -6.157   5.043 -32.974  1.00  0.00     0.240 C 
HETATM   22  N   UNL     1      -5.090   5.181 -32.091  1.00  0.00    -0.325 N 
HETATM   23  H   UNL     1      -5.326   5.582 -31.191  1.00  0.00     0.169 HD
HETATM   24  O   UNL     1      -6.079   5.159 -34.192  1.00  0.00    -0.271 OA
BRANCH  22  25
HETATM   25  C   UNL     1      -3.723   5.219 -32.433  1.00  0.00     0.050 A 
HETATM   26  C   UNL     1      -2.691   5.763 -31.653  1.00  0.00     0.058 A 
HETATM   27  C   UNL     1      -1.377   5.802 -32.150  1.00  0.00     0.019 A 
HETATM   28  C   UNL     1      -1.079   5.298 -33.415  1.00  0.00     0.001 A 
HETATM   29  C   UNL     1      -2.098   4.777 -34.202  1.00  0.00     0.002 A 
HETATM   30  C   UNL     1      -3.410   4.749 -33.720  1.00  0.00     0.030 A 
BRANCH  26  31
HETATM   31  C   UNL     1      -2.900   6.562 -30.426  1.00  0.00     0.254 C 
HETATM   32  N   UNL     1      -1.908   6.467 -29.484  1.00  0.00    -0.351 N 
HETATM   33  H   UNL     1      -1.470   5.548 -29.413  1.00  0.00     0.163 HD
HETATM   34  O   UNL     1      -3.858   7.323 -30.365  1.00  0.00    -0.268 OA
BRANCH  32  35
HETATM   35  C   UNL     1      -2.025   7.206 -28.248  1.00  0.00     0.187 C 
BRANCH  35  36
HETATM   36  C   UNL     1      -0.678   7.656 -27.821  1.00  0.00     0.070 A 
HETATM   37  O   UNL     1      -0.457   7.751 -26.478  1.00  0.00    -0.325 OA
HETATM   38  C   UNL     1       0.821   8.180 -26.314  1.00  0.00     0.142 A 
HETATM   39  C   UNL     1       1.427   8.366 -27.533  1.00  0.00     0.027 A 
HETATM   40  C   UNL     1       0.459   8.031 -28.509  1.00  0.00     0.036 A 
ENDBRANCH  35  36
ENDBRANCH  32  35
ENDBRANCH  26  31
ENDBRANCH  22  25
ENDBRANCH   1  21
TORSDOF 7
ENDMDL
MODEL 6
REMARK VINA RESULT:     -10.2      2.226      3.800
REMARK  7 active torsions:
REMARK  status: ('A' for Active; 'I' for Inactive)
REMARK    1  A    between atoms: C_2  and  C_3 
REMARK    2  A    between atoms: N_16  and  C_17 
REMARK    3  A    between atoms: C_17  and  C_18 
REMARK       I    between atoms: C_18  and  N_19 
REMARK    4  A    between atoms: N_19  and  C_20 
REMARK    5  A    between atoms: C_21  and  C_22 
REMARK       I    between atoms: C_22  and  N_23 
REMARK    6  A    between atoms: N_23  and  C_24 
REMARK    7  A    between atoms: C_24  and  C_25 
ROOT
HETATM    1  C   UNL     1      -2.713   5.387 -33.509  1.00  0.00     0.240 C 
ENDROOT
BRANCH   1   2
HETATM    2  N   UNL     1      -3.375   4.521 -32.565  1.00  0.00    -0.259 N 
HETATM    3  C   UNL     1      -2.713   3.881 -31.576  1.00  0.00     0.326 C 
HETATM    4  N   UNL     1      -3.504   2.885 -31.073  1.00  0.00    -0.321 N 
HETATM    5  O   UNL     1      -1.564   4.070 -31.213  1.00  0.00    -0.247 OA
HETATM    6  C   UNL     1      -4.693   2.633 -31.877  1.00  0.00     0.140 C 
HETATM    7  H   UNL     1      -3.046   2.213 -30.476  1.00  0.00     0.165 HD
HETATM    8  C   UNL     1      -5.969   2.797 -31.055  1.00  0.00     0.055 C 
HETATM    9  C   UNL     1      -4.536   3.857 -32.842  1.00  0.00     0.261 C 
HETATM   10  O   UNL     1      -5.296   4.160 -33.753  1.00  0.00    -0.270 OA
BRANCH   6  11
HETATM   11  C   UNL     1      -4.639   1.265 -32.599  1.00  0.00    -0.010 C 
HETATM   12  C   UNL     1      -5.670   0.781 -33.479  1.00  0.00    -0.017 A 
HETATM   13  C   UNL     1      -5.584  -0.556 -33.965  1.00  0.00    -0.025 A 
HETATM   14  C   UNL     1      -6.785   1.531 -33.936  1.00  0.00     0.013 A 
HETATM   15  C   UNL     1      -6.605  -1.106 -34.756  1.00  0.00     0.012 A 
HETATM   16  C   UNL     1      -4.471  -1.350 -33.676  1.00  0.00     0.012 C 
HETATM   17  C   UNL     1      -7.715  -0.353 -35.123  1.00  0.00     0.001 A 
HETATM   18  C   UNL     1      -7.795   0.972 -34.728  1.00  0.00     0.001 A 
HETATM   19  C   UNL     1      -3.423  -0.846 -32.926  1.00  0.00     0.002 C 
HETATM   20  C   UNL     1      -3.508   0.439 -32.401  1.00  0.00     0.011 C 
ENDBRANCH   6  11
ENDBRANCH   1   2
BRANCH   1  21
HETATM   21  C   UNL     1      -2.542   6.855 -33.113  1.00  0.00     0.240 C 
HETATM   22  N   UNL     1      -3.335   7.150 -32.007  1.00  0.00    -0.325 N 
HETATM   23  H   UNL     1      -4.179   6.596 -31.923  1.00  0.00     0.169 HD
HETATM   24  O   UNL     1      -1.877   7.673 -33.738  1.00  0.00    -0.271 OA
BRANCH  22  25
HETATM   25  C   UNL     1      -3.319   8.350 -31.265  1.00  0.00     0.050 A 
HETATM   26  C   UNL     1      -2.329   8.741 -30.351  1.00  0.00     0.058 A 
HETATM   27  C   UNL     1      -2.477   9.934 -29.621  1.00  0.00     0.019 A 
HETATM   28  C   UNL     1      -3.599  10.742 -29.797  1.00  0.00     0.001 A 
HETATM   29  C   UNL     1      -4.593  10.351 -30.685  1.00  0.00     0.002 A 
HETATM   30  C   UNL     1      -4.460   9.159 -31.402  1.00  0.00     0.030 A 
BRANCH  26  31
HETATM   31  C   UNL     1      -1.237   7.869 -29.873  1.00  0.00     0.254 C 
HETATM   32  N   UNL     1      -1.321   7.482 -28.560  1.00  0.00    -0.351 N 
HETATM   33  H   UNL     1      -1.710   8.185 -27.930  1.00  0.00     0.163 HD
HETATM   34  O   UNL     1      -0.403   7.462 -30.674  1.00  0.00    -0.268 OA
BRANCH  32  35
HETATM   35  C   UNL     1      -0.295   6.634 -27.999  1.00  0.00     0.187 C 
BRANCH  35  36
HETATM   36  C   UNL     1       0.704   7.479 -27.299  1.00  0.00     0.070 A 
HETATM   37  O   UNL     1       0.893   7.236 -25.969  1.00  0.00    -0.325 OA
HETATM   38  C   UNL     1       1.833   8.114 -25.534  1.00  0.00     0.142 A 
HETATM   39  C   UNL     1       2.252   8.922 -26.564  1.00  0.00     0.027 A 
HETATM   40  C   UNL     1       1.520   8.515 -27.705  1.00  0.00     0.036 A 
ENDBRANCH  35  36
ENDBRANCH  32  35
ENDBRANCH  26  31
ENDBRANCH  22  25
ENDBRANCH   1  21
TORSDOF 7
ENDMDL
MODEL 7
REMARK VINA RESULT:     -10.2      4.867      8.662
REMARK  7 active torsions:
REMARK  status: ('A' for Active; 'I' for Inactive)
REMARK    1  A    between atoms: C_2  and  C_3 
REMARK    2  A    between atoms: N_16  and  C_17 
REMARK    3  A    between atoms: C_17  and  C_18 
REMARK       I    between atoms: C_18  and  N_19 
REMARK    4  A    between atoms: N_19  and  C_20 
REMARK    5  A    between atoms: C_21  and  C_22 
REMARK       I    between atoms: C_22  and  N_23 
REMARK    6  A    between atoms: N_23  and  C_24 
REMARK    7  A    between atoms: C_24  and  C_25 
ROOT
HETATM    1  C   UNL     1      -9.192   0.921 -34.463  1.00  0.00     0.240 C 
ENDROOT
BRANCH   1   2
HETATM    2  N   UNL     1      -9.480   1.914 -33.458  1.00  0.00    -0.259 N 
HETATM    3  C   UNL     1      -9.485   1.633 -32.137  1.00  0.00     0.326 C 
HETATM    4  N   UNL     1     -10.118   2.640 -31.462  1.00  0.00    -0.321 N 
HETATM    5  O   UNL     1      -9.077   0.618 -31.595  1.00  0.00    -0.247 OA
HETATM    6  C   UNL     1     -10.808   3.576 -32.339  1.00  0.00     0.140 C 
HETATM    7  H   UNL     1     -10.362   2.447 -30.502  1.00  0.00     0.165 HD
HETATM    8  C   UNL     1     -10.309   5.005 -32.137  1.00  0.00     0.055 C 
HETATM    9  C   UNL     1     -10.250   3.018 -33.692  1.00  0.00     0.261 C 
HETATM   10  O   UNL     1     -10.498   3.453 -34.810  1.00  0.00    -0.270 OA
BRANCH   6  11
HETATM   11  C   UNL     1     -12.348   3.476 -32.217  1.00  0.00    -0.010 C 
HETATM   12  C   UNL     1     -13.135   2.436 -32.826  1.00  0.00    -0.017 A 
HETATM   13  C   UNL     1     -14.555   2.532 -32.774  1.00  0.00    -0.025 A 
HETATM   14  C   UNL     1     -12.621   1.284 -33.478  1.00  0.00     0.013 A 
HETATM   15  C   UNL     1     -15.370   1.592 -33.424  1.00  0.00     0.012 A 
HETATM   16  C   UNL     1     -15.175   3.561 -32.059  1.00  0.00     0.012 C 
HETATM   17  C   UNL     1     -14.819   0.515 -34.109  1.00  0.00     0.001 A 
HETATM   18  C   UNL     1     -13.444   0.351 -34.120  1.00  0.00     0.001 A 
HETATM   19  C   UNL     1     -14.418   4.496 -31.374  1.00  0.00     0.002 C 
HETATM   20  C   UNL     1     -13.031   4.449 -31.452  1.00  0.00     0.011 C 
ENDBRANCH   6  11
ENDBRANCH   1   2
BRANCH   1  21
HETATM   21  C   UNL     1      -7.741   0.451 -34.587  1.00  0.00     0.240 C 
HETATM   22  N   UNL     1      -7.538  -0.689 -33.813  1.00  0.00    -0.325 N 
HETATM   23  H   UNL     1      -8.129  -0.764 -32.994  1.00  0.00     0.169 HD
HETATM   24  O   UNL     1      -6.864   1.047 -35.202  1.00  0.00    -0.271 OA
BRANCH  22  25
HETATM   25  C   UNL     1      -6.380  -1.494 -33.802  1.00  0.00     0.050 A 
HETATM   26  C   UNL     1      -5.249  -1.302 -32.995  1.00  0.00     0.058 A 
HETATM   27  C   UNL     1      -4.129  -2.140 -33.140  1.00  0.00     0.019 A 
HETATM   28  C   UNL     1      -4.128  -3.171 -34.077  1.00  0.00     0.001 A 
HETATM   29  C   UNL     1      -5.236  -3.355 -34.895  1.00  0.00     0.002 A 
HETATM   30  C   UNL     1      -6.347  -2.516 -34.767  1.00  0.00     0.030 A 
BRANCH  26  31
HETATM   31  C   UNL     1      -5.007  -0.106 -32.160  1.00  0.00     0.254 C 
HETATM   32  N   UNL     1      -3.968   0.694 -32.560  1.00  0.00    -0.351 N 
HETATM   33  H   UNL     1      -3.172   0.195 -32.960  1.00  0.00     0.163 HD
HETATM   34  O   UNL     1      -5.788   0.156 -31.252  1.00  0.00    -0.268 OA
BRANCH  32  35
HETATM   35  C   UNL     1      -3.650   1.882 -31.803  1.00  0.00     0.187 C 
BRANCH  35  36
HETATM   36  C   UNL     1      -3.896   3.077 -32.648  1.00  0.00     0.070 A 
HETATM   37  O   UNL     1      -5.144   3.206 -33.184  1.00  0.00    -0.325 OA
HETATM   38  C   UNL     1      -5.147   4.351 -33.915  1.00  0.00     0.142 A 
HETATM   39  C   UNL     1      -3.916   4.960 -33.861  1.00  0.00     0.027 A 
HETATM   40  C   UNL     1      -3.104   4.136 -33.045  1.00  0.00     0.036 A 
ENDBRANCH  35  36
ENDBRANCH  32  35
ENDBRANCH  26  31
ENDBRANCH  22  25
ENDBRANCH   1  21
TORSDOF 7
ENDMDL
MODEL 8
REMARK VINA RESULT:     -10.1      5.756      8.502
REMARK  7 active torsions:
REMARK  status: ('A' for Active; 'I' for Inactive)
REMARK    1  A    between atoms: C_2  and  C_3 
REMARK    2  A    between atoms: N_16  and  C_17 
REMARK    3  A    between atoms: C_17  and  C_18 
REMARK       I    between atoms: C_18  and  N_19 
REMARK    4  A    between atoms: N_19  and  C_20 
REMARK    5  A    between atoms: C_21  and  C_22 
REMARK       I    between atoms: C_22  and  N_23 
REMARK    6  A    between atoms: N_23  and  C_24 
REMARK    7  A    between atoms: C_24  and  C_25 
ROOT
HETATM    1  C   UNL     1      -7.608   2.587 -31.085  1.00  0.00     0.240 C 
ENDROOT
BRANCH   1   2
HETATM    2  N   UNL     1      -7.723   1.686 -32.205  1.00  0.00    -0.259 N 
HETATM    3  C   UNL     1      -8.440   0.543 -32.150  1.00  0.00     0.326 C 
HETATM    4  N   UNL     1      -8.093  -0.260 -33.201  1.00  0.00    -0.321 N 
HETATM    5  O   UNL     1      -9.220   0.201 -31.276  1.00  0.00    -0.247 OA
HETATM    6  C   UNL     1      -6.914   0.207 -33.918  1.00  0.00     0.140 C 
HETATM    7  H   UNL     1      -8.408  -1.218 -33.151  1.00  0.00     0.165 HD
HETATM    8  C   UNL     1      -7.215   0.443 -35.396  1.00  0.00     0.055 C 
HETATM    9  C   UNL     1      -6.780   1.587 -33.189  1.00  0.00     0.261 C 
HETATM   10  O   UNL     1      -5.930   2.441 -33.409  1.00  0.00    -0.270 OA
BRANCH   6  11
HETATM   11  C   UNL     1      -5.692  -0.721 -33.715  1.00  0.00    -0.010 C 
HETATM   12  C   UNL     1      -5.656  -2.101 -34.123  1.00  0.00    -0.017 A 
HETATM   13  C   UNL     1      -4.537  -2.898 -33.746  1.00  0.00    -0.025 A 
HETATM   14  C   UNL     1      -6.647  -2.760 -34.897  1.00  0.00     0.013 A 
HETATM   15  C   UNL     1      -4.490  -4.269 -34.043  1.00  0.00     0.012 A 
HETATM   16  C   UNL     1      -3.446  -2.328 -33.083  1.00  0.00     0.012 C 
HETATM   17  C   UNL     1      -5.518  -4.887 -34.747  1.00  0.00     0.001 A 
HETATM   18  C   UNL     1      -6.588  -4.128 -35.190  1.00  0.00     0.001 A 
HETATM   19  C   UNL     1      -3.428  -0.974 -32.794  1.00  0.00     0.002 C 
HETATM   20  C   UNL     1      -4.531  -0.189 -33.109  1.00  0.00     0.011 C 
ENDBRANCH   6  11
ENDBRANCH   1   2
BRANCH   1  21
HETATM   21  C   UNL     1      -8.486   3.839 -31.100  1.00  0.00     0.240 C 
HETATM   22  N   UNL     1      -8.375   4.491 -32.325  1.00  0.00    -0.325 N 
HETATM   23  H   UNL     1      -7.487   4.370 -32.797  1.00  0.00     0.169 HD
HETATM   24  O   UNL     1      -9.119   4.258 -30.137  1.00  0.00    -0.271 OA
BRANCH  22  25
HETATM   25  C   UNL     1      -9.153   5.582 -32.763  1.00  0.00     0.050 A 
HETATM   26  C   UNL     1     -10.259   5.515 -33.625  1.00  0.00     0.058 A 
HETATM   27  C   UNL     1     -10.900   6.695 -34.042  1.00  0.00     0.019 A 
HETATM   28  C   UNL     1     -10.454   7.940 -33.604  1.00  0.00     0.001 A 
HETATM   29  C   UNL     1      -9.347   8.017 -32.768  1.00  0.00     0.002 A 
HETATM   30  C   UNL     1      -8.696   6.849 -32.362  1.00  0.00     0.030 A 
BRANCH  26  31
HETATM   31  C   UNL     1     -10.669   4.306 -34.369  1.00  0.00     0.254 C 
HETATM   32  N   UNL     1     -11.960   4.307 -34.833  1.00  0.00    -0.351 N 
HETATM   33  H   UNL     1     -12.634   4.770 -34.222  1.00  0.00     0.163 HD
HETATM   34  O   UNL     1      -9.834   3.445 -34.618  1.00  0.00    -0.268 OA
BRANCH  32  35
HETATM   35  C   UNL     1     -12.456   3.165 -35.565  1.00  0.00     0.187 C 
BRANCH  35  36
HETATM   36  C   UNL     1     -13.230   2.296 -34.645  1.00  0.00     0.070 A 
HETATM   37  O   UNL     1     -13.813   2.902 -33.569  1.00  0.00    -0.325 OA
HETATM   38  C   UNL     1     -14.457   1.934 -32.868  1.00  0.00     0.142 A 
HETATM   39  C   UNL     1     -14.295   0.711 -33.474  1.00  0.00     0.027 A 
HETATM   40  C   UNL     1     -13.499   0.942 -34.621  1.00  0.00     0.036 A 
ENDBRANCH  35  36
ENDBRANCH  32  35
ENDBRANCH  26  31
ENDBRANCH  22  25
ENDBRANCH   1  21
TORSDOF 7
ENDMDL
MODEL 9
REMARK VINA RESULT:     -10.1      4.433      8.272
REMARK  7 active torsions:
REMARK  status: ('A' for Active; 'I' for Inactive)
REMARK    1  A    between atoms: C_2  and  C_3 
REMARK    2  A    between atoms: N_16  and  C_17 
REMARK    3  A    between atoms: C_17  and  C_18 
REMARK       I    between atoms: C_18  and  N_19 
REMARK    4  A    between atoms: N_19  and  C_20 
REMARK    5  A    between atoms: C_21  and  C_22 
REMARK       I    between atoms: C_22  and  N_23 
REMARK    6  A    between atoms: N_23  and  C_24 
REMARK    7  A    between atoms: C_24  and  C_25 
ROOT
HETATM    1  C   UNL     1      -5.928   3.300 -30.484  1.00  0.00     0.240 C 
ENDROOT
BRANCH   1   2
HETATM    2  N   UNL     1      -4.875   2.473 -31.018  1.00  0.00    -0.259 N 
HETATM    3  C   UNL     1      -4.167   2.814 -32.116  1.00  0.00     0.326 C 
HETATM    4  N   UNL     1      -3.502   1.716 -32.586  1.00  0.00    -0.321 N 
HETATM    5  O   UNL     1      -4.158   3.895 -32.684  1.00  0.00    -0.247 OA
HETATM    6  C   UNL     1      -3.921   0.473 -31.951  1.00  0.00     0.140 C 
HETATM    7  H   UNL     1      -3.106   1.797 -33.511  1.00  0.00     0.165 HD
HETATM    8  C   UNL     1      -2.745  -0.243 -31.290  1.00  0.00     0.055 C 
HETATM    9  C   UNL     1      -4.823   1.119 -30.844  1.00  0.00     0.261 C 
HETATM   10  O   UNL     1      -5.445   0.517 -29.978  1.00  0.00    -0.270 OA
BRANCH   6  11
HETATM   11  C   UNL     1      -4.696  -0.453 -32.918  1.00  0.00    -0.010 C 
HETATM   12  C   UNL     1      -4.406  -1.851 -33.095  1.00  0.00    -0.017 A 
HETATM   13  C   UNL     1      -5.083  -2.567 -34.125  1.00  0.00    -0.025 A 
HETATM   14  C   UNL     1      -3.498  -2.612 -32.314  1.00  0.00     0.013 A 
HETATM   15  C   UNL     1      -4.776  -3.910 -34.396  1.00  0.00     0.012 A 
HETATM   16  C   UNL     1      -6.084  -1.952 -34.882  1.00  0.00     0.012 C 
HETATM   17  C   UNL     1      -3.828  -4.596 -33.646  1.00  0.00     0.001 A 
HETATM   18  C   UNL     1      -3.202  -3.952 -32.592  1.00  0.00     0.001 A 
HETATM   19  C   UNL     1      -6.446  -0.639 -34.634  1.00  0.00     0.002 C 
HETATM   20  C   UNL     1      -5.765   0.092 -33.668  1.00  0.00     0.011 C 
ENDBRANCH   6  11
ENDBRANCH   1   2
BRANCH   1  21
HETATM   21  C   UNL     1      -7.368   2.901 -30.811  1.00  0.00     0.240 C 
HETATM   22  N   UNL     1      -7.501   2.651 -32.174  1.00  0.00    -0.325 N 
HETATM   23  H   UNL     1      -6.868   3.172 -32.770  1.00  0.00     0.169 HD
HETATM   24  O   UNL     1      -8.291   2.895 -30.003  1.00  0.00    -0.271 OA
BRANCH  22  25
HETATM   25  C   UNL     1      -8.632   2.108 -32.817  1.00  0.00     0.050 A 
HETATM   26  C   UNL     1      -9.433   2.759 -33.768  1.00  0.00     0.058 A 
HETATM   27  C   UNL     1     -10.581   2.125 -34.275  1.00  0.00     0.019 A 
HETATM   28  C   UNL     1     -10.935   0.846 -33.849  1.00  0.00     0.001 A 
HETATM   29  C   UNL     1     -10.159   0.204 -32.892  1.00  0.00     0.002 A 
HETATM   30  C   UNL     1      -9.026   0.834 -32.372  1.00  0.00     0.030 A 
BRANCH  26  31
HETATM   31  C   UNL     1      -9.332   4.194 -34.108  1.00  0.00     0.254 C 
HETATM   32  N   UNL     1     -10.516   4.887 -34.103  1.00  0.00    -0.351 N 
HETATM   33  H   UNL     1     -11.326   4.354 -34.423  1.00  0.00     0.163 HD
HETATM   34  O   UNL     1      -8.225   4.695 -34.263  1.00  0.00    -0.268 OA
BRANCH  32  35
HETATM   35  C   UNL     1     -10.520   6.294 -34.430  1.00  0.00     0.187 C 
BRANCH  35  36
HETATM   36  C   UNL     1     -11.700   6.592 -35.280  1.00  0.00     0.070 A 
HETATM   37  O   UNL     1     -11.677   7.766 -35.976  1.00  0.00    -0.325 OA
HETATM   38  C   UNL     1     -12.841   7.838 -36.672  1.00  0.00     0.142 A 
HETATM   39  C   UNL     1     -13.615   6.728 -36.433  1.00  0.00     0.027 A 
HETATM   40  C   UNL     1     -12.881   5.923 -35.530  1.00  0.00     0.036 A 
ENDBRANCH  35  36
ENDBRANCH  32  35
ENDBRANCH  26  31
ENDBRANCH  22  25
ENDBRANCH   1  21
TORSDOF 7
ENDMDL
MODEL 10
REMARK VINA RESULT:      -9.9      3.033      4.748
REMARK  7 active torsions:
REMARK  status: ('A' for Active; 'I' for Inactive)
REMARK    1  A    between atoms: C_2  and  C_3 
REMARK    2  A    between atoms: N_16  and  C_17 
REMARK    3  A    between atoms: C_17  and  C_18 
REMARK       I    between atoms: C_18  and  N_19 
REMARK    4  A    between atoms: N_19  and  C_20 
REMARK    5  A    between atoms: C_21  and  C_22 
REMARK       I    between atoms: C_22  and  N_23 
REMARK    6  A    between atoms: N_23  and  C_24 
REMARK    7  A    between atoms: C_24  and  C_25 
ROOT
HETATM    1  C   UNL     1      -7.524   2.691 -31.263  1.00  0.00     0.240 C 
ENDROOT
BRANCH   1   2
HETATM    2  N   UNL     1      -7.664   1.738 -32.336  1.00  0.00    -0.259 N 
HETATM    3  C   UNL     1      -8.406   0.615 -32.220  1.00  0.00     0.326 C 
HETATM    4  N   UNL     1      -8.081  -0.248 -33.229  1.00  0.00    -0.321 N 
HETATM    5  O   UNL     1      -9.189   0.335 -31.326  1.00  0.00    -0.247 OA
HETATM    6  C   UNL     1      -6.896   0.155 -33.973  1.00  0.00     0.140 C 
HETATM    7  H   UNL     1      -8.418  -1.195 -33.130  1.00  0.00     0.165 HD
HETATM    8  C   UNL     1      -7.198   0.323 -35.461  1.00  0.00     0.055 C 
HETATM    9  C   UNL     1      -6.728   1.567 -33.316  1.00  0.00     0.261 C 
HETATM   10  O   UNL     1      -5.860   2.390 -33.582  1.00  0.00    -0.270 OA
BRANCH   6  11
HETATM   11  C   UNL     1      -5.694  -0.788 -33.728  1.00  0.00    -0.010 C 
HETATM   12  C   UNL     1      -5.660  -2.167 -34.138  1.00  0.00    -0.017 A 
HETATM   13  C   UNL     1      -4.565  -2.979 -33.723  1.00  0.00    -0.025 A 
HETATM   14  C   UNL     1      -6.628  -2.812 -34.952  1.00  0.00     0.013 A 
HETATM   15  C   UNL     1      -4.524  -4.350 -34.023  1.00  0.00     0.012 A 
HETATM   16  C   UNL     1      -3.493  -2.425 -33.017  1.00  0.00     0.012 C 
HETATM   17  C   UNL     1      -5.532  -4.953 -34.766  1.00  0.00     0.001 A 
HETATM   18  C   UNL     1      -6.575  -4.179 -35.247  1.00  0.00     0.001 A 
HETATM   19  C   UNL     1      -3.469  -1.072 -32.722  1.00  0.00     0.002 C 
HETATM   20  C   UNL     1      -4.550  -0.272 -33.076  1.00  0.00     0.011 C 
ENDBRANCH   6  11
ENDBRANCH   1   2
BRANCH   1  21
HETATM   21  C   UNL     1      -7.910   4.142 -31.560  1.00  0.00     0.240 C 
HETATM   22  N   UNL     1      -7.508   4.969 -30.515  1.00  0.00    -0.325 N 
HETATM   23  H   UNL     1      -7.475   4.527 -29.604  1.00  0.00     0.169 HD
HETATM   24  O   UNL     1      -8.563   4.505 -32.532  1.00  0.00    -0.271 OA
BRANCH  22  25
HETATM   25  C   UNL     1      -7.547   6.379 -30.505  1.00  0.00     0.050 A 
HETATM   26  C   UNL     1      -6.449   7.236 -30.673  1.00  0.00     0.058 A 
HETATM   27  C   UNL     1      -6.619   8.628 -30.565  1.00  0.00     0.019 A 
HETATM   28  C   UNL     1      -7.873   9.174 -30.297  1.00  0.00     0.001 A 
HETATM   29  C   UNL     1      -8.961   8.331 -30.108  1.00  0.00     0.002 A 
HETATM   30  C   UNL     1      -8.797   6.946 -30.198  1.00  0.00     0.030 A 
BRANCH  26  31
HETATM   31  C   UNL     1      -5.038   6.798 -30.696  1.00  0.00     0.254 C 
HETATM   32  N   UNL     1      -4.281   7.295 -31.726  1.00  0.00    -0.351 N 
HETATM   33  H   UNL     1      -4.782   7.412 -32.608  1.00  0.00     0.163 HD
HETATM   34  O   UNL     1      -4.607   6.126 -29.767  1.00  0.00    -0.268 OA
BRANCH  32  35
HETATM   35  C   UNL     1      -2.892   6.917 -31.837  1.00  0.00     0.187 C 
BRANCH  35  36
HETATM   36  C   UNL     1      -2.686   6.190 -33.115  1.00  0.00     0.070 A 
HETATM   37  O   UNL     1      -3.762   6.096 -33.949  1.00  0.00    -0.325 OA
HETATM   38  C   UNL     1      -3.359   5.396 -35.041  1.00  0.00     0.142 A 
HETATM   39  C   UNL     1      -2.037   5.036 -34.921  1.00  0.00     0.027 A 
HETATM   40  C   UNL     1      -1.602   5.545 -33.675  1.00  0.00     0.036 A 
ENDBRANCH  35  36
ENDBRANCH  32  35
ENDBRANCH  26  31
ENDBRANCH  22  25
ENDBRANCH   1  21
TORSDOF 7
ENDMDL
