MODEL 1
REMARK VINA RESULT:      -7.2      0.000      0.000
REMARK  3 active torsions:
REMARK  status: ('A' for Active; 'I' for Inactive)
REMARK       I    between atoms: C_2  and  N_3 
REMARK    1  A    between atoms: N_3  and  C_4 
REMARK    2  A    between atoms: C_7  and  C_8 
REMARK       I    between atoms: C_8  and  N_9 
REMARK    3  A    between atoms: N_9  and  C_10 
ROOT
HETATM    1  C   UNL     1      -6.220  -1.033 -33.766  1.00  0.00     0.034 A 
HETATM    2  C   UNL     1      -6.711   0.175 -34.266  1.00  0.00     0.030 A 
HETATM    3  C   UNL     1      -6.183   1.400 -33.832  1.00  0.00     0.019 A 
HETATM    4  C   UNL     1      -5.140   1.431 -32.900  1.00  0.00     0.032 A 
HETATM    5  C   UNL     1      -4.665   0.220 -32.381  1.00  0.00     0.019 A 
HETATM    6  C   UNL     1      -5.200  -0.999 -32.809  1.00  0.00     0.030 A 
ENDROOT
BRANCH   4   7
HETATM    7  C   UNL     1      -4.504   2.698 -32.412  1.00  0.00     0.257 C 
HETATM    8  N   UNL     1      -3.191   2.898 -32.791  1.00  0.00    -0.307 N 
HETATM    9  H   UNL     1      -2.738   2.203 -33.360  1.00  0.00     0.170 HD
HETATM   10  O   UNL     1      -5.184   3.434 -31.706  1.00  0.00    -0.267 OA
BRANCH   8  11
HETATM   11  C   UNL     1      -2.386   3.973 -32.384  1.00  0.00     0.130 A 
HETATM   12  N   UNL     1      -1.835   4.004 -31.158  1.00  0.00    -0.242 NA
HETATM   13  C   UNL     1      -1.044   5.055 -30.837  1.00  0.00     0.142 A 
HETATM   14  C   UNL     1      -0.776   6.104 -31.698  1.00  0.00     0.051 A 
HETATM   15 CL   UNL     1       0.238   7.403 -31.227  1.00  0.00    -0.083 Cl
HETATM   16  C   UNL     1      -1.353   6.073 -32.959  1.00  0.00     0.029 A 
HETATM   17  C   UNL     1      -2.164   4.992 -33.310  1.00  0.00     0.052 A 
ENDBRANCH   8  11
ENDBRANCH   4   7
BRANCH   1  18
HETATM   18  N   UNL     1      -6.691  -2.302 -34.160  1.00  0.00    -0.328 N 
HETATM   19  C   UNL     1      -6.017  -3.257 -34.899  1.00  0.00     0.218 C 
HETATM   20  C   UNL     1      -6.832  -4.507 -35.127  1.00  0.00     0.117 C 
HETATM   21  O   UNL     1      -4.872  -3.177 -35.331  1.00  0.00    -0.274 OA
HETATM   22  H   UNL     1      -7.620  -2.544 -33.842  1.00  0.00     0.169 HD
ENDBRANCH   1  18
TORSDOF 3
ENDMDL
MODEL 2
REMARK VINA RESULT:      -7.0      5.743      7.029
REMARK  3 active torsions:
REMARK  status: ('A' for Active; 'I' for Inactive)
REMARK       I    between atoms: C_2  and  N_3 
REMARK    1  A    between atoms: N_3  and  C_4 
REMARK    2  A    between atoms: C_7  and  C_8 
REMARK       I    between atoms: C_8  and  N_9 
REMARK    3  A    between atoms: N_9  and  C_10 
ROOT
HETATM    1  C   UNL     1      -5.701  -1.662 -33.846  1.00  0.00     0.034 A 
HETATM    2  C   UNL     1      -6.486  -1.349 -34.957  1.00  0.00     0.030 A 
HETATM    3  C   UNL     1      -7.513  -0.397 -34.867  1.00  0.00     0.019 A 
HETATM    4  C   UNL     1      -7.757   0.269 -33.661  1.00  0.00     0.032 A 
HETATM    5  C   UNL     1      -6.985  -0.064 -32.540  1.00  0.00     0.019 A 
HETATM    6  C   UNL     1      -5.969  -1.019 -32.632  1.00  0.00     0.030 A 
ENDROOT
BRANCH   4   7
HETATM    7  C   UNL     1      -8.814   1.318 -33.495  1.00  0.00     0.257 C 
HETATM    8  N   UNL     1      -9.421   1.751 -34.658  1.00  0.00    -0.307 N 
HETATM    9  H   UNL     1      -9.131   1.353 -35.534  1.00  0.00     0.170 HD
HETATM   10  O   UNL     1      -9.038   1.719 -32.358  1.00  0.00    -0.267 OA
BRANCH   8  11
HETATM   11  C   UNL     1     -10.378   2.775 -34.739  1.00  0.00     0.130 A 
HETATM   12  N   UNL     1     -10.017   4.070 -34.672  1.00  0.00    -0.242 NA
HETATM   13  C   UNL     1     -10.984   5.011 -34.787  1.00  0.00     0.142 A 
HETATM   14  C   UNL     1     -12.324   4.716 -34.961  1.00  0.00     0.051 A 
HETATM   15 CL   UNL     1     -13.497   5.958 -35.102  1.00  0.00    -0.083 Cl
HETATM   16  C   UNL     1     -12.693   3.380 -35.021  1.00  0.00     0.029 A 
HETATM   17  C   UNL     1     -11.708   2.396 -34.914  1.00  0.00     0.052 A 
ENDBRANCH   8  11
ENDBRANCH   4   7
BRANCH   1  18
HETATM   18  N   UNL     1      -4.646  -2.597 -33.860  1.00  0.00    -0.328 N 
HETATM   19  C   UNL     1      -4.718  -3.942 -34.174  1.00  0.00     0.218 C 
HETATM   20  C   UNL     1      -3.382  -4.638 -34.090  1.00  0.00     0.117 C 
HETATM   21  O   UNL     1      -5.719  -4.562 -34.520  1.00  0.00    -0.274 OA
HETATM   22  H   UNL     1      -3.731  -2.230 -33.636  1.00  0.00     0.169 HD
ENDBRANCH   1  18
TORSDOF 3
ENDMDL
MODEL 3
REMARK VINA RESULT:      -6.9      3.917      9.076
REMARK  3 active torsions:
REMARK  status: ('A' for Active; 'I' for Inactive)
REMARK       I    between atoms: C_2  and  N_3 
REMARK    1  A    between atoms: N_3  and  C_4 
REMARK    2  A    between atoms: C_7  and  C_8 
REMARK       I    between atoms: C_8  and  N_9 
REMARK    3  A    between atoms: N_9  and  C_10 
ROOT
HETATM    1  C   UNL     1      -0.287   6.959 -29.892  1.00  0.00     0.034 A 
HETATM    2  C   UNL     1      -1.683   6.939 -29.838  1.00  0.00     0.030 A 
HETATM    3  C   UNL     1      -2.420   6.044 -30.627  1.00  0.00     0.019 A 
HETATM    4  C   UNL     1      -1.767   5.140 -31.471  1.00  0.00     0.032 A 
HETATM    5  C   UNL     1      -0.369   5.177 -31.543  1.00  0.00     0.019 A 
HETATM    6  C   UNL     1       0.363   6.078 -30.763  1.00  0.00     0.030 A 
ENDROOT
BRANCH   4   7
HETATM    7  C   UNL     1      -2.484   4.134 -32.320  1.00  0.00     0.257 C 
HETATM    8  N   UNL     1      -3.361   3.300 -31.654  1.00  0.00    -0.307 N 
HETATM    9  H   UNL     1      -3.472   3.405 -30.660  1.00  0.00     0.170 HD
HETATM   10  O   UNL     1      -2.222   4.117 -33.517  1.00  0.00    -0.267 OA
BRANCH   8  11
HETATM   11  C   UNL     1      -4.075   2.243 -32.239  1.00  0.00     0.130 A 
HETATM   12  N   UNL     1      -5.288   2.442 -32.787  1.00  0.00    -0.242 NA
HETATM   13  C   UNL     1      -5.912   1.388 -33.363  1.00  0.00     0.142 A 
HETATM   14  C   UNL     1      -5.376   0.113 -33.413  1.00  0.00     0.051 A 
HETATM   15 CL   UNL     1      -6.220  -1.178 -34.160  1.00  0.00    -0.083 Cl
HETATM   16  C   UNL     1      -4.129  -0.090 -32.839  1.00  0.00     0.029 A 
HETATM   17  C   UNL     1      -3.467   0.988 -32.249  1.00  0.00     0.052 A 
ENDBRANCH   8  11
ENDBRANCH   4   7
BRANCH   1  18
HETATM   18  N   UNL     1       0.522   7.820 -29.125  1.00  0.00    -0.328 N 
HETATM   19  C   UNL     1       0.922   7.651 -27.812  1.00  0.00     0.218 C 
HETATM   20  C   UNL     1       1.797   8.776 -27.314  1.00  0.00     0.117 C 
HETATM   21  O   UNL     1       0.657   6.703 -27.081  1.00  0.00    -0.274 OA
HETATM   22  H   UNL     1       0.866   8.642 -29.604  1.00  0.00     0.169 HD
ENDBRANCH   1  18
TORSDOF 3
ENDMDL
MODEL 4
REMARK VINA RESULT:      -6.9      1.441      1.466
REMARK  3 active torsions:
REMARK  status: ('A' for Active; 'I' for Inactive)
REMARK       I    between atoms: C_2  and  N_3 
REMARK    1  A    between atoms: N_3  and  C_4 
REMARK    2  A    between atoms: C_7  and  C_8 
REMARK       I    between atoms: C_8  and  N_9 
REMARK    3  A    between atoms: N_9  and  C_10 
ROOT
HETATM    1  C   UNL     1      -6.619  -0.903 -34.085  1.00  0.00     0.034 A 
HETATM    2  C   UNL     1      -7.085   0.111 -34.925  1.00  0.00     0.030 A 
HETATM    3  C   UNL     1      -6.816   1.458 -34.643  1.00  0.00     0.019 A 
HETATM    4  C   UNL     1      -6.059   1.810 -33.520  1.00  0.00     0.032 A 
HETATM    5  C   UNL     1      -5.613   0.794 -32.665  1.00  0.00     0.019 A 
HETATM    6  C   UNL     1      -5.891  -0.548 -32.944  1.00  0.00     0.030 A 
ENDROOT
BRANCH   4   7
HETATM    7  C   UNL     1      -5.705   3.223 -33.170  1.00  0.00     0.257 C 
HETATM    8  N   UNL     1      -4.355   3.499 -33.070  1.00  0.00    -0.307 N 
HETATM    9  H   UNL     1      -3.694   2.759 -33.231  1.00  0.00     0.170 HD
HETATM   10  O   UNL     1      -6.629   4.006 -32.981  1.00  0.00    -0.267 OA
BRANCH   8  11
HETATM   11  C   UNL     1      -3.807   4.732 -32.680  1.00  0.00     0.130 A 
HETATM   12  N   UNL     1      -3.788   5.106 -31.389  1.00  0.00    -0.242 NA
HETATM   13  C   UNL     1      -3.218   6.294 -31.075  1.00  0.00     0.142 A 
HETATM   14  C   UNL     1      -2.662   7.148 -32.010  1.00  0.00     0.051 A 
HETATM   15 CL   UNL     1      -1.954   8.638 -31.542  1.00  0.00    -0.083 Cl
HETATM   16  C   UNL     1      -2.692   6.763 -33.342  1.00  0.00     0.029 A 
HETATM   17  C   UNL     1      -3.267   5.536 -33.682  1.00  0.00     0.052 A 
ENDBRANCH   8  11
ENDBRANCH   4   7
BRANCH   1  18
HETATM   18  N   UNL     1      -6.839  -2.277 -34.306  1.00  0.00    -0.328 N 
HETATM   19  C   UNL     1      -5.951  -3.197 -34.833  1.00  0.00     0.218 C 
HETATM   20  C   UNL     1      -6.528  -4.589 -34.919  1.00  0.00     0.117 C 
HETATM   21  O   UNL     1      -4.796  -2.983 -35.187  1.00  0.00    -0.274 OA
HETATM   22  H   UNL     1      -7.744  -2.629 -34.022  1.00  0.00     0.169 HD
ENDBRANCH   1  18
TORSDOF 3
ENDMDL
MODEL 5
REMARK VINA RESULT:      -6.8      3.892      8.336
REMARK  3 active torsions:
REMARK  status: ('A' for Active; 'I' for Inactive)
REMARK       I    between atoms: C_2  and  N_3 
REMARK    1  A    between atoms: N_3  and  C_4 
REMARK    2  A    between atoms: C_7  and  C_8 
REMARK       I    between atoms: C_8  and  N_9 
REMARK    3  A    between atoms: N_9  and  C_10 
ROOT
HETATM    1  C   UNL     1      -3.596   4.969 -31.053  1.00  0.00     0.034 A 
HETATM    2  C   UNL     1      -4.787   4.472 -30.518  1.00  0.00     0.030 A 
HETATM    3  C   UNL     1      -5.199   3.157 -30.782  1.00  0.00     0.019 A 
HETATM    4  C   UNL     1      -4.413   2.314 -31.575  1.00  0.00     0.032 A 
HETATM    5  C   UNL     1      -3.232   2.821 -32.131  1.00  0.00     0.019 A 
HETATM    6  C   UNL     1      -2.829   4.135 -31.873  1.00  0.00     0.030 A 
ENDROOT
BRANCH   4   7
HETATM    7  C   UNL     1      -4.772   0.890 -31.876  1.00  0.00     0.257 C 
HETATM    8  N   UNL     1      -4.790   0.544 -33.213  1.00  0.00    -0.307 N 
HETATM    9  H   UNL     1      -4.569   1.244 -33.900  1.00  0.00     0.170 HD
HETATM   10  O   UNL     1      -5.039   0.163 -30.926  1.00  0.00    -0.267 OA
BRANCH   8  11
HETATM   11  C   UNL     1      -5.171  -0.709 -33.719  1.00  0.00     0.130 A 
HETATM   12  N   UNL     1      -4.267  -1.686 -33.909  1.00  0.00    -0.242 NA
HETATM   13  C   UNL     1      -4.703  -2.882 -34.372  1.00  0.00     0.142 A 
HETATM   14  C   UNL     1      -6.027  -3.153 -34.668  1.00  0.00     0.051 A 
HETATM   15 CL   UNL     1      -6.512  -4.691 -35.248  1.00  0.00    -0.083 Cl
HETATM   16  C   UNL     1      -6.956  -2.140 -34.478  1.00  0.00     0.029 A 
HETATM   17  C   UNL     1      -6.525  -0.903 -33.993  1.00  0.00     0.052 A 
ENDBRANCH   8  11
ENDBRANCH   4   7
BRANCH   1  18
HETATM   18  N   UNL     1      -3.110   6.272 -30.826  1.00  0.00    -0.328 N 
HETATM   19  C   UNL     1      -1.896   6.632 -30.272  1.00  0.00     0.218 C 
HETATM   20  C   UNL     1      -1.708   8.128 -30.187  1.00  0.00     0.117 C 
HETATM   21  O   UNL     1      -1.008   5.875 -29.895  1.00  0.00    -0.274 OA
HETATM   22  H   UNL     1      -3.715   7.025 -31.126  1.00  0.00     0.169 HD
ENDBRANCH   1  18
TORSDOF 3
ENDMDL
MODEL 6
REMARK VINA RESULT:      -6.8      4.293      5.166
REMARK  3 active torsions:
REMARK  status: ('A' for Active; 'I' for Inactive)
REMARK       I    between atoms: C_2  and  N_3 
REMARK    1  A    between atoms: N_3  and  C_4 
REMARK    2  A    between atoms: C_7  and  C_8 
REMARK       I    between atoms: C_8  and  N_9 
REMARK    3  A    between atoms: N_9  and  C_10 
ROOT
HETATM    1  C   UNL     1     -10.895   1.365 -33.459  1.00  0.00     0.034 A 
HETATM    2  C   UNL     1      -9.844   0.445 -33.423  1.00  0.00     0.030 A 
HETATM    3  C   UNL     1      -8.510   0.878 -33.396  1.00  0.00     0.019 A 
HETATM    4  C   UNL     1      -8.209   2.244 -33.388  1.00  0.00     0.032 A 
HETATM    5  C   UNL     1      -9.262   3.165 -33.449  1.00  0.00     0.019 A 
HETATM    6  C   UNL     1     -10.590   2.730 -33.485  1.00  0.00     0.030 A 
ENDROOT
BRANCH   4   7
HETATM    7  C   UNL     1      -6.812   2.783 -33.329  1.00  0.00     0.257 C 
HETATM    8  N   UNL     1      -6.653   4.092 -33.740  1.00  0.00    -0.307 N 
HETATM    9  H   UNL     1      -7.460   4.605 -34.050  1.00  0.00     0.170 HD
HETATM   10  O   UNL     1      -5.929   2.021 -32.948  1.00  0.00    -0.267 OA
BRANCH   8  11
HETATM   11  C   UNL     1      -5.426   4.767 -33.837  1.00  0.00     0.130 A 
HETATM   12  N   UNL     1      -4.697   4.723 -34.966  1.00  0.00    -0.242 NA
HETATM   13  C   UNL     1      -3.536   5.420 -35.007  1.00  0.00     0.142 A 
HETATM   14  C   UNL     1      -3.055   6.169 -33.949  1.00  0.00     0.051 A 
HETATM   15 CL   UNL     1      -1.577   7.030 -34.069  1.00  0.00    -0.083 Cl
HETATM   16  C   UNL     1      -3.805   6.205 -32.783  1.00  0.00     0.029 A 
HETATM   17  C   UNL     1      -5.009   5.500 -32.727  1.00  0.00     0.052 A 
ENDBRANCH   8  11
ENDBRANCH   4   7
BRANCH   1  18
HETATM   18  N   UNL     1     -12.258   1.009 -33.477  1.00  0.00    -0.328 N 
HETATM   19  C   UNL     1     -13.139   1.105 -34.539  1.00  0.00     0.218 C 
HETATM   20  C   UNL     1     -14.527   0.623 -34.197  1.00  0.00     0.117 C 
HETATM   21  O   UNL     1     -12.882   1.501 -35.671  1.00  0.00    -0.274 OA
HETATM   22  H   UNL     1     -12.622   0.618 -32.618  1.00  0.00     0.169 HD
ENDBRANCH   1  18
TORSDOF 3
ENDMDL
MODEL 7
REMARK VINA RESULT:      -6.7     16.157     17.034
REMARK  3 active torsions:
REMARK  status: ('A' for Active; 'I' for Inactive)
REMARK       I    between atoms: C_2  and  N_3 
REMARK    1  A    between atoms: N_3  and  C_4 
REMARK    2  A    between atoms: C_7  and  C_8 
REMARK       I    between atoms: C_8  and  N_9 
REMARK    3  A    between atoms: N_9  and  C_10 
ROOT
HETATM    1  C   UNL     1      -8.209 -12.395 -39.669  1.00  0.00     0.034 A 
HETATM    2  C   UNL     1      -7.783 -12.609 -38.356  1.00  0.00     0.030 A 
HETATM    3  C   UNL     1      -6.418 -12.712 -38.051  1.00  0.00     0.019 A 
HETATM    4  C   UNL     1      -5.455 -12.585 -39.058  1.00  0.00     0.032 A 
HETATM    5  C   UNL     1      -5.883 -12.395 -40.378  1.00  0.00     0.019 A 
HETATM    6  C   UNL     1      -7.246 -12.302 -40.680  1.00  0.00     0.030 A 
ENDROOT
BRANCH   4   7
HETATM    7  C   UNL     1      -3.979 -12.653 -38.805  1.00  0.00     0.257 C 
HETATM    8  N   UNL     1      -3.385 -13.879 -39.035  1.00  0.00    -0.307 N 
HETATM    9  H   UNL     1      -3.956 -14.644 -39.351  1.00  0.00     0.170 HD
HETATM   10  O   UNL     1      -3.429 -11.636 -38.398  1.00  0.00    -0.267 OA
BRANCH   8  11
HETATM   11  C   UNL     1      -2.037 -14.183 -38.791  1.00  0.00     0.130 A 
HETATM   12  N   UNL     1      -1.636 -14.656 -37.597  1.00  0.00    -0.242 NA
HETATM   13  C   UNL     1      -0.326 -14.958 -37.434  1.00  0.00     0.142 A 
HETATM   14  C   UNL     1       0.625 -14.802 -38.425  1.00  0.00     0.051 A 
HETATM   15 CL   UNL     1       2.268 -15.208 -38.153  1.00  0.00    -0.083 Cl
HETATM   16  C   UNL     1       0.210 -14.306 -39.653  1.00  0.00     0.029 A 
HETATM   17  C   UNL     1      -1.139 -13.998 -39.841  1.00  0.00     0.052 A 
ENDBRANCH   8  11
ENDBRANCH   4   7
BRANCH   1  18
HETATM   18  N   UNL     1      -9.559 -12.270 -40.053  1.00  0.00    -0.328 N 
HETATM   19  C   UNL     1     -10.501 -13.277 -40.155  1.00  0.00     0.218 C 
HETATM   20  C   UNL     1     -11.855 -12.773 -40.590  1.00  0.00     0.117 C 
HETATM   21  O   UNL     1     -10.334 -14.466 -39.906  1.00  0.00    -0.274 OA
HETATM   22  H   UNL     1      -9.873 -11.329 -40.254  1.00  0.00     0.169 HD
ENDBRANCH   1  18
TORSDOF 3
ENDMDL
MODEL 8
REMARK VINA RESULT:      -6.5      4.616      8.459
REMARK  3 active torsions:
REMARK  status: ('A' for Active; 'I' for Inactive)
REMARK       I    between atoms: C_2  and  N_3 
REMARK    1  A    between atoms: N_3  and  C_4 
REMARK    2  A    between atoms: C_7  and  C_8 
REMARK       I    between atoms: C_8  and  N_9 
REMARK    3  A    between atoms: N_9  and  C_10 
ROOT
HETATM    1  C   UNL     1      -5.991   4.741 -29.854  1.00  0.00     0.034 A 
HETATM    2  C   UNL     1      -4.874   4.245 -30.529  1.00  0.00     0.030 A 
HETATM    3  C   UNL     1      -4.852   2.928 -31.011  1.00  0.00     0.019 A 
HETATM    4  C   UNL     1      -5.960   2.091 -30.838  1.00  0.00     0.032 A 
HETATM    5  C   UNL     1      -7.070   2.582 -30.139  1.00  0.00     0.019 A 
HETATM    6  C   UNL     1      -7.084   3.893 -29.652  1.00  0.00     0.030 A 
ENDROOT
BRANCH   4   7
HETATM    7  C   UNL     1      -6.023   0.684 -31.350  1.00  0.00     0.257 C 
HETATM    8  N   UNL     1      -5.655   0.507 -32.670  1.00  0.00    -0.307 N 
HETATM    9  H   UNL     1      -5.372   1.308 -33.207  1.00  0.00     0.170 HD
HETATM   10  O   UNL     1      -6.412  -0.182 -30.574  1.00  0.00    -0.267 OA
BRANCH   8  11
HETATM   11  C   UNL     1      -5.712  -0.708 -33.370  1.00  0.00     0.130 A 
HETATM   12  N   UNL     1      -4.613  -1.465 -33.539  1.00  0.00    -0.242 NA
HETATM   13  C   UNL     1      -4.741  -2.642 -34.198  1.00  0.00     0.142 A 
HETATM   14  C   UNL     1      -5.938  -3.106 -34.713  1.00  0.00     0.051 A 
HETATM   15 CL   UNL     1      -6.030  -4.607 -35.535  1.00  0.00    -0.083 Cl
HETATM   16  C   UNL     1      -7.068  -2.318 -34.544  1.00  0.00     0.029 A 
HETATM   17  C   UNL     1      -6.956  -1.106 -33.859  1.00  0.00     0.052 A 
ENDBRANCH   8  11
ENDBRANCH   4   7
BRANCH   1  18
HETATM   18  N   UNL     1      -6.092   6.054 -29.350  1.00  0.00    -0.328 N 
HETATM   19  C   UNL     1      -5.928   6.467 -28.041  1.00  0.00     0.218 C 
HETATM   20  C   UNL     1      -6.104   7.956 -27.868  1.00  0.00     0.117 C 
HETATM   21  O   UNL     1      -5.642   5.762 -27.079  1.00  0.00    -0.274 OA
HETATM   22  H   UNL     1      -6.285   6.773 -30.035  1.00  0.00     0.169 HD
ENDBRANCH   1  18
TORSDOF 3
ENDMDL
MODEL 9
REMARK VINA RESULT:      -6.5      2.276      2.739
REMARK  3 active torsions:
REMARK  status: ('A' for Active; 'I' for Inactive)
REMARK       I    between atoms: C_2  and  N_3 
REMARK    1  A    between atoms: N_3  and  C_4 
REMARK    2  A    between atoms: C_7  and  C_8 
REMARK       I    between atoms: C_8  and  N_9 
REMARK    3  A    between atoms: N_9  and  C_10 
ROOT
HETATM    1  C   UNL     1      -6.442  -1.097 -33.974  1.00  0.00     0.034 A 
HETATM    2  C   UNL     1      -5.801  -0.878 -32.752  1.00  0.00     0.030 A 
HETATM    3  C   UNL     1      -5.531   0.423 -32.304  1.00  0.00     0.019 A 
HETATM    4  C   UNL     1      -5.917   1.530 -33.069  1.00  0.00     0.032 A 
HETATM    5  C   UNL     1      -6.536   1.310 -34.306  1.00  0.00     0.019 A 
HETATM    6  C   UNL     1      -6.795   0.010 -34.753  1.00  0.00     0.030 A 
ENDROOT
BRANCH   4   7
HETATM    7  C   UNL     1      -5.691   2.949 -32.644  1.00  0.00     0.257 C 
HETATM    8  N   UNL     1      -4.956   3.121 -31.487  1.00  0.00    -0.307 N 
HETATM    9  H   UNL     1      -4.619   2.308 -31.000  1.00  0.00     0.170 HD
HETATM   10  O   UNL     1      -6.188   3.831 -33.335  1.00  0.00    -0.267 OA
BRANCH   8  11
HETATM   11  C   UNL     1      -4.692   4.354 -30.871  1.00  0.00     0.130 A 
HETATM   12  N   UNL     1      -3.678   5.135 -31.284  1.00  0.00    -0.242 NA
HETATM   13  C   UNL     1      -3.495   6.327 -30.669  1.00  0.00     0.142 A 
HETATM   14  C   UNL     1      -4.289   6.785 -29.632  1.00  0.00     0.051 A 
HETATM   15 CL   UNL     1      -4.003   8.307 -28.898  1.00  0.00    -0.083 Cl
HETATM   16  C   UNL     1      -5.329   5.973 -29.203  1.00  0.00     0.029 A 
HETATM   17  C   UNL     1      -5.538   4.744 -29.833  1.00  0.00     0.052 A 
ENDBRANCH   8  11
ENDBRANCH   4   7
BRANCH   1  18
HETATM   18  N   UNL     1      -6.756  -2.371 -34.487  1.00  0.00    -0.328 N 
HETATM   19  C   UNL     1      -5.874  -3.341 -34.928  1.00  0.00     0.218 C 
HETATM   20  C   UNL     1      -6.568  -4.593 -35.406  1.00  0.00     0.117 C 
HETATM   21  O   UNL     1      -4.649  -3.272 -34.932  1.00  0.00    -0.274 OA
HETATM   22  H   UNL     1      -7.740  -2.605 -34.510  1.00  0.00     0.169 HD
ENDBRANCH   1  18
TORSDOF 3
ENDMDL
MODEL 10
REMARK VINA RESULT:      -6.4     16.186     17.762
REMARK  3 active torsions:
REMARK  status: ('A' for Active; 'I' for Inactive)
REMARK       I    between atoms: C_2  and  N_3 
REMARK    1  A    between atoms: N_3  and  C_4 
REMARK    2  A    between atoms: C_7  and  C_8 
REMARK       I    between atoms: C_8  and  N_9 
REMARK    3  A    between atoms: N_9  and  C_10 
ROOT
HETATM    1  C   UNL     1      -5.890 -16.462 -30.793  1.00  0.00     0.034 A 
HETATM    2  C   UNL     1      -5.161 -15.293 -31.026  1.00  0.00     0.030 A 
HETATM    3  C   UNL     1      -5.434 -14.487 -32.141  1.00  0.00     0.019 A 
HETATM    4  C   UNL     1      -6.456 -14.832 -33.033  1.00  0.00     0.032 A 
HETATM    5  C   UNL     1      -7.169 -16.017 -32.811  1.00  0.00     0.019 A 
HETATM    6  C   UNL     1      -6.888 -16.824 -31.704  1.00  0.00     0.030 A 
ENDROOT
BRANCH   4   7
HETATM    7  C   UNL     1      -6.826 -14.007 -34.227  1.00  0.00     0.257 C 
HETATM    8  N   UNL     1      -6.478 -14.535 -35.455  1.00  0.00    -0.307 N 
HETATM    9  H   UNL     1      -6.006 -15.422 -35.487  1.00  0.00     0.170 HD
HETATM   10  O   UNL     1      -7.380 -12.933 -34.021  1.00  0.00    -0.267 OA
BRANCH   8  11
HETATM   11  C   UNL     1      -6.661 -13.896 -36.692  1.00  0.00     0.130 A 
HETATM   12  N   UNL     1      -5.629 -13.322 -37.336  1.00  0.00    -0.242 NA
HETATM   13  C   UNL     1      -5.865 -12.748 -38.540  1.00  0.00     0.142 A 
HETATM   14  C   UNL     1      -7.110 -12.713 -39.142  1.00  0.00     0.051 A 
HETATM   15 CL   UNL     1      -7.339 -11.971 -40.670  1.00  0.00    -0.083 Cl
HETATM   16  C   UNL     1      -8.173 -13.299 -38.470  1.00  0.00     0.029 A 
HETATM   17  C   UNL     1      -7.946 -13.903 -37.232  1.00  0.00     0.052 A 
ENDBRANCH   8  11
ENDBRANCH   4   7
BRANCH   1  18
HETATM   18  N   UNL     1      -5.682 -17.317 -29.692  1.00  0.00    -0.328 N 
HETATM   19  C   UNL     1      -5.112 -16.997 -28.474  1.00  0.00     0.218 C 
HETATM   20  C   UNL     1      -5.058 -18.169 -27.524  1.00  0.00     0.117 C 
HETATM   21  O   UNL     1      -4.701 -15.896 -28.123  1.00  0.00    -0.274 OA
HETATM   22  H   UNL     1      -6.011 -18.267 -29.806  1.00  0.00     0.169 HD
ENDBRANCH   1  18
TORSDOF 3
ENDMDL
