MODEL 1
REMARK VINA RESULT:      -9.0      0.000      0.000
REMARK  3 active torsions:
REMARK  status: ('A' for Active; 'I' for Inactive)
REMARK    1  A    between atoms: C_4  and  C_5 
REMARK       I    between atoms: C_5  and  N_6 
REMARK    2  A    between atoms: C_16  and  C_17 
REMARK    3  A    between atoms: C_27  and  O_28 
ROOT
HETATM    1  C   UNL     1      -5.300   4.669 -32.553  1.00  0.00     0.275 C 
HETATM    2  N   UNL     1      -6.071   3.567 -32.948  1.00  0.00    -0.339 N 
HETATM    3  C   UNL     1      -7.409   3.415 -32.401  1.00  0.00     0.123 C 
HETATM    4  C   UNL     1      -8.038   2.242 -33.192  1.00  0.00     0.221 C 
HETATM    5  N   UNL     1      -8.581   1.204 -32.205  1.00  0.00    -0.064 N 
HETATM    6  H   UNL     1      -8.999   0.421 -32.725  1.00  0.00     0.280 HD
HETATM    7  C   UNL     1      -7.569   0.639 -31.220  1.00  0.00     0.236 C 
HETATM    8  C   UNL     1      -6.822   1.793 -30.563  1.00  0.00     0.034 C 
HETATM    9  C   UNL     1      -7.510   3.127 -30.887  1.00  0.00     0.014 C 
HETATM   10  C   UNL     1      -9.011   2.987 -30.537  1.00  0.00     0.034 C 
HETATM   11  C   UNL     1      -9.674   1.882 -31.375  1.00  0.00     0.236 C 
HETATM   12  C   UNL     1      -6.998   1.801 -34.260  1.00  0.00     0.070 C 
HETATM   13  C   UNL     1      -6.034   3.003 -34.295  1.00  0.00     0.138 C 
HETATM   14  O   UNL     1      -5.733   5.478 -31.729  1.00  0.00    -0.266 OA
ENDROOT
BRANCH   1  15
HETATM   15  C   UNL     1      -3.935   4.906 -33.129  1.00  0.00     0.157 A 
HETATM   16  N   UNL     1      -3.872   5.420 -34.386  1.00  0.00    -0.253 NA
HETATM   17  C   UNL     1      -2.633   5.624 -34.893  1.00  0.00     0.117 A 
HETATM   18  C   UNL     1      -1.460   5.342 -34.210  1.00  0.00     0.022 A 
HETATM   19  C   UNL     1      -1.551   4.800 -32.931  1.00  0.00     0.040 A 
HETATM   20  C   UNL     1      -2.805   4.562 -32.382  1.00  0.00     0.100 A 
BRANCH  20  21
HETATM   21  O   UNL     1      -2.838   4.003 -31.135  1.00  0.00    -0.358 OA
HETATM   22  H   UNL     1      -2.558   4.682 -30.482  1.00  0.00     0.218 HD
ENDBRANCH  20  21
ENDBRANCH   1  15
BRANCH  12  23
HETATM   23  C   UNL     1      -6.327   0.449 -34.131  1.00  0.00    -0.044 A 
HETATM   24  C   UNL     1      -6.965  -0.684 -34.666  1.00  0.00     0.050 A 
HETATM   25  C   UNL     1      -6.372  -1.945 -34.573  1.00  0.00     0.119 A 
HETATM   26  F   UNL     1      -7.016  -3.003 -35.078  1.00  0.00    -0.206 F 
HETATM   27  C   UNL     1      -5.143  -2.119 -33.959  1.00  0.00     0.084 A 
HETATM   28  C   UNL     1      -4.501  -1.005 -33.442  1.00  0.00     0.119 A 
HETATM   29  F   UNL     1      -3.317  -1.150 -32.833  1.00  0.00    -0.206 F 
HETATM   30  C   UNL     1      -5.073   0.266 -33.522  1.00  0.00     0.050 A 
ENDBRANCH  12  23
TORSDOF 3
ENDMDL
MODEL 2
REMARK VINA RESULT:      -8.8      3.306      6.196
REMARK  3 active torsions:
REMARK  status: ('A' for Active; 'I' for Inactive)
REMARK    1  A    between atoms: C_4  and  C_5 
REMARK       I    between atoms: C_5  and  N_6 
REMARK    2  A    between atoms: C_16  and  C_17 
REMARK    3  A    between atoms: C_27  and  O_28 
ROOT
HETATM    1  C   UNL     1      -4.853  -1.308 -33.239  1.00  0.00     0.275 C 
HETATM    2  N   UNL     1      -5.600  -0.132 -33.394  1.00  0.00    -0.339 N 
HETATM    3  C   UNL     1      -5.127   1.088 -32.765  1.00  0.00     0.123 C 
HETATM    4  C   UNL     1      -6.052   2.207 -33.304  1.00  0.00     0.221 C 
HETATM    5  N   UNL     1      -6.633   2.990 -32.124  1.00  0.00    -0.064 N 
HETATM    6  H   UNL     1      -7.252   3.733 -32.476  1.00  0.00     0.280 HD
HETATM    7  C   UNL     1      -7.408   2.168 -31.104  1.00  0.00     0.236 C 
HETATM    8  C   UNL     1      -6.566   0.964 -30.699  1.00  0.00     0.034 C 
HETATM    9  C   UNL     1      -5.129   1.118 -31.220  1.00  0.00     0.014 C 
HETATM   10  C   UNL     1      -4.608   2.506 -30.779  1.00  0.00     0.034 C 
HETATM   11  C   UNL     1      -5.465   3.635 -31.375  1.00  0.00     0.236 C 
HETATM   12  C   UNL     1      -7.019   1.545 -34.326  1.00  0.00     0.070 C 
HETATM   13  C   UNL     1      -6.319   0.204 -34.621  1.00  0.00     0.138 C 
HETATM   14  O   UNL     1      -3.828  -1.317 -32.551  1.00  0.00    -0.266 OA
ENDROOT
BRANCH   1  15
HETATM   15  C   UNL     1      -5.265  -2.583 -33.913  1.00  0.00     0.157 A 
HETATM   16  N   UNL     1      -6.458  -2.584 -34.565  1.00  0.00    -0.253 NA
HETATM   17  C   UNL     1      -6.818  -3.744 -35.165  1.00  0.00     0.117 A 
HETATM   18  C   UNL     1      -6.047  -4.896 -35.147  1.00  0.00     0.022 A 
HETATM   19  C   UNL     1      -4.838  -4.876 -34.458  1.00  0.00     0.040 A 
HETATM   20  C   UNL     1      -4.441  -3.709 -33.817  1.00  0.00     0.100 A 
BRANCH  20  21
HETATM   21  O   UNL     1      -3.259  -3.750 -33.133  1.00  0.00    -0.358 OA
HETATM   22  H   UNL     1      -3.233  -2.990 -32.510  1.00  0.00     0.218 HD
ENDBRANCH  20  21
ENDBRANCH   1  15
BRANCH  12  23
HETATM   23  C   UNL     1      -8.493   1.437 -33.992  1.00  0.00    -0.044 A 
HETATM   24  C   UNL     1      -9.332   2.537 -34.242  1.00  0.00     0.050 A 
HETATM   25  C   UNL     1     -10.697   2.469 -33.954  1.00  0.00     0.119 A 
HETATM   26  F   UNL     1     -11.463   3.541 -34.188  1.00  0.00    -0.206 F 
HETATM   27  C   UNL     1     -11.265   1.323 -33.422  1.00  0.00     0.084 A 
HETATM   28  C   UNL     1     -10.447   0.230 -33.187  1.00  0.00     0.119 A 
HETATM   29  F   UNL     1     -10.971  -0.885 -32.663  1.00  0.00    -0.206 F 
HETATM   30  C   UNL     1      -9.080   0.272 -33.466  1.00  0.00     0.050 A 
ENDBRANCH  12  23
TORSDOF 3
ENDMDL
MODEL 3
REMARK VINA RESULT:      -8.6      3.311      5.017
REMARK  3 active torsions:
REMARK  status: ('A' for Active; 'I' for Inactive)
REMARK    1  A    between atoms: C_4  and  C_5 
REMARK       I    between atoms: C_5  and  N_6 
REMARK    2  A    between atoms: C_16  and  C_17 
REMARK    3  A    between atoms: C_27  and  O_28 
ROOT
HETATM    1  C   UNL     1      -5.824   2.821 -31.783  1.00  0.00     0.275 C 
HETATM    2  N   UNL     1      -6.905   1.992 -32.115  1.00  0.00    -0.339 N 
HETATM    3  C   UNL     1      -6.644   0.611 -32.480  1.00  0.00     0.123 C 
HETATM    4  C   UNL     1      -8.039  -0.054 -32.574  1.00  0.00     0.221 C 
HETATM    5  N   UNL     1      -8.173  -0.751 -33.931  1.00  0.00    -0.064 N 
HETATM    6  H   UNL     1      -9.100  -1.193 -34.000  1.00  0.00     0.280 HD
HETATM    7  C   UNL     1      -7.973   0.136 -35.151  1.00  0.00     0.236 C 
HETATM    8  C   UNL     1      -6.682   0.926 -34.980  1.00  0.00     0.034 C 
HETATM    9  C   UNL     1      -5.872   0.375 -33.797  1.00  0.00     0.014 C 
HETATM   10  C   UNL     1      -5.727  -1.154 -33.988  1.00  0.00     0.034 C 
HETATM   11  C   UNL     1      -7.102  -1.842 -33.998  1.00  0.00     0.236 C 
HETATM   12  C   UNL     1      -9.085   1.022 -32.167  1.00  0.00     0.070 C 
HETATM   13  C   UNL     1      -8.212   2.082 -31.468  1.00  0.00     0.138 C 
HETATM   14  O   UNL     1      -4.666   2.397 -31.833  1.00  0.00    -0.266 OA
ENDROOT
BRANCH   1  15
HETATM   15  C   UNL     1      -6.040   4.239 -31.345  1.00  0.00     0.157 A 
HETATM   16  N   UNL     1      -6.457   5.125 -32.289  1.00  0.00    -0.253 NA
HETATM   17  C   UNL     1      -6.644   6.401 -31.878  1.00  0.00     0.117 A 
HETATM   18  C   UNL     1      -6.436   6.835 -30.577  1.00  0.00     0.022 A 
HETATM   19  C   UNL     1      -5.993   5.913 -29.634  1.00  0.00     0.040 A 
HETATM   20  C   UNL     1      -5.776   4.597 -30.020  1.00  0.00     0.100 A 
BRANCH  20  21
HETATM   21  O   UNL     1      -5.314   3.739 -29.061  1.00  0.00    -0.358 OA
HETATM   22  H   UNL     1      -5.697   2.849 -29.228  1.00  0.00     0.218 HD
ENDBRANCH  20  21
ENDBRANCH   1  15
BRANCH  12  23
HETATM   23  C   UNL     1     -10.035   1.568 -33.214  1.00  0.00    -0.044 A 
HETATM   24  C   UNL     1     -11.201   0.845 -33.521  1.00  0.00     0.050 A 
HETATM   25  C   UNL     1     -12.104   1.322 -34.474  1.00  0.00     0.119 A 
HETATM   26  F   UNL     1     -13.194   0.599 -34.754  1.00  0.00    -0.206 F 
HETATM   27  C   UNL     1     -11.884   2.517 -35.139  1.00  0.00     0.084 A 
HETATM   28  C   UNL     1     -10.744   3.243 -34.831  1.00  0.00     0.119 A 
HETATM   29  F   UNL     1     -10.504   4.394 -35.470  1.00  0.00    -0.206 F 
HETATM   30  C   UNL     1      -9.827   2.787 -33.883  1.00  0.00     0.050 A 
ENDBRANCH  12  23
TORSDOF 3
ENDMDL
MODEL 4
REMARK VINA RESULT:      -8.6      1.576      2.453
REMARK  3 active torsions:
REMARK  status: ('A' for Active; 'I' for Inactive)
REMARK    1  A    between atoms: C_4  and  C_5 
REMARK       I    between atoms: C_5  and  N_6 
REMARK    2  A    between atoms: C_16  and  C_17 
REMARK    3  A    between atoms: C_27  and  O_28 
ROOT
HETATM    1  C   UNL     1      -6.313   3.986 -32.387  1.00  0.00     0.275 C 
HETATM    2  N   UNL     1      -6.814   2.936 -33.169  1.00  0.00    -0.339 N 
HETATM    3  C   UNL     1      -8.251   2.812 -33.340  1.00  0.00     0.123 C 
HETATM    4  C   UNL     1      -8.438   1.704 -34.405  1.00  0.00     0.221 C 
HETATM    5  N   UNL     1      -9.402   0.644 -33.864  1.00  0.00    -0.064 N 
HETATM    6  H   UNL     1      -9.528  -0.097 -34.567  1.00  0.00     0.280 HD
HETATM    7  C   UNL     1      -8.995  -0.008 -32.550  1.00  0.00     0.236 C 
HETATM    8  C   UNL     1      -8.640   1.083 -31.547  1.00  0.00     0.034 C 
HETATM    9  C   UNL     1      -9.071   2.458 -32.080  1.00  0.00     0.014 C 
HETATM   10  C   UNL     1     -10.557   2.362 -32.501  1.00  0.00     0.034 C 
HETATM   11  C   UNL     1     -10.750   1.326 -33.619  1.00  0.00     0.236 C 
HETATM   12  C   UNL     1      -7.018   1.273 -34.869  1.00  0.00     0.070 C 
HETATM   13  C   UNL     1      -6.140   2.435 -34.365  1.00  0.00     0.138 C 
HETATM   14  O   UNL     1      -7.078   4.773 -31.824  1.00  0.00    -0.266 OA
ENDROOT
BRANCH   1  15
HETATM   15  C   UNL     1      -4.836   4.194 -32.223  1.00  0.00     0.157 A 
HETATM   16  N   UNL     1      -4.148   3.248 -31.530  1.00  0.00    -0.253 NA
HETATM   17  C   UNL     1      -2.817   3.453 -31.388  1.00  0.00     0.117 A 
HETATM   18  C   UNL     1      -2.143   4.550 -31.901  1.00  0.00     0.022 A 
HETATM   19  C   UNL     1      -2.872   5.514 -32.592  1.00  0.00     0.040 A 
HETATM   20  C   UNL     1      -4.243   5.346 -32.747  1.00  0.00     0.100 A 
BRANCH  20  21
HETATM   21  O   UNL     1      -4.915   6.335 -33.409  1.00  0.00    -0.358 OA
HETATM   22  H   UNL     1      -4.387   6.600 -34.194  1.00  0.00     0.218 HD
ENDBRANCH  20  21
ENDBRANCH   1  15
BRANCH  12  23
HETATM   23  C   UNL     1      -6.509  -0.110 -34.516  1.00  0.00    -0.044 A 
HETATM   24  C   UNL     1      -5.478  -0.238 -33.569  1.00  0.00     0.050 A 
HETATM   25  C   UNL     1      -4.991  -1.498 -33.214  1.00  0.00     0.119 A 
HETATM   26  F   UNL     1      -3.997  -1.580 -32.322  1.00  0.00    -0.206 F 
HETATM   27  C   UNL     1      -5.506  -2.654 -33.775  1.00  0.00     0.084 A 
HETATM   28  C   UNL     1      -6.532  -2.537 -34.699  1.00  0.00     0.119 A 
HETATM   29  F   UNL     1      -7.038  -3.640 -35.264  1.00  0.00    -0.206 F 
HETATM   30  C   UNL     1      -7.037  -1.290 -35.071  1.00  0.00     0.050 A 
ENDBRANCH  12  23
TORSDOF 3
ENDMDL
MODEL 5
REMARK VINA RESULT:      -8.4      2.829      5.893
REMARK  3 active torsions:
REMARK  status: ('A' for Active; 'I' for Inactive)
REMARK    1  A    between atoms: C_4  and  C_5 
REMARK       I    between atoms: C_5  and  N_6 
REMARK    2  A    between atoms: C_16  and  C_17 
REMARK    3  A    between atoms: C_27  and  O_28 
ROOT
HETATM    1  C   UNL     1     -10.411   3.577 -32.819  1.00  0.00     0.275 C 
HETATM    2  N   UNL     1      -9.279   2.946 -32.285  1.00  0.00    -0.339 N 
HETATM    3  C   UNL     1      -8.243   3.762 -31.676  1.00  0.00     0.123 C 
HETATM    4  C   UNL     1      -7.268   2.754 -31.019  1.00  0.00     0.221 C 
HETATM    5  N   UNL     1      -5.844   3.047 -31.498  1.00  0.00    -0.064 N 
HETATM    6  H   UNL     1      -5.192   2.378 -31.066  1.00  0.00     0.280 HD
HETATM    7  C   UNL     1      -5.635   3.013 -33.005  1.00  0.00     0.236 C 
HETATM    8  C   UNL     1      -6.705   3.870 -33.670  1.00  0.00     0.034 C 
HETATM    9  C   UNL     1      -7.455   4.699 -32.618  1.00  0.00     0.014 C 
HETATM   10  C   UNL     1      -6.405   5.447 -31.762  1.00  0.00     0.034 C 
HETATM   11  C   UNL     1      -5.480   4.459 -31.033  1.00  0.00     0.236 C 
HETATM   12  C   UNL     1      -7.865   1.335 -31.236  1.00  0.00     0.070 C 
HETATM   13  C   UNL     1      -9.325   1.647 -31.618  1.00  0.00     0.138 C 
HETATM   14  O   UNL     1     -10.513   4.807 -32.805  1.00  0.00    -0.266 OA
ENDROOT
BRANCH   1  15
HETATM   15  C   UNL     1     -11.537   2.780 -33.409  1.00  0.00     0.157 A 
HETATM   16  N   UNL     1     -11.306   2.163 -34.598  1.00  0.00    -0.253 NA
HETATM   17  C   UNL     1     -12.333   1.451 -35.119  1.00  0.00     0.117 A 
HETATM   18  C   UNL     1     -13.574   1.326 -34.514  1.00  0.00     0.022 A 
HETATM   19  C   UNL     1     -13.792   1.981 -33.306  1.00  0.00     0.040 A 
HETATM   20  C   UNL     1     -12.767   2.733 -32.746  1.00  0.00     0.100 A 
BRANCH  20  21
HETATM   21  O   UNL     1     -13.042   3.379 -31.573  1.00  0.00    -0.358 OA
HETATM   22  H   UNL     1     -13.355   4.287 -31.783  1.00  0.00     0.218 HD
ENDBRANCH  20  21
ENDBRANCH   1  15
BRANCH  12  23
HETATM   23  C   UNL     1      -7.157   0.364 -32.158  1.00  0.00    -0.044 A 
HETATM   24  C   UNL     1      -7.675   0.145 -33.447  1.00  0.00     0.050 A 
HETATM   25  C   UNL     1      -7.044  -0.737 -34.327  1.00  0.00     0.119 A 
HETATM   26  F   UNL     1      -7.575  -0.934 -35.539  1.00  0.00    -0.206 F 
HETATM   27  C   UNL     1      -5.892  -1.416 -33.964  1.00  0.00     0.084 A 
HETATM   28  C   UNL     1      -5.367  -1.194 -32.700  1.00  0.00     0.119 A 
HETATM   29  F   UNL     1      -4.262  -1.847 -32.322  1.00  0.00    -0.206 F 
HETATM   30  C   UNL     1      -5.980  -0.318 -31.803  1.00  0.00     0.050 A 
ENDBRANCH  12  23
TORSDOF 3
ENDMDL
MODEL 6
REMARK VINA RESULT:      -8.3      3.537      5.676
REMARK  3 active torsions:
REMARK  status: ('A' for Active; 'I' for Inactive)
REMARK    1  A    between atoms: C_4  and  C_5 
REMARK       I    between atoms: C_5  and  N_6 
REMARK    2  A    between atoms: C_16  and  C_17 
REMARK    3  A    between atoms: C_27  and  O_28 
ROOT
HETATM    1  C   UNL     1      -5.932   0.590 -32.608  1.00  0.00     0.275 C 
HETATM    2  N   UNL     1      -6.897   1.550 -32.944  1.00  0.00    -0.339 N 
HETATM    3  C   UNL     1      -6.895   2.821 -32.241  1.00  0.00     0.123 C 
HETATM    4  C   UNL     1      -7.928   3.699 -32.989  1.00  0.00     0.221 C 
HETATM    5  N   UNL     1      -8.933   4.263 -31.981  1.00  0.00    -0.064 N 
HETATM    6  H   UNL     1      -9.624   4.845 -32.473  1.00  0.00     0.280 HD
HETATM    7  C   UNL     1      -9.683   3.231 -31.151  1.00  0.00     0.236 C 
HETATM    8  C   UNL     1      -8.678   2.256 -30.550  1.00  0.00     0.034 C 
HETATM    9  C   UNL     1      -7.247   2.783 -30.737  1.00  0.00     0.014 C 
HETATM   10  C   UNL     1      -7.201   4.236 -30.208  1.00  0.00     0.034 C 
HETATM   11  C   UNL     1      -8.159   5.143 -30.997  1.00  0.00     0.236 C 
HETATM   12  C   UNL     1      -8.447   2.865 -34.194  1.00  0.00     0.070 C 
HETATM   13  C   UNL     1      -7.387   1.752 -34.305  1.00  0.00     0.138 C 
HETATM   14  O   UNL     1      -5.116   0.804 -31.707  1.00  0.00    -0.266 OA
ENDROOT
BRANCH   1  15
HETATM   15  C   UNL     1      -5.852  -0.717 -33.340  1.00  0.00     0.157 A 
HETATM   16  N   UNL     1      -7.025  -1.348 -33.617  1.00  0.00    -0.253 NA
HETATM   17  C   UNL     1      -6.935  -2.527 -34.274  1.00  0.00     0.117 A 
HETATM   18  C   UNL     1      -5.738  -3.106 -34.668  1.00  0.00     0.022 A 
HETATM   19  C   UNL     1      -4.550  -2.450 -34.358  1.00  0.00     0.040 A 
HETATM   20  C   UNL     1      -4.600  -1.244 -33.671  1.00  0.00     0.100 A 
BRANCH  20  21
HETATM   21  O   UNL     1      -3.405  -0.655 -33.367  1.00  0.00    -0.358 OA
HETATM   22  H   UNL     1      -3.523  -0.107 -32.560  1.00  0.00     0.218 HD
ENDBRANCH  20  21
ENDBRANCH   1  15
BRANCH  12  23
HETATM   23  C   UNL     1      -9.883   2.381 -34.199  1.00  0.00    -0.044 A 
HETATM   24  C   UNL     1     -10.875   3.193 -34.776  1.00  0.00     0.050 A 
HETATM   25  C   UNL     1     -12.207   2.775 -34.806  1.00  0.00     0.119 A 
HETATM   26  F   UNL     1     -13.128   3.582 -35.347  1.00  0.00    -0.206 F 
HETATM   27  C   UNL     1     -12.592   1.554 -34.276  1.00  0.00     0.084 A 
HETATM   28  C   UNL     1     -11.617   0.742 -33.719  1.00  0.00     0.119 A 
HETATM   29  F   UNL     1     -11.966  -0.437 -33.190  1.00  0.00    -0.206 F 
HETATM   30  C   UNL     1     -10.279   1.137 -33.677  1.00  0.00     0.050 A 
ENDBRANCH  12  23
TORSDOF 3
ENDMDL
MODEL 7
REMARK VINA RESULT:      -8.2      3.041      6.164
REMARK  3 active torsions:
REMARK  status: ('A' for Active; 'I' for Inactive)
REMARK    1  A    between atoms: C_4  and  C_5 
REMARK       I    between atoms: C_5  and  N_6 
REMARK    2  A    between atoms: C_16  and  C_17 
REMARK    3  A    between atoms: C_27  and  O_28 
ROOT
HETATM    1  C   UNL     1      -7.387   1.668 -31.925  1.00  0.00     0.275 C 
HETATM    2  N   UNL     1      -6.372   2.564 -31.562  1.00  0.00    -0.339 N 
HETATM    3  C   UNL     1      -6.616   3.497 -30.475  1.00  0.00     0.123 C 
HETATM    4  C   UNL     1      -5.248   4.173 -30.208  1.00  0.00     0.221 C 
HETATM    5  N   UNL     1      -5.423   5.694 -30.243  1.00  0.00    -0.064 N 
HETATM    6  H   UNL     1      -4.516   6.148 -30.069  1.00  0.00     0.280 HD
HETATM    7  C   UNL     1      -6.001   6.261 -31.531  1.00  0.00     0.236 C 
HETATM    8  C   UNL     1      -7.259   5.480 -31.893  1.00  0.00     0.034 C 
HETATM    9  C   UNL     1      -7.686   4.584 -30.721  1.00  0.00     0.014 C 
HETATM   10  C   UNL     1      -7.760   5.464 -29.450  1.00  0.00     0.034 C 
HETATM   11  C   UNL     1      -6.389   6.075 -29.119  1.00  0.00     0.236 C 
HETATM   12  C   UNL     1      -4.216   3.505 -31.159  1.00  0.00     0.070 C 
HETATM   13  C   UNL     1      -4.952   2.223 -31.596  1.00  0.00     0.138 C 
HETATM   14  O   UNL     1      -8.483   1.693 -31.356  1.00  0.00    -0.266 OA
ENDROOT
BRANCH   1  15
HETATM   15  C   UNL     1      -7.170   0.646 -33.000  1.00  0.00     0.157 A 
HETATM   16  N   UNL     1      -6.348  -0.397 -32.709  1.00  0.00    -0.253 NA
HETATM   17  C   UNL     1      -6.159  -1.310 -33.692  1.00  0.00     0.117 A 
HETATM   18  C   UNL     1      -6.749  -1.233 -34.944  1.00  0.00     0.022 A 
HETATM   19  C   UNL     1      -7.573  -0.146 -35.224  1.00  0.00     0.040 A 
HETATM   20  C   UNL     1      -7.780   0.819 -34.246  1.00  0.00     0.100 A 
BRANCH  20  21
HETATM   21  O   UNL     1      -8.575   1.878 -34.582  1.00  0.00    -0.358 OA
HETATM   22  H   UNL     1      -8.055   2.705 -34.472  1.00  0.00     0.218 HD
ENDBRANCH  20  21
ENDBRANCH   1  15
BRANCH  12  23
HETATM   23  C   UNL     1      -3.617   4.314 -32.292  1.00  0.00    -0.044 A 
HETATM   24  C   UNL     1      -2.441   5.048 -32.058  1.00  0.00     0.050 A 
HETATM   25  C   UNL     1      -1.857   5.798 -33.081  1.00  0.00     0.119 A 
HETATM   26  F   UNL     1      -0.747   6.500 -32.819  1.00  0.00    -0.206 F 
HETATM   27  C   UNL     1      -2.409   5.839 -34.351  1.00  0.00     0.084 A 
HETATM   28  C   UNL     1      -3.560   5.107 -34.592  1.00  0.00     0.119 A 
HETATM   29  F   UNL     1      -4.120   5.140 -35.808  1.00  0.00    -0.206 F 
HETATM   30  C   UNL     1      -4.164   4.349 -33.587  1.00  0.00     0.050 A 
ENDBRANCH  12  23
TORSDOF 3
ENDMDL
MODEL 8
REMARK VINA RESULT:      -8.2      3.074      5.921
REMARK  3 active torsions:
REMARK  status: ('A' for Active; 'I' for Inactive)
REMARK    1  A    between atoms: C_4  and  C_5 
REMARK       I    between atoms: C_5  and  N_6 
REMARK    2  A    between atoms: C_16  and  C_17 
REMARK    3  A    between atoms: C_27  and  O_28 
ROOT
HETATM    1  C   UNL     1      -7.147   1.934 -31.910  1.00  0.00     0.275 C 
HETATM    2  N   UNL     1      -6.115   2.815 -31.554  1.00  0.00    -0.339 N 
HETATM    3  C   UNL     1      -6.326   3.729 -30.445  1.00  0.00     0.123 C 
HETATM    4  C   UNL     1      -4.946   4.387 -30.196  1.00  0.00     0.221 C 
HETATM    5  N   UNL     1      -5.108   5.910 -30.199  1.00  0.00    -0.064 N 
HETATM    6  H   UNL     1      -4.193   6.353 -30.037  1.00  0.00     0.280 HD
HETATM    7  C   UNL     1      -5.711   6.506 -31.463  1.00  0.00     0.236 C 
HETATM    8  C   UNL     1      -6.983   5.744 -31.810  1.00  0.00     0.034 C 
HETATM    9  C   UNL     1      -7.391   4.829 -30.646  1.00  0.00     0.014 C 
HETATM   10  C   UNL     1      -7.429   5.685 -29.357  1.00  0.00     0.034 C 
HETATM   11  C   UNL     1      -6.045   6.278 -29.046  1.00  0.00     0.236 C 
HETATM   12  C   UNL     1      -3.942   3.729 -31.184  1.00  0.00     0.070 C 
HETATM   13  C   UNL     1      -4.700   2.462 -31.627  1.00  0.00     0.138 C 
HETATM   14  O   UNL     1      -8.228   1.958 -31.316  1.00  0.00    -0.266 OA
ENDROOT
BRANCH   1  15
HETATM   15  C   UNL     1      -6.964   0.931 -33.009  1.00  0.00     0.157 A 
HETATM   16  N   UNL     1      -7.329   1.309 -34.264  1.00  0.00    -0.253 NA
HETATM   17  C   UNL     1      -7.162   0.390 -35.244  1.00  0.00     0.117 A 
HETATM   18  C   UNL     1      -6.650  -0.881 -35.035  1.00  0.00     0.022 A 
HETATM   19  C   UNL     1      -6.300  -1.251 -33.740  1.00  0.00     0.040 A 
HETATM   20  C   UNL     1      -6.471  -0.341 -32.704  1.00  0.00     0.100 A 
BRANCH  20  21
HETATM   21  O   UNL     1      -6.137  -0.764 -31.448  1.00  0.00    -0.358 OA
HETATM   22  H   UNL     1      -5.377  -0.229 -31.130  1.00  0.00     0.218 HD
ENDBRANCH  20  21
ENDBRANCH   1  15
BRANCH  12  23
HETATM   23  C   UNL     1      -3.362   4.554 -32.315  1.00  0.00    -0.044 A 
HETATM   24  C   UNL     1      -3.958   4.485 -33.586  1.00  0.00     0.050 A 
HETATM   25  C   UNL     1      -3.455   5.238 -34.649  1.00  0.00     0.119 A 
HETATM   26  F   UNL     1      -4.037   5.134 -35.850  1.00  0.00    -0.206 F 
HETATM   27  C   UNL     1      -2.364   6.076 -34.486  1.00  0.00     0.084 A 
HETATM   28  C   UNL     1      -1.780   6.160 -33.232  1.00  0.00     0.119 A 
HETATM   29  F   UNL     1      -0.717   6.953 -33.052  1.00  0.00    -0.206 F 
HETATM   30  C   UNL     1      -2.264   5.417 -32.153  1.00  0.00     0.050 A 
ENDBRANCH  12  23
TORSDOF 3
ENDMDL
MODEL 9
REMARK VINA RESULT:      -8.1     16.112     17.459
REMARK  3 active torsions:
REMARK  status: ('A' for Active; 'I' for Inactive)
REMARK    1  A    between atoms: C_4  and  C_5 
REMARK       I    between atoms: C_5  and  N_6 
REMARK    2  A    between atoms: C_16  and  C_17 
REMARK    3  A    between atoms: C_27  and  O_28 
ROOT
HETATM    1  C   UNL     1      -4.294 -13.875 -40.025  1.00  0.00     0.275 C 
HETATM    2  N   UNL     1      -5.243 -14.428 -39.155  1.00  0.00    -0.339 N 
HETATM    3  C   UNL     1      -6.615 -14.568 -39.611  1.00  0.00     0.123 C 
HETATM    4  C   UNL     1      -7.327 -15.387 -38.507  1.00  0.00     0.221 C 
HETATM    5  N   UNL     1      -8.588 -14.642 -38.062  1.00  0.00    -0.064 N 
HETATM    6  H   UNL     1      -9.064 -15.181 -37.326  1.00  0.00     0.280 HD
HETATM    7  C   UNL     1      -8.371 -13.225 -37.551  1.00  0.00     0.236 C 
HETATM    8  C   UNL     1      -7.519 -12.463 -38.559  1.00  0.00     0.034 C 
HETATM    9  C   UNL     1      -7.398 -13.260 -39.866  1.00  0.00     0.014 C 
HETATM   10  C   UNL     1      -8.824 -13.650 -40.321  1.00  0.00     0.034 C 
HETATM   11  C   UNL     1      -9.517 -14.537 -39.274  1.00  0.00     0.236 C 
HETATM   12  C   UNL     1      -6.251 -15.758 -37.449  1.00  0.00     0.070 C 
HETATM   13  C   UNL     1      -4.937 -15.501 -38.211  1.00  0.00     0.138 C 
HETATM   14  O   UNL     1      -4.622 -13.479 -41.147  1.00  0.00    -0.266 OA
ENDROOT
BRANCH   1  15
HETATM   15  C   UNL     1      -2.852 -13.760 -39.628  1.00  0.00     0.157 A 
HETATM   16  N   UNL     1      -1.967 -14.582 -40.253  1.00  0.00    -0.253 NA
HETATM   17  C   UNL     1      -0.671 -14.468 -39.880  1.00  0.00     0.117 A 
HETATM   18  C   UNL     1      -0.216 -13.579 -38.919  1.00  0.00     0.022 A 
HETATM   19  C   UNL     1      -1.143 -12.760 -38.281  1.00  0.00     0.040 A 
HETATM   20  C   UNL     1      -2.485 -12.857 -38.625  1.00  0.00     0.100 A 
BRANCH  20  21
HETATM   21  O   UNL     1      -3.357 -12.050 -37.949  1.00  0.00    -0.358 OA
HETATM   22  H   UNL     1      -4.158 -11.924 -38.504  1.00  0.00     0.218 HD
ENDBRANCH  20  21
ENDBRANCH   1  15
BRANCH  12  23
HETATM   23  C   UNL     1      -6.320 -15.136 -36.069  1.00  0.00    -0.044 A 
HETATM   24  C   UNL     1      -7.140 -15.729 -35.093  1.00  0.00     0.050 A 
HETATM   25  C   UNL     1      -7.221 -15.187 -33.808  1.00  0.00     0.119 A 
HETATM   26  F   UNL     1      -8.025 -15.767 -32.909  1.00  0.00    -0.206 F 
HETATM   27  C   UNL     1      -6.499 -14.059 -33.454  1.00  0.00     0.084 A 
HETATM   28  C   UNL     1      -5.677 -13.478 -34.407  1.00  0.00     0.119 A 
HETATM   29  F   UNL     1      -4.979 -12.380 -34.092  1.00  0.00    -0.206 F 
HETATM   30  C   UNL     1      -5.579 -14.000 -35.698  1.00  0.00     0.050 A 
ENDBRANCH  12  23
TORSDOF 3
ENDMDL
MODEL 10
REMARK VINA RESULT:      -8.1     16.144     17.554
REMARK  3 active torsions:
REMARK  status: ('A' for Active; 'I' for Inactive)
REMARK    1  A    between atoms: C_4  and  C_5 
REMARK       I    between atoms: C_5  and  N_6 
REMARK    2  A    between atoms: C_16  and  C_17 
REMARK    3  A    between atoms: C_27  and  O_28 
ROOT
HETATM    1  C   UNL     1      -4.197 -13.988 -39.943  1.00  0.00     0.275 C 
HETATM    2  N   UNL     1      -5.165 -14.532 -39.089  1.00  0.00    -0.339 N 
HETATM    3  C   UNL     1      -6.528 -14.670 -39.571  1.00  0.00     0.123 C 
HETATM    4  C   UNL     1      -7.265 -15.479 -38.476  1.00  0.00     0.221 C 
HETATM    5  N   UNL     1      -8.533 -14.727 -38.061  1.00  0.00    -0.064 N 
HETATM    6  H   UNL     1      -9.025 -15.259 -37.331  1.00  0.00     0.280 HD
HETATM    7  C   UNL     1      -8.320 -13.307 -37.556  1.00  0.00     0.236 C 
HETATM    8  C   UNL     1      -7.446 -12.555 -38.552  1.00  0.00     0.034 C 
HETATM    9  C   UNL     1      -7.301 -13.362 -39.851  1.00  0.00     0.014 C 
HETATM   10  C   UNL     1      -8.720 -13.750 -40.332  1.00  0.00     0.034 C 
HETATM   11  C   UNL     1      -9.436 -14.627 -39.292  1.00  0.00     0.236 C 
HETATM   12  C   UNL     1      -6.211 -15.846 -37.393  1.00  0.00     0.070 C 
HETATM   13  C   UNL     1      -4.882 -15.598 -38.131  1.00  0.00     0.138 C 
HETATM   14  O   UNL     1      -4.501 -13.600 -41.075  1.00  0.00    -0.266 OA
ENDROOT
BRANCH   1  15
HETATM   15  C   UNL     1      -2.763 -13.875 -39.518  1.00  0.00     0.157 A 
HETATM   16  N   UNL     1      -1.886 -14.771 -40.044  1.00  0.00    -0.253 NA
HETATM   17  C   UNL     1      -0.596 -14.658 -39.647  1.00  0.00     0.117 A 
HETATM   18  C   UNL     1      -0.142 -13.699 -38.755  1.00  0.00     0.022 A 
HETATM   19  C   UNL     1      -1.061 -12.804 -38.217  1.00  0.00     0.040 A 
HETATM   20  C   UNL     1      -2.397 -12.897 -38.589  1.00  0.00     0.100 A 
BRANCH  20  21
HETATM   21  O   UNL     1      -3.263 -12.012 -38.010  1.00  0.00    -0.358 OA
HETATM   22  H   UNL     1      -3.941 -11.759 -38.675  1.00  0.00     0.218 HD
ENDBRANCH  20  21
ENDBRANCH   1  15
BRANCH  12  23
HETATM   23  C   UNL     1      -6.306 -15.213 -36.019  1.00  0.00    -0.044 A 
HETATM   24  C   UNL     1      -5.529 -14.076 -35.736  1.00  0.00     0.050 A 
HETATM   25  C   UNL     1      -5.598 -13.463 -34.483  1.00  0.00     0.119 A 
HETATM   26  F   UNL     1      -4.831 -12.392 -34.243  1.00  0.00    -0.206 F 
HETATM   27  C   UNL     1      -6.431 -13.947 -33.488  1.00  0.00     0.084 A 
HETATM   28  C   UNL     1      -7.211 -15.058 -33.765  1.00  0.00     0.119 A 
HETATM   29  F   UNL     1      -8.015 -15.552 -32.816  1.00  0.00    -0.206 F 
HETATM   30  C   UNL     1      -7.160 -15.690 -35.009  1.00  0.00     0.050 A 
ENDBRANCH  12  23
TORSDOF 3
ENDMDL
