MODEL 1
REMARK VINA RESULT:      -8.0      0.000      0.000
REMARK  6 active torsions:
REMARK  status: ('A' for Active; 'I' for Inactive)
REMARK    1  A    between atoms: N_2  and  C_4 
REMARK    2  A    between atoms: C_4  and  C_5 
REMARK    3  A    between atoms: C_5  and  N_6 
REMARK    4  A    between atoms: C_5  and  C_21 
REMARK       I    between atoms: N_6  and  C_7 
REMARK       I    between atoms: C_7  and  N_8 
REMARK    5  A    between atoms: N_8  and  C_9 
REMARK    6  A    between atoms: C_12  and  C_13 
ROOT
HETATM    1  N   UNL     1      -6.791   1.041 -32.361  1.00  0.00    -0.333 N 
HETATM    2  C   UNL     1      -6.656   0.694 -31.048  1.00  0.00     0.322 C 
HETATM    3  N   UNL     1      -5.912   1.503 -30.252  1.00  0.00    -0.287 N 
HETATM    4  O   UNL     1      -7.204  -0.305 -30.588  1.00  0.00    -0.247 OA
HETATM    5  H   UNL     1      -6.047   1.650 -32.695  1.00  0.00     0.165 HD
HETATM    6  H   UNL     1      -5.763   1.192 -29.302  1.00  0.00     0.172 HD
ENDROOT
BRANCH   1   7
HETATM    7  C   UNL     1      -7.392   0.119 -33.315  1.00  0.00     0.145 C 
BRANCH   7   8
HETATM    8  C   UNL     1      -7.991   0.821 -34.578  1.00  0.00     0.263 C 
BRANCH   8   9
HETATM    9  N   UNL     1      -9.470   1.212 -34.437  1.00  0.00    -0.076 N 
HETATM   10  C   UNL     1      -9.689   2.693 -34.308  1.00  0.00     0.269 C 
HETATM   11  H   UNL     1      -9.946   0.905 -35.296  1.00  0.00     0.279 HD
HETATM   12  C   UNL     1     -10.115   0.468 -33.301  1.00  0.00     0.269 C 
ENDBRANCH   8   9
ENDBRANCH   7   8
BRANCH   7  13
HETATM   13  C   UNL     1      -6.443  -0.999 -33.728  1.00  0.00    -0.034 A 
HETATM   14  C   UNL     1      -5.062  -0.954 -33.475  1.00  0.00     0.009 A 
HETATM   15  C   UNL     1      -4.222  -1.981 -33.907  1.00  0.00     0.001 A 
HETATM   16  C   UNL     1      -4.746  -3.066 -34.604  1.00  0.00     0.000 A 
HETATM   17  C   UNL     1      -6.113  -3.129 -34.865  1.00  0.00     0.001 A 
HETATM   18  C   UNL     1      -6.956  -2.106 -34.429  1.00  0.00     0.009 A 
ENDBRANCH   7  13
ENDBRANCH   1   7
BRANCH   3  19
HETATM   19  C   UNL     1      -5.378   2.707 -30.611  1.00  0.00     0.175 A 
HETATM   20  S   UNL     1      -5.948   4.043 -29.727  1.00  0.00    -0.061 SA
HETATM   21  C   UNL     1      -4.932   5.065 -30.663  1.00  0.00     0.086 A 
HETATM   22  C   UNL     1      -4.242   4.313 -31.597  1.00  0.00     0.078 A 
HETATM   23  N   UNL     1      -4.499   2.946 -31.553  1.00  0.00    -0.223 NA
BRANCH  22  24
HETATM   24  C   UNL     1      -3.342   4.868 -32.593  1.00  0.00     0.011 A 
HETATM   25  C   UNL     1      -3.864   5.531 -33.700  1.00  0.00     0.130 A 
HETATM   26  N   UNL     1      -3.126   6.079 -34.694  1.00  0.00    -0.272 NA
HETATM   27  C   UNL     1      -1.785   5.970 -34.573  1.00  0.00     0.116 A 
HETATM   28  C   UNL     1      -1.160   5.334 -33.510  1.00  0.00     0.020 A 
HETATM   29  C   UNL     1      -1.952   4.773 -32.508  1.00  0.00     0.017 A 
ENDBRANCH  22  24
ENDBRANCH   3  19
TORSDOF 6
ENDMDL
MODEL 2
REMARK VINA RESULT:      -7.8      3.498      6.580
REMARK  6 active torsions:
REMARK  status: ('A' for Active; 'I' for Inactive)
REMARK    1  A    between atoms: N_2  and  C_4 
REMARK    2  A    between atoms: C_4  and  C_5 
REMARK    3  A    between atoms: C_5  and  N_6 
REMARK    4  A    between atoms: C_5  and  C_21 
REMARK       I    between atoms: N_6  and  C_7 
REMARK       I    between atoms: C_7  and  N_8 
REMARK    5  A    between atoms: N_8  and  C_9 
REMARK    6  A    between atoms: C_12  and  C_13 
ROOT
HETATM    1  N   UNL     1      -9.765   2.745 -32.698  1.00  0.00    -0.333 N 
HETATM    2  C   UNL     1      -9.583   2.766 -31.346  1.00  0.00     0.322 C 
HETATM    3  N   UNL     1      -8.511   2.104 -30.840  1.00  0.00    -0.287 N 
HETATM    4  O   UNL     1     -10.348   3.379 -30.605  1.00  0.00    -0.247 OA
HETATM    5  H   UNL     1      -9.307   1.957 -33.153  1.00  0.00     0.165 HD
HETATM    6  H   UNL     1      -8.435   2.069 -29.833  1.00  0.00     0.172 HD
ENDROOT
BRANCH   1   7
HETATM    7  C   UNL     1     -10.997   3.248 -33.291  1.00  0.00     0.145 C 
BRANCH   7   8
HETATM    8  C   UNL     1     -10.799   3.899 -34.699  1.00  0.00     0.263 C 
BRANCH   8   9
HETATM    9  N   UNL     1     -11.459   5.277 -34.851  1.00  0.00    -0.076 N 
HETATM   10  C   UNL     1     -11.650   5.998 -33.545  1.00  0.00     0.269 C 
HETATM   11  H   UNL     1     -10.829   5.852 -35.428  1.00  0.00     0.279 HD
HETATM   12  C   UNL     1     -12.754   5.172 -35.606  1.00  0.00     0.269 C 
ENDBRANCH   8   9
ENDBRANCH   7   8
BRANCH   7  13
HETATM   13  C   UNL     1     -12.096   2.194 -33.342  1.00  0.00    -0.034 A 
HETATM   14  C   UNL     1     -11.853   0.862 -33.714  1.00  0.00     0.009 A 
HETATM   15  C   UNL     1     -12.896  -0.063 -33.787  1.00  0.00     0.001 A 
HETATM   16  C   UNL     1     -14.199   0.331 -33.496  1.00  0.00     0.000 A 
HETATM   17  C   UNL     1     -14.461   1.647 -33.126  1.00  0.00     0.001 A 
HETATM   18  C   UNL     1     -13.418   2.572 -33.047  1.00  0.00     0.009 A 
ENDBRANCH   7  13
ENDBRANCH   1   7
BRANCH   3  19
HETATM   19  C   UNL     1      -7.520   1.513 -31.568  1.00  0.00     0.175 A 
HETATM   20  S   UNL     1      -6.152   2.484 -31.848  1.00  0.00    -0.061 SA
HETATM   21  C   UNL     1      -5.444   1.190 -32.730  1.00  0.00     0.086 A 
HETATM   22  C   UNL     1      -6.313   0.113 -32.761  1.00  0.00     0.078 A 
HETATM   23  N   UNL     1      -7.509   0.306 -32.078  1.00  0.00    -0.223 NA
BRANCH  22  24
HETATM   24  C   UNL     1      -6.056  -1.125 -33.476  1.00  0.00     0.011 A 
HETATM   25  C   UNL     1      -4.750  -1.589 -33.604  1.00  0.00     0.130 A 
HETATM   26  N   UNL     1      -4.390  -2.721 -34.255  1.00  0.00    -0.272 NA
HETATM   27  C   UNL     1      -5.394  -3.440 -34.802  1.00  0.00     0.116 A 
HETATM   28  C   UNL     1      -6.729  -3.072 -34.732  1.00  0.00     0.020 A 
HETATM   29  C   UNL     1      -7.063  -1.894 -34.061  1.00  0.00     0.017 A 
ENDBRANCH  22  24
ENDBRANCH   3  19
TORSDOF 6
ENDMDL
MODEL 3
REMARK VINA RESULT:      -7.7      2.622      7.397
REMARK  6 active torsions:
REMARK  status: ('A' for Active; 'I' for Inactive)
REMARK    1  A    between atoms: N_2  and  C_4 
REMARK    2  A    between atoms: C_4  and  C_5 
REMARK    3  A    between atoms: C_5  and  N_6 
REMARK    4  A    between atoms: C_5  and  C_21 
REMARK       I    between atoms: N_6  and  C_7 
REMARK       I    between atoms: C_7  and  N_8 
REMARK    5  A    between atoms: N_8  and  C_9 
REMARK    6  A    between atoms: C_12  and  C_13 
ROOT
HETATM    1  N   UNL     1      -4.117   3.771 -32.688  1.00  0.00    -0.333 N 
HETATM    2  C   UNL     1      -3.094   3.417 -31.858  1.00  0.00     0.322 C 
HETATM    3  N   UNL     1      -3.144   2.191 -31.278  1.00  0.00    -0.287 N 
HETATM    4  O   UNL     1      -2.143   4.168 -31.656  1.00  0.00    -0.247 OA
HETATM    5  H   UNL     1      -4.975   3.252 -32.512  1.00  0.00     0.165 HD
HETATM    6  H   UNL     1      -2.416   1.976 -30.610  1.00  0.00     0.172 HD
ENDROOT
BRANCH   1   7
HETATM    7  C   UNL     1      -4.239   5.138 -33.177  1.00  0.00     0.145 C 
BRANCH   7   8
HETATM    8  C   UNL     1      -3.751   5.327 -34.651  1.00  0.00     0.263 C 
BRANCH   8   9
HETATM    9  N   UNL     1      -2.445   6.124 -34.781  1.00  0.00    -0.076 N 
HETATM   10  C   UNL     1      -1.227   5.258 -34.943  1.00  0.00     0.269 C 
HETATM   11  H   UNL     1      -2.526   6.700 -35.630  1.00  0.00     0.279 HD
HETATM   12  C   UNL     1      -2.282   7.078 -33.631  1.00  0.00     0.269 C 
ENDBRANCH   8   9
ENDBRANCH   7   8
BRANCH   7  13
HETATM   13  C   UNL     1      -5.646   5.698 -33.007  1.00  0.00    -0.034 A 
HETATM   14  C   UNL     1      -5.925   6.817 -32.205  1.00  0.00     0.009 A 
HETATM   15  C   UNL     1      -7.235   7.273 -32.044  1.00  0.00     0.001 A 
HETATM   16  C   UNL     1      -8.286   6.615 -32.676  1.00  0.00     0.000 A 
HETATM   17  C   UNL     1      -8.029   5.503 -33.475  1.00  0.00     0.001 A 
HETATM   18  C   UNL     1      -6.721   5.049 -33.642  1.00  0.00     0.009 A 
ENDBRANCH   7  13
ENDBRANCH   1   7
BRANCH   3  19
HETATM   19  C   UNL     1      -4.067   1.220 -31.536  1.00  0.00     0.175 A 
HETATM   20  S   UNL     1      -5.337   1.113 -30.410  1.00  0.00    -0.061 SA
HETATM   21  C   UNL     1      -5.996  -0.191 -31.315  1.00  0.00     0.086 A 
HETATM   22  C   UNL     1      -5.188  -0.462 -32.405  1.00  0.00     0.078 A 
HETATM   23  N   UNL     1      -4.077   0.366 -32.530  1.00  0.00    -0.223 NA
BRANCH  22  24
HETATM   24  C   UNL     1      -5.418  -1.545 -33.346  1.00  0.00     0.011 A 
HETATM   25  C   UNL     1      -4.357  -2.358 -33.733  1.00  0.00     0.130 A 
HETATM   26  N   UNL     1      -4.449  -3.387 -34.608  1.00  0.00    -0.272 NA
HETATM   27  C   UNL     1      -5.676  -3.628 -35.120  1.00  0.00     0.116 A 
HETATM   28  C   UNL     1      -6.801  -2.883 -34.800  1.00  0.00     0.020 A 
HETATM   29  C   UNL     1      -6.667  -1.824 -33.902  1.00  0.00     0.017 A 
ENDBRANCH  22  24
ENDBRANCH   3  19
TORSDOF 6
ENDMDL
MODEL 4
REMARK VINA RESULT:      -7.7      2.950      7.107
REMARK  6 active torsions:
REMARK  status: ('A' for Active; 'I' for Inactive)
REMARK    1  A    between atoms: N_2  and  C_4 
REMARK    2  A    between atoms: C_4  and  C_5 
REMARK    3  A    between atoms: C_5  and  N_6 
REMARK    4  A    between atoms: C_5  and  C_21 
REMARK       I    between atoms: N_6  and  C_7 
REMARK       I    between atoms: C_7  and  N_8 
REMARK    5  A    between atoms: N_8  and  C_9 
REMARK    6  A    between atoms: C_12  and  C_13 
ROOT
HETATM    1  N   UNL     1      -7.125   3.169 -33.149  1.00  0.00    -0.333 N 
HETATM    2  C   UNL     1      -7.155   4.345 -33.839  1.00  0.00     0.322 C 
HETATM    3  N   UNL     1      -8.364   4.921 -34.058  1.00  0.00    -0.287 N 
HETATM    4  O   UNL     1      -6.124   4.884 -34.235  1.00  0.00    -0.247 OA
HETATM    5  H   UNL     1      -8.006   2.661 -33.181  1.00  0.00     0.165 HD
HETATM    6  H   UNL     1      -8.373   5.752 -34.634  1.00  0.00     0.172 HD
ENDROOT
BRANCH   1   7
HETATM    7  C   UNL     1      -5.897   2.390 -33.060  1.00  0.00     0.145 C 
BRANCH   7   8
HETATM    8  C   UNL     1      -5.279   2.349 -31.623  1.00  0.00     0.263 C 
BRANCH   8   9
HETATM    9  N   UNL     1      -4.134   3.349 -31.405  1.00  0.00    -0.076 N 
HETATM   10  C   UNL     1      -4.602   4.716 -30.991  1.00  0.00     0.269 C 
HETATM   11  H   UNL     1      -3.553   2.980 -30.639  1.00  0.00     0.279 HD
HETATM   12  C   UNL     1      -3.248   3.424 -32.616  1.00  0.00     0.269 C 
ENDBRANCH   8   9
ENDBRANCH   7   8
BRANCH   7  13
HETATM   13  C   UNL     1      -6.056   0.978 -33.610  1.00  0.00    -0.034 A 
HETATM   14  C   UNL     1      -5.204  -0.078 -33.248  1.00  0.00     0.009 A 
HETATM   15  C   UNL     1      -5.359  -1.347 -33.808  1.00  0.00     0.001 A 
HETATM   16  C   UNL     1      -6.365  -1.580 -34.742  1.00  0.00     0.000 A 
HETATM   17  C   UNL     1      -7.220  -0.545 -35.114  1.00  0.00     0.001 A 
HETATM   18  C   UNL     1      -7.069   0.723 -34.552  1.00  0.00     0.009 A 
ENDBRANCH   7  13
ENDBRANCH   1   7
BRANCH   3  19
HETATM   19  C   UNL     1      -9.557   4.497 -33.547  1.00  0.00     0.175 A 
HETATM   20  S   UNL     1     -10.137   5.394 -32.224  1.00  0.00    -0.061 SA
HETATM   21  C   UNL     1     -11.508   4.360 -32.155  1.00  0.00     0.086 A 
HETATM   22  C   UNL     1     -11.415   3.391 -33.138  1.00  0.00     0.078 A 
HETATM   23  N   UNL     1     -10.286   3.483 -33.946  1.00  0.00    -0.223 NA
BRANCH  22  24
HETATM   24  C   UNL     1     -12.375   2.317 -33.322  1.00  0.00     0.011 A 
HETATM   25  C   UNL     1     -13.730   2.560 -33.112  1.00  0.00     0.130 A 
HETATM   26  N   UNL     1     -14.711   1.636 -33.243  1.00  0.00    -0.272 NA
HETATM   27  C   UNL     1     -14.321   0.398 -33.617  1.00  0.00     0.116 A 
HETATM   28  C   UNL     1     -13.000   0.049 -33.854  1.00  0.00     0.020 A 
HETATM   29  C   UNL     1     -12.013   1.024 -33.702  1.00  0.00     0.017 A 
ENDBRANCH  22  24
ENDBRANCH   3  19
TORSDOF 6
ENDMDL
MODEL 5
REMARK VINA RESULT:      -7.4      3.276      6.149
REMARK  6 active torsions:
REMARK  status: ('A' for Active; 'I' for Inactive)
REMARK    1  A    between atoms: N_2  and  C_4 
REMARK    2  A    between atoms: C_4  and  C_5 
REMARK    3  A    between atoms: C_5  and  N_6 
REMARK    4  A    between atoms: C_5  and  C_21 
REMARK       I    between atoms: N_6  and  C_7 
REMARK       I    between atoms: C_7  and  N_8 
REMARK    5  A    between atoms: N_8  and  C_9 
REMARK    6  A    between atoms: C_12  and  C_13 
ROOT
HETATM    1  N   UNL     1      -7.639   2.732 -31.385  1.00  0.00    -0.333 N 
HETATM    2  C   UNL     1      -7.031   2.785 -30.164  1.00  0.00     0.322 C 
HETATM    3  N   UNL     1      -5.961   1.977 -29.954  1.00  0.00    -0.287 N 
HETATM    4  O   UNL     1      -7.420   3.552 -29.287  1.00  0.00    -0.247 OA
HETATM    5  H   UNL     1      -7.471   1.859 -31.880  1.00  0.00     0.165 HD
HETATM    6  H   UNL     1      -5.571   1.977 -29.021  1.00  0.00     0.172 HD
ENDROOT
BRANCH   1   7
HETATM    7  C   UNL     1      -8.910   3.407 -31.613  1.00  0.00     0.145 C 
BRANCH   7   8
HETATM    8  C   UNL     1      -8.773   4.773 -32.363  1.00  0.00     0.263 C 
BRANCH   8   9
HETATM    9  N   UNL     1      -8.973   6.003 -31.466  1.00  0.00    -0.076 N 
HETATM   10  C   UNL     1      -7.688   6.578 -30.942  1.00  0.00     0.269 C 
HETATM   11  H   UNL     1      -9.420   6.728 -32.044  1.00  0.00     0.279 HD
HETATM   12  C   UNL     1      -9.928   5.701 -30.346  1.00  0.00     0.269 C 
ENDBRANCH   8   9
ENDBRANCH   7   8
BRANCH   7  13
HETATM   13  C   UNL     1      -9.930   2.516 -32.311  1.00  0.00    -0.034 A 
HETATM   14  C   UNL     1      -9.693   1.158 -32.580  1.00  0.00     0.009 A 
HETATM   15  C   UNL     1     -10.638   0.388 -33.259  1.00  0.00     0.001 A 
HETATM   16  C   UNL     1     -11.832   0.963 -33.686  1.00  0.00     0.000 A 
HETATM   17  C   UNL     1     -12.085   2.308 -33.430  1.00  0.00     0.001 A 
HETATM   18  C   UNL     1     -11.144   3.079 -32.746  1.00  0.00     0.009 A 
ENDBRANCH   7  13
ENDBRANCH   1   7
BRANCH   3  19
HETATM   19  C   UNL     1      -5.353   1.194 -30.891  1.00  0.00     0.175 A 
HETATM   20  S   UNL     1      -3.749   1.625 -31.260  1.00  0.00    -0.061 SA
HETATM   21  C   UNL     1      -3.688   0.331 -32.390  1.00  0.00     0.086 A 
HETATM   22  C   UNL     1      -4.905  -0.327 -32.416  1.00  0.00     0.078 A 
HETATM   23  N   UNL     1      -5.861   0.175 -31.538  1.00  0.00    -0.223 NA
BRANCH  22  24
HETATM   24  C   UNL     1      -5.220  -1.432 -33.306  1.00  0.00     0.011 A 
HETATM   25  C   UNL     1      -4.221  -2.329 -33.670  1.00  0.00     0.130 A 
HETATM   26  N   UNL     1      -4.394  -3.387 -34.498  1.00  0.00    -0.272 NA
HETATM   27  C   UNL     1      -5.641  -3.568 -34.983  1.00  0.00     0.116 A 
HETATM   28  C   UNL     1      -6.710  -2.737 -34.683  1.00  0.00     0.020 A 
HETATM   29  C   UNL     1      -6.493  -1.651 -33.833  1.00  0.00     0.017 A 
ENDBRANCH  22  24
ENDBRANCH   3  19
TORSDOF 6
ENDMDL
MODEL 6
REMARK VINA RESULT:      -7.4      2.433      6.896
REMARK  6 active torsions:
REMARK  status: ('A' for Active; 'I' for Inactive)
REMARK    1  A    between atoms: N_2  and  C_4 
REMARK    2  A    between atoms: C_4  and  C_5 
REMARK    3  A    between atoms: C_5  and  N_6 
REMARK    4  A    between atoms: C_5  and  C_21 
REMARK       I    between atoms: N_6  and  C_7 
REMARK       I    between atoms: C_7  and  N_8 
REMARK    5  A    between atoms: N_8  and  C_9 
REMARK    6  A    between atoms: C_12  and  C_13 
ROOT
HETATM    1  N   UNL     1      -6.485   4.009 -32.554  1.00  0.00    -0.333 N 
HETATM    2  C   UNL     1      -7.576   4.464 -33.236  1.00  0.00     0.322 C 
HETATM    3  N   UNL     1      -8.372   3.547 -33.842  1.00  0.00    -0.287 N 
HETATM    4  O   UNL     1      -7.847   5.661 -33.287  1.00  0.00    -0.247 OA
HETATM    5  H   UNL     1      -6.174   3.089 -32.860  1.00  0.00     0.165 HD
HETATM    6  H   UNL     1      -9.132   3.907 -34.403  1.00  0.00     0.172 HD
ENDROOT
BRANCH   1   7
HETATM    7  C   UNL     1      -5.476   4.937 -32.061  1.00  0.00     0.145 C 
BRANCH   7   8
HETATM    8  C   UNL     1      -5.060   4.685 -30.575  1.00  0.00     0.263 C 
BRANCH   8   9
HETATM    9  N   UNL     1      -5.810   5.556 -29.557  1.00  0.00    -0.076 N 
HETATM   10  C   UNL     1      -7.056   4.911 -29.018  1.00  0.00     0.269 C 
HETATM   11  H   UNL     1      -5.174   5.706 -28.761  1.00  0.00     0.279 HD
HETATM   12  C   UNL     1      -6.106   6.914 -30.129  1.00  0.00     0.269 C 
ENDBRANCH   8   9
ENDBRANCH   7   8
BRANCH   7  13
HETATM   13  C   UNL     1      -4.244   4.993 -32.956  1.00  0.00    -0.034 A 
HETATM   14  C   UNL     1      -4.318   5.269 -34.331  1.00  0.00     0.009 A 
HETATM   15  C   UNL     1      -3.169   5.271 -35.123  1.00  0.00     0.001 A 
HETATM   16  C   UNL     1      -1.929   4.991 -34.556  1.00  0.00     0.000 A 
HETATM   17  C   UNL     1      -1.836   4.714 -33.194  1.00  0.00     0.001 A 
HETATM   18  C   UNL     1      -2.983   4.717 -32.399  1.00  0.00     0.009 A 
ENDBRANCH   7  13
ENDBRANCH   1   7
BRANCH   3  19
HETATM   19  C   UNL     1      -8.256   2.191 -33.736  1.00  0.00     0.175 A 
HETATM   20  S   UNL     1      -9.598   1.402 -33.053  1.00  0.00    -0.061 SA
HETATM   21  C   UNL     1      -8.777  -0.097 -33.232  1.00  0.00     0.086 A 
HETATM   22  C   UNL     1      -7.527   0.115 -33.786  1.00  0.00     0.078 A 
HETATM   23  N   UNL     1      -7.237   1.444 -34.083  1.00  0.00    -0.223 NA
BRANCH  22  24
HETATM   24  C   UNL     1      -6.545  -0.930 -34.016  1.00  0.00     0.011 A 
HETATM   25  C   UNL     1      -5.221  -0.726 -33.639  1.00  0.00     0.130 A 
HETATM   26  N   UNL     1      -4.220  -1.621 -33.813  1.00  0.00    -0.272 NA
HETATM   27  C   UNL     1      -4.561  -2.796 -34.386  1.00  0.00     0.116 A 
HETATM   28  C   UNL     1      -5.849  -3.103 -34.796  1.00  0.00     0.020 A 
HETATM   29  C   UNL     1      -6.855  -2.154 -34.610  1.00  0.00     0.017 A 
ENDBRANCH  22  24
ENDBRANCH   3  19
TORSDOF 6
ENDMDL
MODEL 7
REMARK VINA RESULT:      -7.4     15.801     18.317
REMARK  6 active torsions:
REMARK  status: ('A' for Active; 'I' for Inactive)
REMARK    1  A    between atoms: N_2  and  C_4 
REMARK    2  A    between atoms: C_4  and  C_5 
REMARK    3  A    between atoms: C_5  and  N_6 
REMARK    4  A    between atoms: C_5  and  C_21 
REMARK       I    between atoms: N_6  and  C_7 
REMARK       I    between atoms: C_7  and  N_8 
REMARK    5  A    between atoms: N_8  and  C_9 
REMARK    6  A    between atoms: C_12  and  C_13 
ROOT
HETATM    1  N   UNL     1      -3.526 -13.852 -39.132  1.00  0.00    -0.333 N 
HETATM    2  C   UNL     1      -3.288 -12.849 -38.238  1.00  0.00     0.322 C 
HETATM    3  N   UNL     1      -4.344 -12.356 -37.543  1.00  0.00    -0.287 N 
HETATM    4  O   UNL     1      -2.154 -12.417 -38.046  1.00  0.00    -0.247 OA
HETATM    5  H   UNL     1      -4.492 -13.883 -39.453  1.00  0.00     0.165 HD
HETATM    6  H   UNL     1      -4.160 -11.565 -36.941  1.00  0.00     0.172 HD
ENDROOT
BRANCH   1   7
HETATM    7  C   UNL     1      -2.489 -14.284 -40.059  1.00  0.00     0.145 C 
BRANCH   7   8
HETATM    8  C   UNL     1      -1.578 -15.426 -39.499  1.00  0.00     0.263 C 
BRANCH   8   9
HETATM    9  N   UNL     1      -0.364 -14.926 -38.702  1.00  0.00    -0.076 N 
HETATM   10  C   UNL     1       0.908 -14.898 -39.502  1.00  0.00     0.269 C 
HETATM   11  H   UNL     1      -0.568 -13.958 -38.417  1.00  0.00     0.279 HD
HETATM   12  C   UNL     1      -0.191 -15.717 -37.436  1.00  0.00     0.269 C 
ENDBRANCH   8   9
ENDBRANCH   7   8
BRANCH   7  13
HETATM   13  C   UNL     1      -3.045 -14.669 -41.424  1.00  0.00    -0.034 A 
HETATM   14  C   UNL     1      -2.396 -15.574 -42.280  1.00  0.00     0.009 A 
HETATM   15  C   UNL     1      -2.919 -15.868 -43.540  1.00  0.00     0.001 A 
HETATM   16  C   UNL     1      -4.096 -15.258 -43.967  1.00  0.00     0.000 A 
HETATM   17  C   UNL     1      -4.753 -14.358 -43.133  1.00  0.00     0.001 A 
HETATM   18  C   UNL     1      -4.235 -14.067 -41.871  1.00  0.00     0.009 A 
ENDBRANCH   7  13
ENDBRANCH   1   7
BRANCH   3  19
HETATM   19  C   UNL     1      -5.617 -12.848 -37.564  1.00  0.00     0.175 A 
HETATM   20  S   UNL     1      -6.017 -13.869 -36.264  1.00  0.00    -0.061 SA
HETATM   21  C   UNL     1      -7.589 -14.062 -36.932  1.00  0.00     0.086 A 
HETATM   22  C   UNL     1      -7.689 -13.345 -38.112  1.00  0.00     0.078 A 
HETATM   23  N   UNL     1      -6.544 -12.638 -38.465  1.00  0.00    -0.223 NA
BRANCH  22  24
HETATM   24  C   UNL     1      -8.862 -13.338 -38.968  1.00  0.00     0.011 A 
HETATM   25  C   UNL     1      -9.501 -14.536 -39.271  1.00  0.00     0.130 A 
HETATM   26  N   UNL     1     -10.593 -14.653 -40.064  1.00  0.00    -0.272 NA
HETATM   27  C   UNL     1     -11.084 -13.504 -40.578  1.00  0.00     0.116 A 
HETATM   28  C   UNL     1     -10.527 -12.257 -40.338  1.00  0.00     0.020 A 
HETATM   29  C   UNL     1      -9.398 -12.174 -39.523  1.00  0.00     0.017 A 
ENDBRANCH  22  24
ENDBRANCH   3  19
TORSDOF 6
ENDMDL
MODEL 8
REMARK VINA RESULT:      -7.2      2.240      2.865
REMARK  6 active torsions:
REMARK  status: ('A' for Active; 'I' for Inactive)
REMARK    1  A    between atoms: N_2  and  C_4 
REMARK    2  A    between atoms: C_4  and  C_5 
REMARK    3  A    between atoms: C_5  and  N_6 
REMARK    4  A    between atoms: C_5  and  C_21 
REMARK       I    between atoms: N_6  and  C_7 
REMARK       I    between atoms: C_7  and  N_8 
REMARK    5  A    between atoms: N_8  and  C_9 
REMARK    6  A    between atoms: C_12  and  C_13 
ROOT
HETATM    1  N   UNL     1      -6.102   1.945 -32.757  1.00  0.00    -0.333 N 
HETATM    2  C   UNL     1      -6.386   2.392 -34.014  1.00  0.00     0.322 C 
HETATM    3  N   UNL     1      -6.016   3.658 -34.335  1.00  0.00    -0.287 N 
HETATM    4  O   UNL     1      -6.938   1.672 -34.843  1.00  0.00    -0.247 OA
HETATM    5  H   UNL     1      -5.977   2.696 -32.082  1.00  0.00     0.165 HD
HETATM    6  H   UNL     1      -6.300   3.996 -35.245  1.00  0.00     0.172 HD
ENDROOT
BRANCH   1   7
HETATM    7  C   UNL     1      -6.652   0.685 -32.275  1.00  0.00     0.145 C 
BRANCH   7   8
HETATM    8  C   UNL     1      -8.210   0.686 -32.142  1.00  0.00     0.263 C 
BRANCH   8   9
HETATM    9  N   UNL     1      -8.843   2.084 -32.193  1.00  0.00    -0.076 N 
HETATM   10  C   UNL     1      -9.100   2.676 -30.836  1.00  0.00     0.269 C 
HETATM   11  H   UNL     1      -8.173   2.700 -32.674  1.00  0.00     0.279 HD
HETATM   12  C   UNL     1     -10.093   2.077 -33.027  1.00  0.00     0.269 C 
ENDBRANCH   8   9
ENDBRANCH   7   8
BRANCH   7  13
HETATM   13  C   UNL     1      -6.189  -0.511 -33.098  1.00  0.00    -0.034 A 
HETATM   14  C   UNL     1      -7.081  -1.347 -33.789  1.00  0.00     0.009 A 
HETATM   15  C   UNL     1      -6.619  -2.456 -34.499  1.00  0.00     0.001 A 
HETATM   16  C   UNL     1      -5.259  -2.751 -34.525  1.00  0.00     0.000 A 
HETATM   17  C   UNL     1      -4.358  -1.934 -33.846  1.00  0.00     0.001 A 
HETATM   18  C   UNL     1      -4.818  -0.821 -33.140  1.00  0.00     0.009 A 
ENDBRANCH   7  13
ENDBRANCH   1   7
BRANCH   3  19
HETATM   19  C   UNL     1      -5.274   4.497 -33.555  1.00  0.00     0.175 A 
HETATM   20  S   UNL     1      -6.115   5.840 -32.937  1.00  0.00    -0.061 SA
HETATM   21  C   UNL     1      -4.671   6.356 -32.161  1.00  0.00     0.086 A 
HETATM   22  C   UNL     1      -3.644   5.472 -32.445  1.00  0.00     0.078 A 
HETATM   23  N   UNL     1      -4.005   4.393 -33.246  1.00  0.00    -0.223 NA
BRANCH  22  24
HETATM   24  C   UNL     1      -2.272   5.641 -31.999  1.00  0.00     0.011 A 
HETATM   25  C   UNL     1      -1.645   4.616 -31.295  1.00  0.00     0.130 A 
HETATM   26  N   UNL     1      -0.377   4.665 -30.823  1.00  0.00    -0.272 NA
HETATM   27  C   UNL     1       0.313   5.798 -31.077  1.00  0.00     0.116 A 
HETATM   28  C   UNL     1      -0.213   6.877 -31.771  1.00  0.00     0.020 A 
HETATM   29  C   UNL     1      -1.527   6.797 -32.236  1.00  0.00     0.017 A 
ENDBRANCH  22  24
ENDBRANCH   3  19
TORSDOF 6
ENDMDL
MODEL 9
REMARK VINA RESULT:      -7.2     12.239     16.136
REMARK  6 active torsions:
REMARK  status: ('A' for Active; 'I' for Inactive)
REMARK    1  A    between atoms: N_2  and  C_4 
REMARK    2  A    between atoms: C_4  and  C_5 
REMARK    3  A    between atoms: C_5  and  N_6 
REMARK    4  A    between atoms: C_5  and  C_21 
REMARK       I    between atoms: N_6  and  C_7 
REMARK       I    between atoms: C_7  and  N_8 
REMARK    5  A    between atoms: N_8  and  C_9 
REMARK    6  A    between atoms: C_12  and  C_13 
ROOT
HETATM    1  N   UNL     1       4.975   8.096 -22.864  1.00  0.00    -0.333 N 
HETATM    2  C   UNL     1       4.082   8.357 -21.865  1.00  0.00     0.322 C 
HETATM    3  N   UNL     1       2.890   8.905 -22.210  1.00  0.00    -0.287 N 
HETATM    4  O   UNL     1       4.333   8.087 -20.693  1.00  0.00    -0.247 OA
HETATM    5  H   UNL     1       4.819   8.656 -23.699  1.00  0.00     0.165 HD
HETATM    6  H   UNL     1       2.271   9.158 -21.451  1.00  0.00     0.172 HD
ENDROOT
BRANCH   1   7
HETATM    7  C   UNL     1       6.345   7.709 -22.554  1.00  0.00     0.145 C 
BRANCH   7   8
HETATM    8  C   UNL     1       6.661   6.208 -22.862  1.00  0.00     0.263 C 
BRANCH   8   9
HETATM    9  N   UNL     1       7.247   5.434 -21.672  1.00  0.00    -0.076 N 
HETATM   10  C   UNL     1       7.237   6.212 -20.386  1.00  0.00     0.269 C 
HETATM   11  H   UNL     1       6.654   4.604 -21.532  1.00  0.00     0.279 HD
HETATM   12  C   UNL     1       8.626   4.927 -21.988  1.00  0.00     0.269 C 
ENDBRANCH   8   9
ENDBRANCH   7   8
BRANCH   7  13
HETATM   13  C   UNL     1       7.375   8.616 -23.215  1.00  0.00    -0.034 A 
HETATM   14  C   UNL     1       8.695   8.732 -22.748  1.00  0.00     0.009 A 
HETATM   15  C   UNL     1       9.595   9.607 -23.358  1.00  0.00     0.001 A 
HETATM   16  C   UNL     1       9.191  10.383 -24.441  1.00  0.00     0.000 A 
HETATM   17  C   UNL     1       7.886  10.282 -24.918  1.00  0.00     0.001 A 
HETATM   18  C   UNL     1       6.986   9.405 -24.313  1.00  0.00     0.009 A 
ENDBRANCH   7  13
ENDBRANCH   1   7
BRANCH   3  19
HETATM   19  C   UNL     1       2.442   9.114 -23.482  1.00  0.00     0.175 A 
HETATM   20  S   UNL     1       2.332  10.746 -23.949  1.00  0.00    -0.061 SA
HETATM   21  C   UNL     1       1.755  10.240 -25.487  1.00  0.00     0.086 A 
HETATM   22  C   UNL     1       1.672   8.860 -25.527  1.00  0.00     0.078 A 
HETATM   23  N   UNL     1       2.081   8.215 -24.364  1.00  0.00    -0.223 NA
BRANCH  22  24
HETATM   24  C   UNL     1       1.163   8.102 -26.657  1.00  0.00     0.011 A 
HETATM   25  C   UNL     1       0.426   6.943 -26.434  1.00  0.00     0.130 A 
HETATM   26  N   UNL     1      -0.088   6.153 -27.406  1.00  0.00    -0.272 NA
HETATM   27  C   UNL     1       0.135   6.548 -28.678  1.00  0.00     0.116 A 
HETATM   28  C   UNL     1       0.852   7.687 -29.013  1.00  0.00     0.020 A 
HETATM   29  C   UNL     1       1.376   8.473 -27.986  1.00  0.00     0.017 A 
ENDBRANCH  22  24
ENDBRANCH   3  19
TORSDOF 6
ENDMDL
MODEL 10
REMARK VINA RESULT:      -7.2      1.790      2.162
REMARK  6 active torsions:
REMARK  status: ('A' for Active; 'I' for Inactive)
REMARK    1  A    between atoms: N_2  and  C_4 
REMARK    2  A    between atoms: C_4  and  C_5 
REMARK    3  A    between atoms: C_5  and  N_6 
REMARK    4  A    between atoms: C_5  and  C_21 
REMARK       I    between atoms: N_6  and  C_7 
REMARK       I    between atoms: C_7  and  N_8 
REMARK    5  A    between atoms: N_8  and  C_9 
REMARK    6  A    between atoms: C_12  and  C_13 
ROOT
HETATM    1  N   UNL     1      -8.067   2.724 -32.321  1.00  0.00    -0.333 N 
HETATM    2  C   UNL     1      -8.423   3.077 -31.053  1.00  0.00     0.322 C 
HETATM    3  N   UNL     1      -7.720   4.069 -30.450  1.00  0.00    -0.287 N 
HETATM    4  O   UNL     1      -9.363   2.535 -30.476  1.00  0.00    -0.247 OA
HETATM    5  H   UNL     1      -7.107   2.972 -32.553  1.00  0.00     0.165 HD
HETATM    6  H   UNL     1      -7.951   4.266 -29.485  1.00  0.00     0.172 HD
ENDROOT
BRANCH   1   7
HETATM    7  C   UNL     1      -8.630   1.536 -32.949  1.00  0.00     0.145 C 
BRANCH   7   8
HETATM    8  C   UNL     1      -9.491   1.842 -34.219  1.00  0.00     0.263 C 
BRANCH   8   9
HETATM    9  N   UNL     1     -10.923   2.301 -33.910  1.00  0.00    -0.076 N 
HETATM   10  C   UNL     1     -11.902   1.168 -33.784  1.00  0.00     0.269 C 
HETATM   11  H   UNL     1     -10.896   2.785 -33.002  1.00  0.00     0.279 HD
HETATM   12  C   UNL     1     -11.392   3.311 -34.919  1.00  0.00     0.269 C 
ENDBRANCH   8   9
ENDBRANCH   7   8
BRANCH   7  13
HETATM   13  C   UNL     1      -7.576   0.482 -33.262  1.00  0.00    -0.034 A 
HETATM   14  C   UNL     1      -6.556   0.138 -32.360  1.00  0.00     0.009 A 
HETATM   15  C   UNL     1      -5.585  -0.804 -32.703  1.00  0.00     0.001 A 
HETATM   16  C   UNL     1      -5.615  -1.414 -33.953  1.00  0.00     0.000 A 
HETATM   17  C   UNL     1      -6.619  -1.087 -34.862  1.00  0.00     0.001 A 
HETATM   18  C   UNL     1      -7.593  -0.149 -34.519  1.00  0.00     0.009 A 
ENDBRANCH   7  13
ENDBRANCH   1   7
BRANCH   3  19
HETATM   19  C   UNL     1      -6.758   4.839 -31.037  1.00  0.00     0.175 A 
HETATM   20  S   UNL     1      -6.945   6.516 -30.825  1.00  0.00    -0.061 SA
HETATM   21  C   UNL     1      -5.519   6.767 -31.751  1.00  0.00     0.086 A 
HETATM   22  C   UNL     1      -5.012   5.550 -32.171  1.00  0.00     0.078 A 
HETATM   23  N   UNL     1      -5.731   4.438 -31.745  1.00  0.00    -0.223 NA
BRANCH  22  24
HETATM   24  C   UNL     1      -3.848   5.399 -33.027  1.00  0.00     0.011 A 
HETATM   25  C   UNL     1      -4.008   5.372 -34.409  1.00  0.00     0.130 A 
HETATM   26  N   UNL     1      -3.001   5.227 -35.303  1.00  0.00    -0.272 NA
HETATM   27  C   UNL     1      -1.757   5.113 -34.789  1.00  0.00     0.116 A 
HETATM   28  C   UNL     1      -1.485   5.131 -33.429  1.00  0.00     0.020 A 
HETATM   29  C   UNL     1      -2.548   5.274 -32.536  1.00  0.00     0.017 A 
ENDBRANCH  22  24
ENDBRANCH   3  19
TORSDOF 6
ENDMDL
