MODEL 1
REMARK VINA RESULT:     -10.3      0.000      0.000
REMARK  5 active torsions:
REMARK  status: ('A' for Active; 'I' for Inactive)
REMARK    1  A    between atoms: C_3  and  O_4 
REMARK    2  A    between atoms: C_6  and  N_7 
REMARK       I    between atoms: N_7  and  C_8 
REMARK    3  A    between atoms: C_8  and  C_9 
REMARK    4  A    between atoms: C_12  and  C_13 
REMARK    5  A    between atoms: C_18  and  C_19 
ROOT
HETATM    1  C   UNL     1      -6.401   3.387 -33.471  1.00  0.00     0.096 A 
HETATM    2  C   UNL     1      -6.851   2.089 -33.625  1.00  0.00     0.138 A 
HETATM    3  N   UNL     1      -8.180   2.195 -33.961  1.00  0.00    -0.240 N 
HETATM    4  C   UNL     1      -9.067   1.072 -34.196  1.00  0.00     0.221 C 
HETATM    5  C   UNL     1      -8.237  -0.186 -34.505  1.00  0.00     0.066 C 
HETATM    6  C   UNL     1      -7.082  -0.342 -33.500  1.00  0.00     0.118 C 
HETATM    7  N   UNL     1      -6.252   0.870 -33.504  1.00  0.00    -0.365 N 
HETATM    8  N   UNL     1      -8.621   3.457 -34.059  1.00  0.00    -0.181 NA
HETATM    9  C   UNL     1      -7.550   4.180 -33.719  1.00  0.00     0.160 A 
HETATM   10  H   UNL     1      -5.460   0.787 -32.861  1.00  0.00     0.161 HD
ENDROOT
BRANCH   1  11
HETATM   11  C   UNL     1      -5.075   3.882 -33.140  1.00  0.00     0.261 C 
HETATM   12  N   UNL     1      -4.674   4.943 -33.929  1.00  0.00    -0.323 N 
HETATM   13  H   UNL     1      -5.387   5.314 -34.548  1.00  0.00     0.169 HD
HETATM   14  O   UNL     1      -4.447   3.397 -32.207  1.00  0.00    -0.267 OA
BRANCH  12  15
HETATM   15  C   UNL     1      -3.446   5.632 -33.887  1.00  0.00     0.037 A 
HETATM   16  C   UNL     1      -3.239   6.816 -33.178  1.00  0.00     0.066 A 
HETATM   17  C   UNL     1      -1.985   7.426 -33.189  1.00  0.00     0.067 A 
HETATM   18  C   UNL     1      -0.925   6.878 -33.902  1.00  0.00     0.036 A 
HETATM   19  C   UNL     1      -1.123   5.694 -34.609  1.00  0.00     0.005 A 
HETATM   20  C   UNL     1      -2.375   5.072 -34.596  1.00  0.00     0.029 A 
BRANCH  17  21
HETATM   21  O   UNL     1      -1.834   8.578 -32.473  1.00  0.00    -0.361 OA
HETATM   22  H   UNL     1      -2.467   8.577 -31.737  1.00  0.00     0.217 HD
ENDBRANCH  17  21
ENDBRANCH  12  15
ENDBRANCH   1  11
BRANCH   4  23
HETATM   23  C   UNL     1      -9.981   0.875 -33.005  1.00  0.00     0.409 C 
HETATM   24  F   UNL     1     -10.343  -0.414 -32.827  1.00  0.00    -0.169 F 
HETATM   25  F   UNL     1      -9.452   1.322 -31.848  1.00  0.00    -0.169 F 
HETATM   26  F   UNL     1     -11.134   1.574 -33.194  1.00  0.00    -0.169 F 
ENDBRANCH   4  23
BRANCH   6  27
HETATM   27  C   UNL     1      -6.231  -1.554 -33.834  1.00  0.00    -0.035 A 
HETATM   28  C   UNL     1      -6.749  -2.639 -34.565  1.00  0.00     0.012 A 
HETATM   29  C   UNL     1      -5.957  -3.758 -34.832  1.00  0.00     0.043 A 
HETATM   30  C   UNL     1      -4.650  -3.800 -34.365  1.00  0.00     0.116 A 
HETATM   31  F   UNL     1      -3.894  -4.876 -34.616  1.00  0.00    -0.206 F 
HETATM   32  C   UNL     1      -4.117  -2.744 -33.638  1.00  0.00     0.043 A 
HETATM   33  C   UNL     1      -4.905  -1.623 -33.371  1.00  0.00     0.012 A 
ENDBRANCH   6  27
TORSDOF 5
ENDMDL
MODEL 2
REMARK VINA RESULT:      -9.6      3.952      6.995
REMARK  5 active torsions:
REMARK  status: ('A' for Active; 'I' for Inactive)
REMARK    1  A    between atoms: C_3  and  O_4 
REMARK    2  A    between atoms: C_6  and  N_7 
REMARK       I    between atoms: N_7  and  C_8 
REMARK    3  A    between atoms: C_8  and  C_9 
REMARK    4  A    between atoms: C_12  and  C_13 
REMARK    5  A    between atoms: C_18  and  C_19 
ROOT
HETATM    1  C   UNL     1      -7.962   2.413 -31.382  1.00  0.00     0.096 A 
HETATM    2  C   UNL     1      -6.903   1.621 -31.786  1.00  0.00     0.138 A 
HETATM    3  N   UNL     1      -5.822   2.045 -31.052  1.00  0.00    -0.240 N 
HETATM    4  C   UNL     1      -4.480   1.506 -31.167  1.00  0.00     0.221 C 
HETATM    5  C   UNL     1      -4.537   0.115 -31.822  1.00  0.00     0.066 C 
HETATM    6  C   UNL     1      -5.446   0.130 -33.064  1.00  0.00     0.118 C 
HETATM    7  N   UNL     1      -6.784   0.611 -32.695  1.00  0.00    -0.365 N 
HETATM    8  N   UNL     1      -6.099   3.033 -30.189  1.00  0.00    -0.181 NA
HETATM    9  C   UNL     1      -7.390   3.285 -30.421  1.00  0.00     0.160 A 
HETATM   10  H   UNL     1      -7.420   0.610 -33.497  1.00  0.00     0.161 HD
ENDROOT
BRANCH   1  11
HETATM   11  C   UNL     1      -9.353   2.398 -31.802  1.00  0.00     0.261 C 
HETATM   12  N   UNL     1      -9.617   1.467 -32.789  1.00  0.00    -0.323 N 
HETATM   13  H   UNL     1      -8.850   0.841 -33.008  1.00  0.00     0.169 HD
HETATM   14  O   UNL     1     -10.173   3.129 -31.259  1.00  0.00    -0.267 OA
BRANCH  12  15
HETATM   15  C   UNL     1     -10.846   1.216 -33.430  1.00  0.00     0.037 A 
HETATM   16  C   UNL     1     -11.696   0.159 -33.102  1.00  0.00     0.066 A 
HETATM   17  C   UNL     1     -12.898  -0.008 -33.788  1.00  0.00     0.067 A 
HETATM   18  C   UNL     1     -13.273   0.861 -34.807  1.00  0.00     0.036 A 
HETATM   19  C   UNL     1     -12.431   1.921 -35.138  1.00  0.00     0.005 A 
HETATM   20  C   UNL     1     -11.228   2.101 -34.449  1.00  0.00     0.029 A 
BRANCH  17  21
HETATM   21  O   UNL     1     -13.697  -1.053 -33.424  1.00  0.00    -0.361 OA
HETATM   22  H   UNL     1     -14.551  -0.971 -33.880  1.00  0.00     0.217 HD
ENDBRANCH  17  21
ENDBRANCH  12  15
ENDBRANCH   1  11
BRANCH   4  23
HETATM   23  C   UNL     1      -3.600   2.466 -31.939  1.00  0.00     0.409 C 
HETATM   24  F   UNL     1      -4.304   3.305 -32.729  1.00  0.00    -0.169 F 
HETATM   25  F   UNL     1      -2.803   3.212 -31.147  1.00  0.00    -0.169 F 
HETATM   26  F   UNL     1      -2.774   1.767 -32.763  1.00  0.00    -0.169 F 
ENDBRANCH   4  23
BRANCH   6  27
HETATM   27  C   UNL     1      -5.544  -1.253 -33.682  1.00  0.00    -0.035 A 
HETATM   28  C   UNL     1      -4.401  -2.039 -33.915  1.00  0.00     0.012 A 
HETATM   29  C   UNL     1      -4.512  -3.295 -34.516  1.00  0.00     0.043 A 
HETATM   30  C   UNL     1      -5.764  -3.767 -34.891  1.00  0.00     0.116 A 
HETATM   31  F   UNL     1      -5.869  -4.968 -35.472  1.00  0.00    -0.206 F 
HETATM   32  C   UNL     1      -6.907  -3.009 -34.675  1.00  0.00     0.043 A 
HETATM   33  C   UNL     1      -6.799  -1.754 -34.073  1.00  0.00     0.012 A 
ENDBRANCH   6  27
TORSDOF 5
ENDMDL
MODEL 3
REMARK VINA RESULT:      -9.2      2.218      5.024
REMARK  5 active torsions:
REMARK  status: ('A' for Active; 'I' for Inactive)
REMARK    1  A    between atoms: C_3  and  O_4 
REMARK    2  A    between atoms: C_6  and  N_7 
REMARK       I    between atoms: N_7  and  C_8 
REMARK    3  A    between atoms: C_8  and  C_9 
REMARK    4  A    between atoms: C_12  and  C_13 
REMARK    5  A    between atoms: C_18  and  C_19 
ROOT
HETATM    1  C   UNL     1      -4.658   1.745 -32.531  1.00  0.00     0.096 A 
HETATM    2  C   UNL     1      -5.850   1.188 -32.956  1.00  0.00     0.138 A 
HETATM    3  N   UNL     1      -5.670  -0.172 -32.884  1.00  0.00    -0.240 N 
HETATM    4  C   UNL     1      -6.663  -1.160 -33.261  1.00  0.00     0.221 C 
HETATM    5  C   UNL     1      -8.058  -0.513 -33.268  1.00  0.00     0.066 C 
HETATM    6  C   UNL     1      -8.033   0.839 -34.001  1.00  0.00     0.118 C 
HETATM    7  N   UNL     1      -7.030   1.720 -33.387  1.00  0.00    -0.365 N 
HETATM    8  N   UNL     1      -4.465  -0.542 -32.426  1.00  0.00    -0.181 NA
HETATM    9  C   UNL     1      -3.836   0.624 -32.253  1.00  0.00     0.160 A 
HETATM   10  H   UNL     1      -7.006   2.638 -33.838  1.00  0.00     0.161 HD
ENDROOT
BRANCH   1  11
HETATM   11  C   UNL     1      -4.281   3.141 -32.380  1.00  0.00     0.261 C 
HETATM   12  N   UNL     1      -2.941   3.375 -32.626  1.00  0.00    -0.323 N 
HETATM   13  H   UNL     1      -2.424   2.582 -32.989  1.00  0.00     0.169 HD
HETATM   14  O   UNL     1      -5.125   3.986 -32.111  1.00  0.00    -0.267 OA
BRANCH  12  15
HETATM   15  C   UNL     1      -2.251   4.601 -32.542  1.00  0.00     0.037 A 
HETATM   16  C   UNL     1      -2.331   5.609 -33.504  1.00  0.00     0.066 A 
HETATM   17  C   UNL     1      -1.616   6.794 -33.334  1.00  0.00     0.067 A 
HETATM   18  C   UNL     1      -0.813   6.996 -32.217  1.00  0.00     0.036 A 
HETATM   19  C   UNL     1      -0.732   5.996 -31.250  1.00  0.00     0.005 A 
HETATM   20  C   UNL     1      -1.452   4.808 -31.409  1.00  0.00     0.029 A 
BRANCH  17  21
HETATM   21  O   UNL     1      -1.734   7.750 -34.299  1.00  0.00    -0.361 OA
HETATM   22  H   UNL     1      -2.002   8.587 -33.884  1.00  0.00     0.217 HD
ENDBRANCH  17  21
ENDBRANCH  12  15
ENDBRANCH   1  11
BRANCH   4  23
HETATM   23  C   UNL     1      -6.307  -1.767 -34.602  1.00  0.00     0.409 C 
HETATM   24  F   UNL     1      -6.333  -0.867 -35.609  1.00  0.00    -0.169 F 
HETATM   25  F   UNL     1      -5.100  -2.366 -34.612  1.00  0.00    -0.169 F 
HETATM   26  F   UNL     1      -7.215  -2.727 -34.924  1.00  0.00    -0.169 F 
ENDBRANCH   4  23
BRANCH   6  27
HETATM   27  C   UNL     1      -9.398   1.504 -33.964  1.00  0.00    -0.035 A 
HETATM   28  C   UNL     1     -10.559   0.783 -33.631  1.00  0.00     0.012 A 
HETATM   29  C   UNL     1     -11.808   1.407 -33.636  1.00  0.00     0.043 A 
HETATM   30  C   UNL     1     -11.902   2.750 -33.979  1.00  0.00     0.116 A 
HETATM   31  F   UNL     1     -13.101   3.346 -33.989  1.00  0.00    -0.206 F 
HETATM   32  C   UNL     1     -10.772   3.482 -34.315  1.00  0.00     0.043 A 
HETATM   33  C   UNL     1      -9.521   2.862 -34.309  1.00  0.00     0.012 A 
ENDBRANCH   6  27
TORSDOF 5
ENDMDL
MODEL 4
REMARK VINA RESULT:      -9.2      4.076      7.513
REMARK  5 active torsions:
REMARK  status: ('A' for Active; 'I' for Inactive)
REMARK    1  A    between atoms: C_3  and  O_4 
REMARK    2  A    between atoms: C_6  and  N_7 
REMARK       I    between atoms: N_7  and  C_8 
REMARK    3  A    between atoms: C_8  and  C_9 
REMARK    4  A    between atoms: C_12  and  C_13 
REMARK    5  A    between atoms: C_18  and  C_19 
ROOT
HETATM    1  C   UNL     1      -6.197   1.147 -33.025  1.00  0.00     0.096 A 
HETATM    2  C   UNL     1      -7.375   1.858 -33.157  1.00  0.00     0.138 A 
HETATM    3  N   UNL     1      -7.000   3.173 -33.296  1.00  0.00    -0.240 N 
HETATM    4  C   UNL     1      -7.920   4.285 -33.441  1.00  0.00     0.221 C 
HETATM    5  C   UNL     1      -9.290   3.766 -33.907  1.00  0.00     0.066 C 
HETATM    6  C   UNL     1      -9.722   2.541 -33.084  1.00  0.00     0.118 C 
HETATM    7  N   UNL     1      -8.691   1.497 -33.164  1.00  0.00    -0.365 N 
HETATM    8  N   UNL     1      -5.674   3.368 -33.287  1.00  0.00    -0.181 NA
HETATM    9  C   UNL     1      -5.188   2.141 -33.078  1.00  0.00     0.160 A 
HETATM   10  H   UNL     1      -8.960   0.658 -32.644  1.00  0.00     0.161 HD
ENDROOT
BRANCH   1  11
HETATM   11  C   UNL     1      -5.982  -0.283 -32.869  1.00  0.00     0.261 C 
HETATM   12  N   UNL     1      -5.816  -0.945 -34.071  1.00  0.00    -0.323 N 
HETATM   13  H   UNL     1      -5.748  -0.347 -34.887  1.00  0.00     0.169 HD
HETATM   14  O   UNL     1      -5.913  -0.781 -31.753  1.00  0.00    -0.267 OA
BRANCH  12  15
HETATM   15  C   UNL     1      -5.617  -2.325 -34.273  1.00  0.00     0.037 A 
HETATM   16  C   UNL     1      -4.416  -2.986 -34.014  1.00  0.00     0.066 A 
HETATM   17  C   UNL     1      -4.312  -4.358 -34.239  1.00  0.00     0.067 A 
HETATM   18  C   UNL     1      -5.389  -5.091 -34.726  1.00  0.00     0.036 A 
HETATM   19  C   UNL     1      -6.593  -4.438 -34.983  1.00  0.00     0.005 A 
HETATM   20  C   UNL     1      -6.708  -3.064 -34.752  1.00  0.00     0.029 A 
BRANCH  17  21
HETATM   21  O   UNL     1      -3.119  -4.958 -33.962  1.00  0.00    -0.361 OA
HETATM   22  H   UNL     1      -2.407  -4.303 -34.057  1.00  0.00     0.217 HD
ENDBRANCH  17  21
ENDBRANCH  12  15
ENDBRANCH   1  11
BRANCH   4  23
HETATM   23  C   UNL     1      -8.012   5.053 -32.139  1.00  0.00     0.409 C 
HETATM   24  F   UNL     1      -7.858   4.266 -31.052  1.00  0.00    -0.169 F 
HETATM   25  F   UNL     1      -7.122   6.062 -32.051  1.00  0.00    -0.169 F 
HETATM   26  F   UNL     1      -9.245   5.620 -32.029  1.00  0.00    -0.169 F 
ENDBRANCH   4  23
BRANCH   6  27
HETATM   27  C   UNL     1     -11.050   1.995 -33.576  1.00  0.00    -0.035 A 
HETATM   28  C   UNL     1     -11.973   2.808 -34.259  1.00  0.00     0.012 A 
HETATM   29  C   UNL     1     -13.203   2.293 -34.674  1.00  0.00     0.043 A 
HETATM   30  C   UNL     1     -13.517   0.967 -34.404  1.00  0.00     0.116 A 
HETATM   31  F   UNL     1     -14.699   0.475 -34.797  1.00  0.00    -0.206 F 
HETATM   32  C   UNL     1     -12.625   0.145 -33.729  1.00  0.00     0.043 A 
HETATM   33  C   UNL     1     -11.394   0.656 -33.314  1.00  0.00     0.012 A 
ENDBRANCH   6  27
TORSDOF 5
ENDMDL
MODEL 5
REMARK VINA RESULT:      -9.1      4.062      7.671
REMARK  5 active torsions:
REMARK  status: ('A' for Active; 'I' for Inactive)
REMARK    1  A    between atoms: C_3  and  O_4 
REMARK    2  A    between atoms: C_6  and  N_7 
REMARK       I    between atoms: N_7  and  C_8 
REMARK    3  A    between atoms: C_8  and  C_9 
REMARK    4  A    between atoms: C_12  and  C_13 
REMARK    5  A    between atoms: C_18  and  C_19 
ROOT
HETATM    1  C   UNL     1      -7.055   1.746 -33.960  1.00  0.00     0.096 A 
HETATM    2  C   UNL     1      -8.257   2.254 -33.503  1.00  0.00     0.138 A 
HETATM    3  N   UNL     1      -7.968   3.505 -33.013  1.00  0.00    -0.240 N 
HETATM    4  C   UNL     1      -8.936   4.399 -32.406  1.00  0.00     0.221 C 
HETATM    5  C   UNL     1     -10.356   3.988 -32.828  1.00  0.00     0.066 C 
HETATM    6  C   UNL     1     -10.552   2.468 -32.687  1.00  0.00     0.118 C 
HETATM    7  N   UNL     1      -9.528   1.760 -33.467  1.00  0.00    -0.365 N 
HETATM    8  N   UNL     1      -6.681   3.857 -33.134  1.00  0.00    -0.181 NA
HETATM    9  C   UNL     1      -6.118   2.770 -33.670  1.00  0.00     0.160 A 
HETATM   10  H   UNL     1      -9.647   0.745 -33.412  1.00  0.00     0.161 HD
ENDROOT
BRANCH   1  11
HETATM   11  C   UNL     1      -6.761   0.473 -34.597  1.00  0.00     0.261 C 
HETATM   12  N   UNL     1      -6.287  -0.483 -33.719  1.00  0.00    -0.323 N 
HETATM   13  H   UNL     1      -6.316  -0.221 -32.740  1.00  0.00     0.169 HD
HETATM   14  O   UNL     1      -6.982   0.312 -35.791  1.00  0.00    -0.267 OA
BRANCH  12  15
HETATM   15  C   UNL     1      -5.886  -1.801 -34.014  1.00  0.00     0.037 A 
HETATM   16  C   UNL     1      -6.722  -2.761 -34.585  1.00  0.00     0.066 A 
HETATM   17  C   UNL     1      -6.236  -4.041 -34.848  1.00  0.00     0.067 A 
HETATM   18  C   UNL     1      -4.923  -4.389 -34.547  1.00  0.00     0.036 A 
HETATM   19  C   UNL     1      -4.082  -3.434 -33.980  1.00  0.00     0.005 A 
HETATM   20  C   UNL     1      -4.559  -2.145 -33.721  1.00  0.00     0.029 A 
BRANCH  17  21
HETATM   21  O   UNL     1      -7.091  -4.941 -35.414  1.00  0.00    -0.361 OA
HETATM   22  H   UNL     1      -6.648  -5.804 -35.472  1.00  0.00     0.217 HD
ENDBRANCH  17  21
ENDBRANCH  12  15
ENDBRANCH   1  11
BRANCH   4  23
HETATM   23  C   UNL     1      -8.765   4.404 -30.901  1.00  0.00     0.409 C 
HETATM   24  F   UNL     1      -9.914   4.668 -30.242  1.00  0.00    -0.169 F 
HETATM   25  F   UNL     1      -8.266   3.248 -30.418  1.00  0.00    -0.169 F 
HETATM   26  F   UNL     1      -7.886   5.379 -30.544  1.00  0.00    -0.169 F 
ENDBRANCH   4  23
BRANCH   6  27
HETATM   27  C   UNL     1     -11.937   2.053 -33.152  1.00  0.00    -0.035 A 
HETATM   28  C   UNL     1     -13.072   2.836 -32.874  1.00  0.00     0.012 A 
HETATM   29  C   UNL     1     -14.340   2.417 -33.282  1.00  0.00     0.043 A 
HETATM   30  C   UNL     1     -14.479   1.214 -33.964  1.00  0.00     0.116 A 
HETATM   31  F   UNL     1     -15.696   0.811 -34.350  1.00  0.00    -0.206 F 
HETATM   32  C   UNL     1     -13.374   0.422 -34.247  1.00  0.00     0.043 A 
HETATM   33  C   UNL     1     -12.105   0.839 -33.842  1.00  0.00     0.012 A 
ENDBRANCH   6  27
TORSDOF 5
ENDMDL
MODEL 6
REMARK VINA RESULT:      -8.8      3.829      7.741
REMARK  5 active torsions:
REMARK  status: ('A' for Active; 'I' for Inactive)
REMARK    1  A    between atoms: C_3  and  O_4 
REMARK    2  A    between atoms: C_6  and  N_7 
REMARK       I    between atoms: N_7  and  C_8 
REMARK    3  A    between atoms: C_8  and  C_9 
REMARK    4  A    between atoms: C_12  and  C_13 
REMARK    5  A    between atoms: C_18  and  C_19 
ROOT
HETATM    1  C   UNL     1      -4.988   1.289 -32.608  1.00  0.00     0.096 A 
HETATM    2  C   UNL     1      -5.901   2.297 -32.858  1.00  0.00     0.138 A 
HETATM    3  N   UNL     1      -5.185   3.468 -32.798  1.00  0.00    -0.240 N 
HETATM    4  C   UNL     1      -5.749   4.793 -32.976  1.00  0.00     0.221 C 
HETATM    5  C   UNL     1      -7.095   4.687 -33.711  1.00  0.00     0.066 C 
HETATM    6  C   UNL     1      -7.969   3.578 -33.100  1.00  0.00     0.118 C 
HETATM    7  N   UNL     1      -7.240   2.303 -33.117  1.00  0.00    -0.365 N 
HETATM    8  N   UNL     1      -3.878   3.300 -32.551  1.00  0.00    -0.181 NA
HETATM    9  C   UNL     1      -3.767   1.978 -32.393  1.00  0.00     0.160 A 
HETATM   10  H   UNL     1      -7.805   1.539 -32.737  1.00  0.00     0.161 HD
ENDROOT
BRANCH   1  11
HETATM   11  C   UNL     1      -5.175  -0.152 -32.567  1.00  0.00     0.261 C 
HETATM   12  N   UNL     1      -5.085  -0.751 -33.809  1.00  0.00    -0.323 N 
HETATM   13  H   UNL     1      -4.787  -0.141 -34.562  1.00  0.00     0.169 HD
HETATM   14  O   UNL     1      -5.342  -0.725 -31.497  1.00  0.00    -0.267 OA
BRANCH  12  15
HETATM   15  C   UNL     1      -5.242  -2.116 -34.120  1.00  0.00     0.037 A 
HETATM   16  C   UNL     1      -4.243  -3.075 -33.952  1.00  0.00     0.066 A 
HETATM   17  C   UNL     1      -4.491  -4.407 -34.282  1.00  0.00     0.067 A 
HETATM   18  C   UNL     1      -5.725  -4.806 -34.785  1.00  0.00     0.036 A 
HETATM   19  C   UNL     1      -6.729  -3.854 -34.952  1.00  0.00     0.005 A 
HETATM   20  C   UNL     1      -6.491  -2.518 -34.615  1.00  0.00     0.029 A 
BRANCH  17  21
HETATM   21  O   UNL     1      -3.483  -5.306 -34.092  1.00  0.00    -0.361 OA
HETATM   22  H   UNL     1      -3.253  -5.327 -33.148  1.00  0.00     0.217 HD
ENDBRANCH  17  21
ENDBRANCH  12  15
ENDBRANCH   1  11
BRANCH   4  23
HETATM   23  C   UNL     1      -5.883   5.484 -31.635  1.00  0.00     0.409 C 
HETATM   24  F   UNL     1      -6.908   6.363 -31.596  1.00  0.00    -0.169 F 
HETATM   25  F   UNL     1      -6.034   4.625 -30.606  1.00  0.00    -0.169 F 
HETATM   26  F   UNL     1      -4.755   6.199 -31.374  1.00  0.00    -0.169 F 
ENDBRANCH   4  23
BRANCH   6  27
HETATM   27  C   UNL     1      -9.278   3.437 -33.857  1.00  0.00    -0.035 A 
HETATM   28  C   UNL     1      -9.990   2.225 -33.876  1.00  0.00     0.012 A 
HETATM   29  C   UNL     1     -11.175   2.108 -34.607  1.00  0.00     0.043 A 
HETATM   30  C   UNL     1     -11.648   3.200 -35.325  1.00  0.00     0.116 A 
HETATM   31  F   UNL     1     -12.780   3.086 -36.029  1.00  0.00    -0.206 F 
HETATM   32  C   UNL     1     -10.961   4.407 -35.324  1.00  0.00     0.043 A 
HETATM   33  C   UNL     1      -9.778   4.527 -34.593  1.00  0.00     0.012 A 
ENDBRANCH   6  27
TORSDOF 5
ENDMDL
MODEL 7
REMARK VINA RESULT:      -8.8      4.044      6.764
REMARK  5 active torsions:
REMARK  status: ('A' for Active; 'I' for Inactive)
REMARK    1  A    between atoms: C_3  and  O_4 
REMARK    2  A    between atoms: C_6  and  N_7 
REMARK       I    between atoms: N_7  and  C_8 
REMARK    3  A    between atoms: C_8  and  C_9 
REMARK    4  A    between atoms: C_12  and  C_13 
REMARK    5  A    between atoms: C_18  and  C_19 
ROOT
HETATM    1  C   UNL     1      -7.987   2.462 -31.342  1.00  0.00     0.096 A 
HETATM    2  C   UNL     1      -6.933   1.669 -31.756  1.00  0.00     0.138 A 
HETATM    3  N   UNL     1      -5.844   2.091 -31.030  1.00  0.00    -0.240 N 
HETATM    4  C   UNL     1      -4.505   1.550 -31.157  1.00  0.00     0.221 C 
HETATM    5  C   UNL     1      -4.568   0.161 -31.814  1.00  0.00     0.066 C 
HETATM    6  C   UNL     1      -5.488   0.179 -33.048  1.00  0.00     0.118 C 
HETATM    7  N   UNL     1      -6.823   0.660 -32.667  1.00  0.00    -0.365 N 
HETATM    8  N   UNL     1      -6.113   3.078 -30.164  1.00  0.00    -0.181 NA
HETATM    9  C   UNL     1      -7.406   3.332 -30.384  1.00  0.00     0.160 A 
HETATM   10  H   UNL     1      -7.465   0.662 -33.463  1.00  0.00     0.161 HD
ENDROOT
BRANCH   1  11
HETATM   11  C   UNL     1      -9.382   2.450 -31.750  1.00  0.00     0.261 C 
HETATM   12  N   UNL     1     -10.044   3.631 -31.473  1.00  0.00    -0.323 N 
HETATM   13  H   UNL     1      -9.457   4.386 -31.135  1.00  0.00     0.169 HD
HETATM   14  O   UNL     1      -9.850   1.476 -32.326  1.00  0.00    -0.267 OA
BRANCH  12  15
HETATM   15  C   UNL     1     -11.398   3.937 -31.714  1.00  0.00     0.037 A 
HETATM   16  C   UNL     1     -11.944   4.112 -32.986  1.00  0.00     0.066 A 
HETATM   17  C   UNL     1     -13.299   4.407 -33.130  1.00  0.00     0.067 A 
HETATM   18  C   UNL     1     -14.128   4.537 -32.021  1.00  0.00     0.036 A 
HETATM   19  C   UNL     1     -13.591   4.360 -30.748  1.00  0.00     0.005 A 
HETATM   20  C   UNL     1     -12.235   4.055 -30.596  1.00  0.00     0.029 A 
BRANCH  17  21
HETATM   21  O   UNL     1     -13.784   4.560 -34.395  1.00  0.00    -0.361 OA
HETATM   22  H   UNL     1     -13.982   5.500 -34.546  1.00  0.00     0.217 HD
ENDBRANCH  17  21
ENDBRANCH  12  15
ENDBRANCH   1  11
BRANCH   4  23
HETATM   23  C   UNL     1      -3.629   2.511 -31.935  1.00  0.00     0.409 C 
HETATM   24  F   UNL     1      -2.788   1.884 -32.786  1.00  0.00    -0.169 F 
HETATM   25  F   UNL     1      -4.332   3.420 -32.640  1.00  0.00    -0.169 F 
HETATM   26  F   UNL     1      -2.847   3.215 -31.073  1.00  0.00    -0.169 F 
ENDBRANCH   4  23
BRANCH   6  27
HETATM   27  C   UNL     1      -5.593  -1.203 -33.668  1.00  0.00    -0.035 A 
HETATM   28  C   UNL     1      -4.452  -1.988 -33.917  1.00  0.00     0.012 A 
HETATM   29  C   UNL     1      -4.571  -3.242 -34.518  1.00  0.00     0.043 A 
HETATM   30  C   UNL     1      -5.827  -3.715 -34.878  1.00  0.00     0.116 A 
HETATM   31  F   UNL     1      -5.938  -4.915 -35.460  1.00  0.00    -0.206 F 
HETATM   32  C   UNL     1      -6.968  -2.958 -34.646  1.00  0.00     0.043 A 
HETATM   33  C   UNL     1      -6.853  -1.704 -34.043  1.00  0.00     0.012 A 
ENDBRANCH   6  27
TORSDOF 5
ENDMDL
MODEL 8
REMARK VINA RESULT:      -8.6      3.829      7.415
REMARK  5 active torsions:
REMARK  status: ('A' for Active; 'I' for Inactive)
REMARK    1  A    between atoms: C_3  and  O_4 
REMARK    2  A    between atoms: C_6  and  N_7 
REMARK       I    between atoms: N_7  and  C_8 
REMARK    3  A    between atoms: C_8  and  C_9 
REMARK    4  A    between atoms: C_12  and  C_13 
REMARK    5  A    between atoms: C_18  and  C_19 
ROOT
HETATM    1  C   UNL     1      -4.357   0.910 -32.368  1.00  0.00     0.096 A 
HETATM    2  C   UNL     1      -5.548   1.610 -32.319  1.00  0.00     0.138 A 
HETATM    3  N   UNL     1      -5.194   2.936 -32.234  1.00  0.00    -0.240 N 
HETATM    4  C   UNL     1      -6.133   4.038 -32.135  1.00  0.00     0.221 C 
HETATM    5  C   UNL     1      -7.517   3.584 -32.628  1.00  0.00     0.066 C 
HETATM    6  C   UNL     1      -7.897   2.222 -32.022  1.00  0.00     0.118 C 
HETATM    7  N   UNL     1      -6.858   1.231 -32.335  1.00  0.00    -0.365 N 
HETATM    8  N   UNL     1      -3.872   3.152 -32.247  1.00  0.00    -0.181 NA
HETATM    9  C   UNL     1      -3.363   1.918 -32.285  1.00  0.00     0.160 A 
HETATM   10  H   UNL     1      -7.093   0.306 -31.964  1.00  0.00     0.161 HD
ENDROOT
BRANCH   1  11
HETATM   11  C   UNL     1      -4.118  -0.519 -32.483  1.00  0.00     0.261 C 
HETATM   12  N   UNL     1      -4.873  -1.123 -33.471  1.00  0.00    -0.323 N 
HETATM   13  H   UNL     1      -5.401  -0.487 -34.059  1.00  0.00     0.169 HD
HETATM   14  O   UNL     1      -3.278  -1.066 -31.779  1.00  0.00    -0.267 OA
BRANCH  12  15
HETATM   15  C   UNL     1      -4.902  -2.487 -33.821  1.00  0.00     0.037 A 
HETATM   16  C   UNL     1      -5.937  -3.087 -34.540  1.00  0.00     0.066 A 
HETATM   17  C   UNL     1      -5.876  -4.445 -34.848  1.00  0.00     0.067 A 
HETATM   18  C   UNL     1      -4.798  -5.227 -34.447  1.00  0.00     0.036 A 
HETATM   19  C   UNL     1      -3.759  -4.634 -33.733  1.00  0.00     0.005 A 
HETATM   20  C   UNL     1      -3.808  -3.270 -33.428  1.00  0.00     0.029 A 
BRANCH  17  21
HETATM   21  O   UNL     1      -6.910  -4.981 -35.559  1.00  0.00    -0.361 OA
HETATM   22  H   UNL     1      -7.561  -5.351 -34.940  1.00  0.00     0.217 HD
ENDBRANCH  17  21
ENDBRANCH  12  15
ENDBRANCH   1  11
BRANCH   4  23
HETATM   23  C   UNL     1      -6.175   4.556 -30.713  1.00  0.00     0.409 C 
HETATM   24  F   UNL     1      -5.925   3.596 -29.796  1.00  0.00    -0.169 F 
HETATM   25  F   UNL     1      -5.318   5.574 -30.492  1.00  0.00    -0.169 F 
HETATM   26  F   UNL     1      -7.418   5.035 -30.437  1.00  0.00    -0.169 F 
ENDBRANCH   4  23
BRANCH   6  27
HETATM   27  C   UNL     1      -9.240   1.747 -32.548  1.00  0.00    -0.035 A 
HETATM   28  C   UNL     1      -9.567   0.381 -32.604  1.00  0.00     0.012 A 
HETATM   29  C   UNL     1     -10.796  -0.034 -33.122  1.00  0.00     0.043 A 
HETATM   30  C   UNL     1     -11.698   0.913 -33.591  1.00  0.00     0.116 A 
HETATM   31  F   UNL     1     -12.873   0.514 -34.094  1.00  0.00    -0.206 F 
HETATM   32  C   UNL     1     -11.396   2.268 -33.550  1.00  0.00     0.043 A 
HETATM   33  C   UNL     1     -10.170   2.686 -33.031  1.00  0.00     0.012 A 
ENDBRANCH   6  27
TORSDOF 5
ENDMDL
MODEL 9
REMARK VINA RESULT:      -8.6      3.598      7.490
REMARK  5 active torsions:
REMARK  status: ('A' for Active; 'I' for Inactive)
REMARK    1  A    between atoms: C_3  and  O_4 
REMARK    2  A    between atoms: C_6  and  N_7 
REMARK       I    between atoms: N_7  and  C_8 
REMARK    3  A    between atoms: C_8  and  C_9 
REMARK    4  A    between atoms: C_12  and  C_13 
REMARK    5  A    between atoms: C_18  and  C_19 
ROOT
HETATM    1  C   UNL     1      -8.229   1.270 -33.821  1.00  0.00     0.096 A 
HETATM    2  C   UNL     1      -7.709   2.536 -33.623  1.00  0.00     0.138 A 
HETATM    3  N   UNL     1      -8.669   3.224 -32.919  1.00  0.00    -0.240 N 
HETATM    4  C   UNL     1      -8.560   4.611 -32.510  1.00  0.00     0.221 C 
HETATM    5  C   UNL     1      -7.083   5.040 -32.524  1.00  0.00     0.066 C 
HETATM    6  C   UNL     1      -6.392   4.587 -33.822  1.00  0.00     0.118 C 
HETATM    7  N   UNL     1      -6.537   3.133 -33.982  1.00  0.00    -0.365 N 
HETATM    8  N   UNL     1      -9.757   2.499 -32.625  1.00  0.00    -0.181 NA
HETATM    9  C   UNL     1      -9.507   1.325 -33.211  1.00  0.00     0.160 A 
HETATM   10  H   UNL     1      -6.067   2.797 -34.826  1.00  0.00     0.161 HD
ENDROOT
BRANCH   1  11
HETATM   11  C   UNL     1      -7.646   0.115 -34.484  1.00  0.00     0.261 C 
HETATM   12  N   UNL     1      -6.966  -0.726 -33.622  1.00  0.00    -0.323 N 
HETATM   13  H   UNL     1      -7.058  -0.500 -32.638  1.00  0.00     0.169 HD
HETATM   14  O   UNL     1      -7.821  -0.065 -35.682  1.00  0.00    -0.267 OA
BRANCH  12  15
HETATM   15  C   UNL     1      -6.270  -1.908 -33.943  1.00  0.00     0.037 A 
HETATM   16  C   UNL     1      -6.855  -3.015 -34.560  1.00  0.00     0.066 A 
HETATM   17  C   UNL     1      -6.086  -4.142 -34.846  1.00  0.00     0.067 A 
HETATM   18  C   UNL     1      -4.734  -4.191 -34.522  1.00  0.00     0.036 A 
HETATM   19  C   UNL     1      -4.143  -3.089 -33.909  1.00  0.00     0.005 A 
HETATM   20  C   UNL     1      -4.905  -1.951 -33.627  1.00  0.00     0.029 A 
BRANCH  17  21
HETATM   21  O   UNL     1      -6.703  -5.194 -35.457  1.00  0.00    -0.361 OA
HETATM   22  H   UNL     1      -6.661  -5.069 -36.419  1.00  0.00     0.217 HD
ENDBRANCH  17  21
ENDBRANCH  12  15
ENDBRANCH   1  11
BRANCH   4  23
HETATM   23  C   UNL     1      -9.417   5.484 -33.403  1.00  0.00     0.409 C 
HETATM   24  F   UNL     1     -10.709   5.529 -33.010  1.00  0.00    -0.169 F 
HETATM   25  F   UNL     1      -8.968   6.751 -33.499  1.00  0.00    -0.169 F 
HETATM   26  F   UNL     1      -9.419   4.981 -34.667  1.00  0.00    -0.169 F 
ENDBRANCH   4  23
BRANCH   6  27
HETATM   27  C   UNL     1      -4.922   4.963 -33.816  1.00  0.00    -0.035 A 
HETATM   28  C   UNL     1      -4.168   5.008 -35.003  1.00  0.00     0.012 A 
HETATM   29  C   UNL     1      -2.808   5.325 -34.970  1.00  0.00     0.043 A 
HETATM   30  C   UNL     1      -2.196   5.592 -33.751  1.00  0.00     0.116 A 
HETATM   31  F   UNL     1      -0.891   5.890 -33.720  1.00  0.00    -0.206 F 
HETATM   32  C   UNL     1      -2.917   5.551 -32.566  1.00  0.00     0.043 A 
HETATM   33  C   UNL     1      -4.277   5.237 -32.596  1.00  0.00     0.012 A 
ENDBRANCH   6  27
TORSDOF 5
ENDMDL
MODEL 10
REMARK VINA RESULT:      -8.4      2.661      5.414
REMARK  5 active torsions:
REMARK  status: ('A' for Active; 'I' for Inactive)
REMARK    1  A    between atoms: C_3  and  O_4 
REMARK    2  A    between atoms: C_6  and  N_7 
REMARK       I    between atoms: N_7  and  C_8 
REMARK    3  A    between atoms: C_8  and  C_9 
REMARK    4  A    between atoms: C_12  and  C_13 
REMARK    5  A    between atoms: C_18  and  C_19 
ROOT
HETATM    1  C   UNL     1      -4.604   2.399 -32.238  1.00  0.00     0.096 A 
HETATM    2  C   UNL     1      -5.929   2.095 -32.492  1.00  0.00     0.138 A 
HETATM    3  N   UNL     1      -5.933   0.792 -32.927  1.00  0.00    -0.240 N 
HETATM    4  C   UNL     1      -7.117   0.058 -33.333  1.00  0.00     0.221 C 
HETATM    5  C   UNL     1      -8.370   0.738 -32.756  1.00  0.00     0.066 C 
HETATM    6  C   UNL     1      -8.320   2.260 -32.978  1.00  0.00     0.118 C 
HETATM    7  N   UNL     1      -7.088   2.808 -32.394  1.00  0.00    -0.365 N 
HETATM    8  N   UNL     1      -4.721   0.219 -32.953  1.00  0.00    -0.181 NA
HETATM    9  C   UNL     1      -3.909   1.211 -32.576  1.00  0.00     0.160 A 
HETATM   10  H   UNL     1      -7.037   3.824 -32.505  1.00  0.00     0.161 HD
ENDROOT
BRANCH   1  11
HETATM   11  C   UNL     1      -4.007   3.627 -31.738  1.00  0.00     0.261 C 
HETATM   12  N   UNL     1      -2.831   3.964 -32.381  1.00  0.00    -0.323 N 
HETATM   13  H   UNL     1      -2.598   3.391 -33.184  1.00  0.00     0.169 HD
HETATM   14  O   UNL     1      -4.568   4.279 -30.867  1.00  0.00    -0.267 OA
BRANCH  12  15
HETATM   15  C   UNL     1      -1.994   5.068 -32.123  1.00  0.00     0.037 A 
HETATM   16  C   UNL     1      -2.275   6.372 -32.533  1.00  0.00     0.066 A 
HETATM   17  C   UNL     1      -1.390   7.405 -32.226  1.00  0.00     0.067 A 
HETATM   18  C   UNL     1      -0.218   7.163 -31.517  1.00  0.00     0.036 A 
HETATM   19  C   UNL     1       0.066   5.864 -31.101  1.00  0.00     0.005 A 
HETATM   20  C   UNL     1      -0.820   4.824 -31.397  1.00  0.00     0.029 A 
BRANCH  17  21
HETATM   21  O   UNL     1      -1.714   8.663 -32.643  1.00  0.00    -0.361 OA
HETATM   22  H   UNL     1      -1.189   8.879 -33.432  1.00  0.00     0.217 HD
ENDBRANCH  17  21
ENDBRANCH  12  15
ENDBRANCH   1  11
BRANCH   4  23
HETATM   23  C   UNL     1      -7.168  -0.047 -34.843  1.00  0.00     0.409 C 
HETATM   24  F   UNL     1      -6.496  -1.119 -35.318  1.00  0.00    -0.169 F 
HETATM   25  F   UNL     1      -8.424  -0.095 -35.332  1.00  0.00    -0.169 F 
HETATM   26  F   UNL     1      -6.582   1.048 -35.398  1.00  0.00    -0.169 F 
ENDBRANCH   4  23
BRANCH   6  27
HETATM   27  C   UNL     1      -9.531   2.939 -32.363  1.00  0.00    -0.035 A 
HETATM   28  C   UNL     1      -9.460   3.582 -31.114  1.00  0.00     0.012 A 
HETATM   29  C   UNL     1     -10.595   4.172 -30.553  1.00  0.00     0.043 A 
HETATM   30  C   UNL     1     -11.804   4.116 -31.235  1.00  0.00     0.116 A 
HETATM   31  F   UNL     1     -12.893   4.677 -30.693  1.00  0.00    -0.206 F 
HETATM   32  C   UNL     1     -11.901   3.485 -32.467  1.00  0.00     0.043 A 
HETATM   33  C   UNL     1     -10.768   2.896 -33.032  1.00  0.00     0.012 A 
ENDBRANCH   6  27
TORSDOF 5
ENDMDL
