MODEL 1
REMARK VINA RESULT:     -10.1      0.000      0.000
REMARK  4 active torsions:
REMARK  status: ('A' for Active; 'I' for Inactive)
REMARK    1  A    between atoms: C_2  and  C_3 
REMARK    2  A    between atoms: C_2  and  C_19 
REMARK       I    between atoms: C_3  and  N_4 
REMARK    3  A    between atoms: N_4  and  C_5 
REMARK    4  A    between atoms: C_12  and  C_13 
REMARK       I    between atoms: C_13  and  N_14 
ROOT
HETATM    1  C   UNL     1      -8.009   1.398 -32.699  1.00  0.00     0.230 C 
HETATM    2  N   UNL     1      -8.901   2.090 -33.499  1.00  0.00    -0.327 N 
HETATM    3  O   UNL     1      -8.285   0.870 -31.623  1.00  0.00    -0.272 OA
HETATM    4  H   UNL     1      -8.616   2.255 -34.456  1.00  0.00     0.169 HD
ENDROOT
BRANCH   2   5
HETATM    5  C   UNL     1     -10.215   2.487 -33.177  1.00  0.00     0.035 A 
HETATM    6  C   UNL     1     -11.355   1.758 -33.540  1.00  0.00     0.046 A 
HETATM    7  C   UNL     1     -12.628   2.199 -33.115  1.00  0.00     0.030 A 
HETATM    8  C   UNL     1     -12.717   3.361 -32.360  1.00  0.00     0.063 A 
HETATM    9  C   UNL     1     -13.974   1.737 -33.242  1.00  0.00     0.156 A 
HETATM   10  N   UNL     1     -14.050   3.531 -32.110  1.00  0.00    -0.277 N 
HETATM   11  C   UNL     1     -11.603   4.116 -31.985  1.00  0.00     0.034 A 
HETATM   12  H   UNL     1     -14.486   4.282 -31.586  1.00  0.00     0.189 HD
HETATM   13  N   UNL     1     -14.839   2.571 -32.618  1.00  0.00    -0.168 NA
HETATM   14  C   UNL     1     -10.352   3.647 -32.402  1.00  0.00     0.032 A 
BRANCH   9  15
HETATM   15  C   UNL     1     -14.445   0.522 -33.921  1.00  0.00     0.270 C 
HETATM   16  N   UNL     1     -13.885  -0.634 -33.448  1.00  0.00    -0.365 N 
HETATM   17  H   UNL     1     -13.203  -0.572 -32.702  1.00  0.00     0.159 HD
HETATM   18  H   UNL     1     -14.134  -1.516 -33.865  1.00  0.00     0.159 HD
HETATM   19  O   UNL     1     -15.256   0.504 -34.840  1.00  0.00    -0.266 OA
ENDBRANCH   9  15
ENDBRANCH   2   5
BRANCH   1  20
HETATM   20  C   UNL     1      -6.551   1.410 -33.187  1.00  0.00     0.107 C 
HETATM   21  C   UNL     1      -6.447   2.386 -34.362  1.00  0.00     0.025 C 
BRANCH  20  22
HETATM   22  C   UNL     1      -5.964   0.032 -33.469  1.00  0.00    -0.044 A 
HETATM   23  C   UNL     1      -6.722  -1.015 -34.025  1.00  0.00     0.020 A 
HETATM   24  C   UNL     1      -6.166  -2.287 -34.245  1.00  0.00    -0.025 A 
HETATM   25  C   UNL     1      -4.814  -2.519 -33.915  1.00  0.00    -0.026 A 
HETATM   26  C   UNL     1      -6.931  -3.335 -34.785  1.00  0.00     0.012 A 
HETATM   27  C   UNL     1      -4.057  -1.476 -33.364  1.00  0.00     0.013 A 
HETATM   28  C   UNL     1      -4.258  -3.789 -34.144  1.00  0.00     0.012 A 
HETATM   29  C   UNL     1      -4.626  -0.220 -33.135  1.00  0.00     0.009 A 
HETATM   30  C   UNL     1      -5.030  -4.819 -34.682  1.00  0.00     0.001 A 
HETATM   31  C   UNL     1      -6.366  -4.593 -35.001  1.00  0.00     0.001 A 
ENDBRANCH  20  22
ENDBRANCH   1  20
TORSDOF 4
ENDMDL
MODEL 2
REMARK VINA RESULT:      -9.7      4.828      8.243
REMARK  4 active torsions:
REMARK  status: ('A' for Active; 'I' for Inactive)
REMARK    1  A    between atoms: C_2  and  C_3 
REMARK    2  A    between atoms: C_2  and  C_19 
REMARK       I    between atoms: C_3  and  N_4 
REMARK    3  A    between atoms: N_4  and  C_5 
REMARK    4  A    between atoms: C_12  and  C_13 
REMARK       I    between atoms: C_13  and  N_14 
ROOT
HETATM    1  C   UNL     1      -6.198   2.735 -31.510  1.00  0.00     0.230 C 
HETATM    2  N   UNL     1      -5.318   2.669 -32.575  1.00  0.00    -0.327 N 
HETATM    3  O   UNL     1      -6.529   3.765 -30.927  1.00  0.00    -0.272 OA
HETATM    4  H   UNL     1      -5.324   1.813 -33.115  1.00  0.00     0.169 HD
ENDROOT
BRANCH   2   5
HETATM    5  C   UNL     1      -4.498   3.700 -33.077  1.00  0.00     0.035 A 
HETATM    6  C   UNL     1      -3.328   4.137 -32.440  1.00  0.00     0.046 A 
HETATM    7  C   UNL     1      -2.534   5.132 -33.051  1.00  0.00     0.030 A 
HETATM    8  C   UNL     1      -2.946   5.667 -34.266  1.00  0.00     0.063 A 
HETATM    9  C   UNL     1      -1.304   5.795 -32.755  1.00  0.00     0.156 A 
HETATM   10  N   UNL     1      -1.995   6.592 -34.596  1.00  0.00    -0.277 N 
HETATM   11  C   UNL     1      -4.108   5.260 -34.924  1.00  0.00     0.034 A 
HETATM   12  H   UNL     1      -1.973   7.182 -35.420  1.00  0.00     0.189 HD
HETATM   13  N   UNL     1      -0.987   6.694 -33.716  1.00  0.00    -0.168 NA
HETATM   14  C   UNL     1      -4.868   4.259 -34.308  1.00  0.00     0.032 A 
BRANCH   9  15
HETATM   15  C   UNL     1      -0.426   5.580 -31.596  1.00  0.00     0.270 C 
HETATM   16  N   UNL     1       0.302   6.682 -31.235  1.00  0.00    -0.365 N 
HETATM   17  H   UNL     1       0.197   7.531 -31.779  1.00  0.00     0.159 HD
HETATM   18  H   UNL     1       0.945   6.625 -30.463  1.00  0.00     0.159 HD
HETATM   19  O   UNL     1      -0.317   4.522 -30.987  1.00  0.00    -0.266 OA
ENDBRANCH   9  15
ENDBRANCH   2   5
BRANCH   1  20
HETATM   20  C   UNL     1      -6.690   1.375 -30.986  1.00  0.00     0.107 C 
HETATM   21  C   UNL     1      -5.917   1.047 -29.705  1.00  0.00     0.025 C 
BRANCH  20  22
HETATM   22  C   UNL     1      -6.683   0.256 -32.020  1.00  0.00    -0.044 A 
HETATM   23  C   UNL     1      -5.552  -0.546 -32.262  1.00  0.00     0.020 A 
HETATM   24  C   UNL     1      -5.560  -1.550 -33.245  1.00  0.00    -0.025 A 
HETATM   25  C   UNL     1      -6.732  -1.772 -33.999  1.00  0.00    -0.026 A 
HETATM   26  C   UNL     1      -4.424  -2.337 -33.495  1.00  0.00     0.012 A 
HETATM   27  C   UNL     1      -7.861  -0.977 -33.757  1.00  0.00     0.013 A 
HETATM   28  C   UNL     1      -6.741  -2.782 -34.975  1.00  0.00     0.012 A 
HETATM   29  C   UNL     1      -7.834   0.030 -32.788  1.00  0.00     0.009 A 
HETATM   30  C   UNL     1      -5.604  -3.557 -35.211  1.00  0.00     0.001 A 
HETATM   31  C   UNL     1      -4.446  -3.333 -34.473  1.00  0.00     0.001 A 
ENDBRANCH  20  22
ENDBRANCH   1  20
TORSDOF 4
ENDMDL
MODEL 3
REMARK VINA RESULT:      -9.6      5.235      8.556
REMARK  4 active torsions:
REMARK  status: ('A' for Active; 'I' for Inactive)
REMARK    1  A    between atoms: C_2  and  C_3 
REMARK    2  A    between atoms: C_2  and  C_19 
REMARK       I    between atoms: C_3  and  N_4 
REMARK    3  A    between atoms: N_4  and  C_5 
REMARK    4  A    between atoms: C_12  and  C_13 
REMARK       I    between atoms: C_13  and  N_14 
ROOT
HETATM    1  C   UNL     1      -5.621   2.388 -33.196  1.00  0.00     0.230 C 
HETATM    2  N   UNL     1      -4.396   2.599 -32.590  1.00  0.00    -0.327 N 
HETATM    3  O   UNL     1      -6.133   3.126 -34.035  1.00  0.00    -0.272 OA
HETATM    4  H   UNL     1      -3.984   1.806 -32.115  1.00  0.00     0.169 HD
ENDROOT
BRANCH   2   5
HETATM    5  C   UNL     1      -3.592   3.755 -32.658  1.00  0.00     0.035 A 
HETATM    6  C   UNL     1      -2.498   3.988 -31.814  1.00  0.00     0.046 A 
HETATM    7  C   UNL     1      -1.709   5.144 -31.999  1.00  0.00     0.030 A 
HETATM    8  C   UNL     1      -2.052   6.035 -33.009  1.00  0.00     0.063 A 
HETATM    9  C   UNL     1      -0.540   5.702 -31.397  1.00  0.00     0.156 A 
HETATM   10  N   UNL     1      -1.126   7.038 -32.939  1.00  0.00    -0.277 N 
HETATM   11  C   UNL     1      -3.139   5.839 -33.863  1.00  0.00     0.034 A 
HETATM   12  H   UNL     1      -1.070   7.864 -33.524  1.00  0.00     0.189 HD
HETATM   13  N   UNL     1      -0.195   6.871 -31.986  1.00  0.00    -0.168 NA
HETATM   14  C   UNL     1      -3.893   4.675 -33.671  1.00  0.00     0.032 A 
BRANCH   9  15
HETATM   15  C   UNL     1       0.257   5.142 -30.296  1.00  0.00     0.270 C 
HETATM   16  N   UNL     1      -0.184   5.501 -29.051  1.00  0.00    -0.365 N 
HETATM   17  H   UNL     1      -0.987   6.114 -28.979  1.00  0.00     0.159 HD
HETATM   18  H   UNL     1       0.311   5.180 -28.235  1.00  0.00     0.159 HD
HETATM   19  O   UNL     1       1.239   4.423 -30.438  1.00  0.00    -0.266 OA
ENDBRANCH   9  15
ENDBRANCH   2   5
BRANCH   1  20
HETATM   20  C   UNL     1      -6.411   1.179 -32.666  1.00  0.00     0.107 C 
HETATM   21  C   UNL     1      -6.559   1.332 -31.150  1.00  0.00     0.025 C 
BRANCH  20  22
HETATM   22  C   UNL     1      -5.868  -0.176 -33.105  1.00  0.00    -0.044 A 
HETATM   23  C   UNL     1      -6.655  -1.124 -33.784  1.00  0.00     0.020 A 
HETATM   24  C   UNL     1      -6.140  -2.380 -34.147  1.00  0.00    -0.025 A 
HETATM   25  C   UNL     1      -4.799  -2.696 -33.839  1.00  0.00    -0.026 A 
HETATM   26  C   UNL     1      -6.933  -3.331 -34.811  1.00  0.00     0.012 A 
HETATM   27  C   UNL     1      -4.013  -1.750 -33.165  1.00  0.00     0.013 A 
HETATM   28  C   UNL     1      -4.284  -3.948 -34.211  1.00  0.00     0.012 A 
HETATM   29  C   UNL     1      -4.543  -0.511 -32.794  1.00  0.00     0.009 A 
HETATM   30  C   UNL     1      -5.084  -4.882 -34.871  1.00  0.00     0.001 A 
HETATM   31  C   UNL     1      -6.409  -4.574 -35.169  1.00  0.00     0.001 A 
ENDBRANCH  20  22
ENDBRANCH   1  20
TORSDOF 4
ENDMDL
MODEL 4
REMARK VINA RESULT:      -9.5      5.498      8.066
REMARK  4 active torsions:
REMARK  status: ('A' for Active; 'I' for Inactive)
REMARK    1  A    between atoms: C_2  and  C_3 
REMARK    2  A    between atoms: C_2  and  C_19 
REMARK       I    between atoms: C_3  and  N_4 
REMARK    3  A    between atoms: N_4  and  C_5 
REMARK    4  A    between atoms: C_12  and  C_13 
REMARK       I    between atoms: C_13  and  N_14 
ROOT
HETATM    1  C   UNL     1      -5.286   2.687 -32.871  1.00  0.00     0.230 C 
HETATM    2  N   UNL     1      -4.052   3.061 -32.369  1.00  0.00    -0.327 N 
HETATM    3  O   UNL     1      -5.902   3.284 -33.752  1.00  0.00    -0.272 OA
HETATM    4  H   UNL     1      -3.549   2.361 -31.838  1.00  0.00     0.169 HD
ENDROOT
BRANCH   2   5
HETATM    5  C   UNL     1      -3.353   4.261 -32.613  1.00  0.00     0.035 A 
HETATM    6  C   UNL     1      -3.701   5.490 -32.036  1.00  0.00     0.046 A 
HETATM    7  C   UNL     1      -2.901   6.627 -32.286  1.00  0.00     0.030 A 
HETATM    8  C   UNL     1      -1.796   6.500 -33.118  1.00  0.00     0.063 A 
HETATM    9  C   UNL     1      -2.899   7.995 -31.875  1.00  0.00     0.156 A 
HETATM   10  N   UNL     1      -1.238   7.746 -33.172  1.00  0.00    -0.277 N 
HETATM   11  C   UNL     1      -1.425   5.294 -33.714  1.00  0.00     0.034 A 
HETATM   12  H   UNL     1      -0.414   8.027 -33.692  1.00  0.00     0.189 HD
HETATM   13  N   UNL     1      -1.868   8.673 -32.432  1.00  0.00    -0.168 NA
HETATM   14  C   UNL     1      -2.221   4.177 -33.435  1.00  0.00     0.032 A 
BRANCH   9  15
HETATM   15  C   UNL     1      -3.838   8.659 -30.959  1.00  0.00     0.270 C 
HETATM   16  N   UNL     1      -3.863   8.120 -29.701  1.00  0.00    -0.365 N 
HETATM   17  H   UNL     1      -3.267   7.326 -29.501  1.00  0.00     0.159 HD
HETATM   18  H   UNL     1      -4.490   8.498 -29.009  1.00  0.00     0.159 HD
HETATM   19  O   UNL     1      -4.558   9.604 -31.259  1.00  0.00    -0.266 OA
ENDBRANCH   9  15
ENDBRANCH   2   5
BRANCH   1  20
HETATM   20  C   UNL     1      -5.941   1.489 -32.166  1.00  0.00     0.107 C 
HETATM   21  C   UNL     1      -5.697   1.628 -30.660  1.00  0.00     0.025 C 
BRANCH  20  22
HETATM   22  C   UNL     1      -5.555   0.128 -32.735  1.00  0.00    -0.044 A 
HETATM   23  C   UNL     1      -6.466  -0.688 -33.430  1.00  0.00     0.020 A 
HETATM   24  C   UNL     1      -6.095  -1.954 -33.916  1.00  0.00    -0.025 A 
HETATM   25  C   UNL     1      -4.775  -2.414 -33.716  1.00  0.00    -0.026 A 
HETATM   26  C   UNL     1      -7.011  -2.773 -34.596  1.00  0.00     0.012 A 
HETATM   27  C   UNL     1      -3.866  -1.600 -33.025  1.00  0.00     0.013 A 
HETATM   28  C   UNL     1      -4.404  -3.675 -34.210  1.00  0.00     0.012 A 
HETATM   29  C   UNL     1      -4.253  -0.350 -32.533  1.00  0.00     0.009 A 
HETATM   30  C   UNL     1      -5.325  -4.476 -34.885  1.00  0.00     0.001 A 
HETATM   31  C   UNL     1      -6.628  -4.027 -35.076  1.00  0.00     0.001 A 
ENDBRANCH  20  22
ENDBRANCH   1  20
TORSDOF 4
ENDMDL
MODEL 5
REMARK VINA RESULT:      -9.3      2.431      3.250
REMARK  4 active torsions:
REMARK  status: ('A' for Active; 'I' for Inactive)
REMARK    1  A    between atoms: C_2  and  C_3 
REMARK    2  A    between atoms: C_2  and  C_19 
REMARK       I    between atoms: C_3  and  N_4 
REMARK    3  A    between atoms: N_4  and  C_5 
REMARK    4  A    between atoms: C_12  and  C_13 
REMARK       I    between atoms: C_13  and  N_14 
ROOT
HETATM    1  C   UNL     1      -6.668   1.813 -33.228  1.00  0.00     0.230 C 
HETATM    2  N   UNL     1      -7.912   1.746 -32.627  1.00  0.00    -0.327 N 
HETATM    3  O   UNL     1      -6.440   2.304 -34.333  1.00  0.00    -0.272 OA
HETATM    4  H   UNL     1      -7.925   1.550 -31.635  1.00  0.00     0.169 HD
ENDROOT
BRANCH   2   5
HETATM    5  C   UNL     1      -9.163   2.039 -33.208  1.00  0.00     0.035 A 
HETATM    6  C   UNL     1      -9.479   3.278 -33.782  1.00  0.00     0.046 A 
HETATM    7  C   UNL     1     -10.736   3.458 -34.400  1.00  0.00     0.030 A 
HETATM    8  C   UNL     1     -11.639   2.402 -34.405  1.00  0.00     0.063 A 
HETATM    9  C   UNL     1     -11.398   4.513 -35.100  1.00  0.00     0.156 A 
HETATM   10  N   UNL     1     -12.744   2.872 -35.056  1.00  0.00    -0.277 N 
HETATM   11  C   UNL     1     -11.360   1.158 -33.837  1.00  0.00     0.034 A 
HETATM   12  H   UNL     1     -13.606   2.372 -35.242  1.00  0.00     0.189 HD
HETATM   13  N   UNL     1     -12.637   4.137 -35.496  1.00  0.00    -0.168 NA
HETATM   14  C   UNL     1     -10.100   0.997 -33.248  1.00  0.00     0.032 A 
BRANCH   9  15
HETATM   15  C   UNL     1     -10.875   5.850 -35.410  1.00  0.00     0.270 C 
HETATM   16  N   UNL     1     -11.788   6.858 -35.248  1.00  0.00    -0.365 N 
HETATM   17  H   UNL     1     -12.726   6.618 -34.950  1.00  0.00     0.159 HD
HETATM   18  H   UNL     1     -11.525   7.807 -35.455  1.00  0.00     0.159 HD
HETATM   19  O   UNL     1      -9.734   6.085 -35.793  1.00  0.00    -0.266 OA
ENDBRANCH   9  15
ENDBRANCH   2   5
BRANCH   1  20
HETATM   20  C   UNL     1      -5.535   1.111 -32.461  1.00  0.00     0.107 C 
HETATM   21  C   UNL     1      -4.321   2.045 -32.441  1.00  0.00     0.025 C 
BRANCH  20  22
HETATM   22  C   UNL     1      -5.224  -0.302 -32.941  1.00  0.00    -0.044 A 
HETATM   23  C   UNL     1      -6.148  -1.077 -33.665  1.00  0.00     0.020 A 
HETATM   24  C   UNL     1      -5.849  -2.391 -34.066  1.00  0.00    -0.025 A 
HETATM   25  C   UNL     1      -4.590  -2.943 -33.750  1.00  0.00    -0.026 A 
HETATM   26  C   UNL     1      -6.780  -3.168 -34.775  1.00  0.00     0.012 A 
HETATM   27  C   UNL     1      -3.666  -2.170 -33.031  1.00  0.00     0.013 A 
HETATM   28  C   UNL     1      -4.290  -4.252 -34.159  1.00  0.00     0.012 A 
HETATM   29  C   UNL     1      -3.983  -0.871 -32.623  1.00  0.00     0.009 A 
HETATM   30  C   UNL     1      -5.225  -5.011 -34.864  1.00  0.00     0.001 A 
HETATM   31  C   UNL     1      -6.470  -4.470 -35.170  1.00  0.00     0.001 A 
ENDBRANCH  20  22
ENDBRANCH   1  20
TORSDOF 4
ENDMDL
MODEL 6
REMARK VINA RESULT:      -9.2      1.671      2.603
REMARK  4 active torsions:
REMARK  status: ('A' for Active; 'I' for Inactive)
REMARK    1  A    between atoms: C_2  and  C_3 
REMARK    2  A    between atoms: C_2  and  C_19 
REMARK       I    between atoms: C_3  and  N_4 
REMARK    3  A    between atoms: N_4  and  C_5 
REMARK    4  A    between atoms: C_12  and  C_13 
REMARK       I    between atoms: C_13  and  N_14 
ROOT
HETATM    1  C   UNL     1      -8.237   1.100 -32.709  1.00  0.00     0.230 C 
HETATM    2  N   UNL     1      -9.143   1.583 -33.636  1.00  0.00    -0.327 N 
HETATM    3  O   UNL     1      -8.524   0.690 -31.585  1.00  0.00    -0.272 OA
HETATM    4  H   UNL     1      -8.818   1.652 -34.592  1.00  0.00     0.169 HD
ENDROOT
BRANCH   2   5
HETATM    5  C   UNL     1     -10.507   1.878 -33.432  1.00  0.00     0.035 A 
HETATM    6  C   UNL     1     -10.965   3.088 -32.896  1.00  0.00     0.046 A 
HETATM    7  C   UNL     1     -12.355   3.321 -32.790  1.00  0.00     0.030 A 
HETATM    8  C   UNL     1     -13.234   2.328 -33.204  1.00  0.00     0.063 A 
HETATM    9  C   UNL     1     -13.190   4.393 -32.350  1.00  0.00     0.156 A 
HETATM   10  N   UNL     1     -14.483   2.832 -32.977  1.00  0.00    -0.277 N 
HETATM   11  C   UNL     1     -12.812   1.108 -33.736  1.00  0.00     0.034 A 
HETATM   12  H   UNL     1     -15.371   2.376 -33.157  1.00  0.00     0.189 HD
HETATM   13  N   UNL     1     -14.500   4.075 -32.469  1.00  0.00    -0.168 NA
HETATM   14  C   UNL     1     -11.431   0.910 -33.849  1.00  0.00     0.032 A 
BRANCH   9  15
HETATM   15  C   UNL     1     -12.770   5.706 -31.841  1.00  0.00     0.270 C 
HETATM   16  N   UNL     1     -13.356   6.057 -30.655  1.00  0.00    -0.365 N 
HETATM   17  H   UNL     1     -14.021   5.419 -30.235  1.00  0.00     0.159 HD
HETATM   18  H   UNL     1     -13.143   6.948 -30.238  1.00  0.00     0.159 HD
HETATM   19  O   UNL     1     -11.977   6.454 -32.402  1.00  0.00    -0.266 OA
ENDBRANCH   9  15
ENDBRANCH   2   5
BRANCH   1  20
HETATM   20  C   UNL     1      -6.760   1.203 -33.125  1.00  0.00     0.107 C 
HETATM   21  C   UNL     1      -6.654   2.224 -34.261  1.00  0.00     0.025 C 
BRANCH  20  22
HETATM   22  C   UNL     1      -6.090  -0.132 -33.425  1.00  0.00    -0.044 A 
HETATM   23  C   UNL     1      -6.777  -1.210 -34.014  1.00  0.00     0.020 A 
HETATM   24  C   UNL     1      -6.145  -2.443 -34.249  1.00  0.00    -0.025 A 
HETATM   25  C   UNL     1      -4.787  -2.603 -33.901  1.00  0.00    -0.026 A 
HETATM   26  C   UNL     1      -6.838  -3.522 -34.822  1.00  0.00     0.012 A 
HETATM   27  C   UNL     1      -4.100  -1.529 -33.317  1.00  0.00     0.013 A 
HETATM   28  C   UNL     1      -4.154  -3.834 -34.146  1.00  0.00     0.012 A 
HETATM   29  C   UNL     1      -4.745  -0.314 -33.073  1.00  0.00     0.009 A 
HETATM   30  C   UNL     1      -4.857  -4.895 -34.717  1.00  0.00     0.001 A 
HETATM   31  C   UNL     1      -6.198  -4.740 -35.053  1.00  0.00     0.001 A 
ENDBRANCH  20  22
ENDBRANCH   1  20
TORSDOF 4
ENDMDL
MODEL 7
REMARK VINA RESULT:      -9.1      4.706      7.412
REMARK  4 active torsions:
REMARK  status: ('A' for Active; 'I' for Inactive)
REMARK    1  A    between atoms: C_2  and  C_3 
REMARK    2  A    between atoms: C_2  and  C_19 
REMARK       I    between atoms: C_3  and  N_4 
REMARK    3  A    between atoms: N_4  and  C_5 
REMARK    4  A    between atoms: C_12  and  C_13 
REMARK       I    between atoms: C_13  and  N_14 
ROOT
HETATM    1  C   UNL     1      -6.456   2.866 -33.134  1.00  0.00     0.230 C 
HETATM    2  N   UNL     1      -6.088   3.393 -31.909  1.00  0.00    -0.327 N 
HETATM    3  O   UNL     1      -6.246   3.393 -34.224  1.00  0.00    -0.272 OA
HETATM    4  H   UNL     1      -6.093   2.757 -31.122  1.00  0.00     0.169 HD
ENDROOT
BRANCH   2   5
HETATM    5  C   UNL     1      -5.586   4.684 -31.645  1.00  0.00     0.035 A 
HETATM    6  C   UNL     1      -4.385   5.172 -32.179  1.00  0.00     0.046 A 
HETATM    7  C   UNL     1      -3.995   6.503 -31.913  1.00  0.00     0.030 A 
HETATM    8  C   UNL     1      -4.808   7.292 -31.109  1.00  0.00     0.063 A 
HETATM    9  C   UNL     1      -2.908   7.352 -32.284  1.00  0.00     0.156 A 
HETATM   10  N   UNL     1      -4.177   8.502 -31.030  1.00  0.00    -0.277 N 
HETATM   11  C   UNL     1      -6.007   6.837 -30.556  1.00  0.00     0.034 A 
HETATM   12  H   UNL     1      -4.484   9.322 -30.520  1.00  0.00     0.189 HD
HETATM   13  N   UNL     1      -3.033   8.580 -31.729  1.00  0.00    -0.168 NA
HETATM   14  C   UNL     1      -6.381   5.521 -30.850  1.00  0.00     0.032 A 
BRANCH   9  15
HETATM   15  C   UNL     1      -1.773   7.026 -33.159  1.00  0.00     0.270 C 
HETATM   16  N   UNL     1      -0.986   6.007 -32.695  1.00  0.00    -0.365 N 
HETATM   17  H   UNL     1      -1.224   5.575 -31.810  1.00  0.00     0.159 HD
HETATM   18  H   UNL     1      -0.174   5.725 -33.220  1.00  0.00     0.159 HD
HETATM   19  O   UNL     1      -1.514   7.598 -34.212  1.00  0.00    -0.266 OA
ENDBRANCH   9  15
ENDBRANCH   2   5
BRANCH   1  20
HETATM   20  C   UNL     1      -7.281   1.570 -33.064  1.00  0.00     0.107 C 
HETATM   21  C   UNL     1      -8.017   1.543 -31.721  1.00  0.00     0.025 C 
BRANCH  20  22
HETATM   22  C   UNL     1      -6.496   0.300 -33.368  1.00  0.00    -0.044 A 
HETATM   23  C   UNL     1      -7.099  -0.856 -33.898  1.00  0.00     0.020 A 
HETATM   24  C   UNL     1      -6.359  -2.026 -34.137  1.00  0.00    -0.025 A 
HETATM   25  C   UNL     1      -4.976  -2.042 -33.856  1.00  0.00    -0.026 A 
HETATM   26  C   UNL     1      -6.968  -3.184 -34.651  1.00  0.00     0.012 A 
HETATM   27  C   UNL     1      -4.373  -0.890 -33.331  1.00  0.00     0.013 A 
HETATM   28  C   UNL     1      -4.236  -3.210 -34.104  1.00  0.00     0.012 A 
HETATM   29  C   UNL     1      -5.124   0.262 -33.081  1.00  0.00     0.009 A 
HETATM   30  C   UNL     1      -4.855  -4.351 -34.616  1.00  0.00     0.001 A 
HETATM   31  C   UNL     1      -6.220  -4.339 -34.888  1.00  0.00     0.001 A 
ENDBRANCH  20  22
ENDBRANCH   1  20
TORSDOF 4
ENDMDL
MODEL 8
REMARK VINA RESULT:      -9.1      1.459      2.173
REMARK  4 active torsions:
REMARK  status: ('A' for Active; 'I' for Inactive)
REMARK    1  A    between atoms: C_2  and  C_3 
REMARK    2  A    between atoms: C_2  and  C_19 
REMARK       I    between atoms: C_3  and  N_4 
REMARK    3  A    between atoms: N_4  and  C_5 
REMARK    4  A    between atoms: C_12  and  C_13 
REMARK       I    between atoms: C_13  and  N_14 
ROOT
HETATM    1  C   UNL     1      -8.048   3.697 -33.575  1.00  0.00     0.230 C 
HETATM    2  N   UNL     1      -8.967   3.142 -32.702  1.00  0.00    -0.327 N 
HETATM    3  O   UNL     1      -8.305   4.541 -34.431  1.00  0.00    -0.272 OA
HETATM    4  H   UNL     1      -8.590   2.657 -31.898  1.00  0.00     0.169 HD
ENDROOT
BRANCH   2   5
HETATM    5  C   UNL     1     -10.370   3.275 -32.733  1.00  0.00     0.035 A 
HETATM    6  C   UNL     1     -11.238   2.236 -33.095  1.00  0.00     0.046 A 
HETATM    7  C   UNL     1     -12.634   2.442 -33.032  1.00  0.00     0.030 A 
HETATM    8  C   UNL     1     -13.111   3.683 -32.629  1.00  0.00     0.063 A 
HETATM    9  C   UNL     1     -13.803   1.659 -33.274  1.00  0.00     0.156 A 
HETATM   10  N   UNL     1     -14.473   3.581 -32.674  1.00  0.00    -0.277 N 
HETATM   11  C   UNL     1     -12.275   4.742 -32.268  1.00  0.00     0.034 A 
HETATM   12  H   UNL     1     -15.151   4.301 -32.448  1.00  0.00     0.189 HD
HETATM   13  N   UNL     1     -14.930   2.376 -33.051  1.00  0.00    -0.168 NA
HETATM   14  C   UNL     1     -10.897   4.507 -32.319  1.00  0.00     0.032 A 
BRANCH   9  15
HETATM   15  C   UNL     1     -13.869   0.251 -33.691  1.00  0.00     0.270 C 
HETATM   16  N   UNL     1     -14.930  -0.040 -34.506  1.00  0.00    -0.365 N 
HETATM   17  H   UNL     1     -15.577   0.703 -34.743  1.00  0.00     0.159 HD
HETATM   18  H   UNL     1     -15.068  -0.984 -34.828  1.00  0.00     0.159 HD
HETATM   19  O   UNL     1     -13.072  -0.617 -33.355  1.00  0.00    -0.266 OA
ENDBRANCH   9  15
ENDBRANCH   2   5
BRANCH   1  20
HETATM   20  C   UNL     1      -6.632   3.102 -33.497  1.00  0.00     0.107 C 
HETATM   21  C   UNL     1      -5.687   4.010 -34.290  1.00  0.00     0.025 C 
BRANCH  20  22
HETATM   22  C   UNL     1      -6.541   1.629 -33.875  1.00  0.00    -0.044 A 
HETATM   23  C   UNL     1      -5.518   0.786 -33.403  1.00  0.00     0.020 A 
HETATM   24  C   UNL     1      -5.437  -0.561 -33.794  1.00  0.00    -0.025 A 
HETATM   25  C   UNL     1      -6.411  -1.089 -34.669  1.00  0.00    -0.026 A 
HETATM   26  C   UNL     1      -4.405  -1.395 -33.333  1.00  0.00     0.012 A 
HETATM   27  C   UNL     1      -7.433  -0.251 -35.138  1.00  0.00     0.013 A 
HETATM   28  C   UNL     1      -6.333  -2.438 -35.052  1.00  0.00     0.012 A 
HETATM   29  C   UNL     1      -7.492   1.091 -34.755  1.00  0.00     0.009 A 
HETATM   30  C   UNL     1      -5.302  -3.254 -34.584  1.00  0.00     0.001 A 
HETATM   31  C   UNL     1      -4.338  -2.733 -33.727  1.00  0.00     0.001 A 
ENDBRANCH  20  22
ENDBRANCH   1  20
TORSDOF 4
ENDMDL
MODEL 9
REMARK VINA RESULT:      -9.1      2.156      2.786
REMARK  4 active torsions:
REMARK  status: ('A' for Active; 'I' for Inactive)
REMARK    1  A    between atoms: C_2  and  C_3 
REMARK    2  A    between atoms: C_2  and  C_19 
REMARK       I    between atoms: C_3  and  N_4 
REMARK    3  A    between atoms: N_4  and  C_5 
REMARK    4  A    between atoms: C_12  and  C_13 
REMARK       I    between atoms: C_13  and  N_14 
ROOT
HETATM    1  C   UNL     1      -6.330   2.570 -33.500  1.00  0.00     0.230 C 
HETATM    2  N   UNL     1      -7.580   2.874 -32.990  1.00  0.00    -0.327 N 
HETATM    3  O   UNL     1      -5.849   3.046 -34.526  1.00  0.00    -0.272 OA
HETATM    4  H   UNL     1      -7.751   2.612 -32.028  1.00  0.00     0.169 HD
ENDROOT
BRANCH   2   5
HETATM    5  C   UNL     1      -8.604   3.616 -33.613  1.00  0.00     0.035 A 
HETATM    6  C   UNL     1      -9.827   3.061 -34.014  1.00  0.00     0.046 A 
HETATM    7  C   UNL     1     -10.821   3.897 -34.570  1.00  0.00     0.030 A 
HETATM    8  C   UNL     1     -10.551   5.251 -34.723  1.00  0.00     0.063 A 
HETATM    9  C   UNL     1     -12.156   3.731 -35.051  1.00  0.00     0.156 A 
HETATM   10  N   UNL     1     -11.677   5.785 -35.282  1.00  0.00    -0.277 N 
HETATM   11  C   UNL     1      -9.341   5.835 -34.341  1.00  0.00     0.034 A 
HETATM   12  H   UNL     1     -11.835   6.754 -35.537  1.00  0.00     0.189 HD
HETATM   13  N   UNL     1     -12.669   4.904 -35.489  1.00  0.00    -0.168 NA
HETATM   14  C   UNL     1      -8.380   4.990 -33.774  1.00  0.00     0.032 A 
BRANCH   9  15
HETATM   15  C   UNL     1     -12.950   2.494 -35.086  1.00  0.00     0.270 C 
HETATM   16  N   UNL     1     -13.935   2.438 -34.138  1.00  0.00    -0.365 N 
HETATM   17  H   UNL     1     -14.036   3.216 -33.496  1.00  0.00     0.159 HD
HETATM   18  H   UNL     1     -14.519   1.620 -34.073  1.00  0.00     0.159 HD
HETATM   19  O   UNL     1     -12.771   1.569 -35.869  1.00  0.00    -0.266 OA
ENDBRANCH   9  15
ENDBRANCH   2   5
BRANCH   1  20
HETATM   20  C   UNL     1      -5.568   1.469 -32.745  1.00  0.00     0.107 C 
HETATM   21  C   UNL     1      -4.105   1.903 -32.613  1.00  0.00     0.025 C 
BRANCH  20  22
HETATM   22  C   UNL     1      -5.751   0.066 -33.313  1.00  0.00    -0.044 A 
HETATM   23  C   UNL     1      -4.790  -0.949 -33.152  1.00  0.00     0.020 A 
HETATM   24  C   UNL     1      -4.968  -2.224 -33.715  1.00  0.00    -0.025 A 
HETATM   25  C   UNL     1      -6.143  -2.502 -34.446  1.00  0.00    -0.026 A 
HETATM   26  C   UNL     1      -3.998  -3.230 -33.566  1.00  0.00     0.012 A 
HETATM   27  C   UNL     1      -7.103  -1.493 -34.604  1.00  0.00     0.013 A 
HETATM   28  C   UNL     1      -6.322  -3.780 -34.999  1.00  0.00     0.012 A 
HETATM   29  C   UNL     1      -6.906  -0.223 -34.053  1.00  0.00     0.009 A 
HETATM   30  C   UNL     1      -5.351  -4.769 -34.842  1.00  0.00     0.001 A 
HETATM   31  C   UNL     1      -4.188  -4.494 -34.127  1.00  0.00     0.001 A 
ENDBRANCH  20  22
ENDBRANCH   1  20
TORSDOF 4
ENDMDL
MODEL 10
REMARK VINA RESULT:      -8.7     15.149     18.588
REMARK  4 active torsions:
REMARK  status: ('A' for Active; 'I' for Inactive)
REMARK    1  A    between atoms: C_2  and  C_3 
REMARK    2  A    between atoms: C_2  and  C_19 
REMARK       I    between atoms: C_3  and  N_4 
REMARK    3  A    between atoms: N_4  and  C_5 
REMARK    4  A    between atoms: C_12  and  C_13 
REMARK       I    between atoms: C_13  and  N_14 
ROOT
HETATM    1  C   UNL     1      -4.113 -13.242 -37.269  1.00  0.00     0.230 C 
HETATM    2  N   UNL     1      -3.463 -14.357 -37.767  1.00  0.00    -0.327 N 
HETATM    3  O   UNL     1      -3.691 -12.089 -37.332  1.00  0.00    -0.272 OA
HETATM    4  H   UNL     1      -4.020 -15.195 -37.873  1.00  0.00     0.169 HD
ENDROOT
BRANCH   2   5
HETATM    5  C   UNL     1      -2.145 -14.434 -38.262  1.00  0.00     0.035 A 
HETATM    6  C   UNL     1      -1.101 -15.077 -37.585  1.00  0.00     0.046 A 
HETATM    7  C   UNL     1       0.173 -15.161 -38.190  1.00  0.00     0.030 A 
HETATM    8  C   UNL     1       0.362 -14.582 -39.439  1.00  0.00     0.063 A 
HETATM    9  C   UNL     1       1.436 -15.738 -37.856  1.00  0.00     0.156 A 
HETATM   10  N   UNL     1       1.671 -14.816 -39.753  1.00  0.00    -0.277 N 
HETATM   11  C   UNL     1      -0.654 -13.928 -40.138  1.00  0.00     0.034 A 
HETATM   12  H   UNL     1       2.160 -14.532 -40.594  1.00  0.00     0.189 HD
HETATM   13  N   UNL     1       2.350 -15.515 -38.830  1.00  0.00    -0.168 NA
HETATM   14  C   UNL     1      -1.912 -13.876 -39.527  1.00  0.00     0.032 A 
BRANCH   9  15
HETATM   15  C   UNL     1       1.782 -16.505 -36.651  1.00  0.00     0.270 C 
HETATM   16  N   UNL     1       0.978 -17.591 -36.432  1.00  0.00    -0.365 N 
HETATM   17  H   UNL     1       0.224 -17.776 -37.083  1.00  0.00     0.159 HD
HETATM   18  H   UNL     1       1.128 -18.167 -35.619  1.00  0.00     0.159 HD
HETATM   19  O   UNL     1       2.692 -16.224 -35.879  1.00  0.00    -0.266 OA
ENDBRANCH   9  15
ENDBRANCH   2   5
BRANCH   1  20
HETATM   20  C   UNL     1      -5.408 -13.535 -36.493  1.00  0.00     0.107 C 
HETATM   21  C   UNL     1      -5.114 -14.633 -35.468  1.00  0.00     0.025 C 
BRANCH  20  22
HETATM   22  C   UNL     1      -6.625 -13.811 -37.368  1.00  0.00    -0.044 A 
HETATM   23  C   UNL     1      -7.288 -12.800 -38.086  1.00  0.00     0.020 A 
HETATM   24  C   UNL     1      -8.429 -13.075 -38.860  1.00  0.00    -0.025 A 
HETATM   25  C   UNL     1      -8.914 -14.398 -38.933  1.00  0.00    -0.026 A 
HETATM   26  C   UNL     1      -9.098 -12.059 -39.562  1.00  0.00     0.012 A 
HETATM   27  C   UNL     1      -8.251 -15.409 -38.221  1.00  0.00     0.013 A 
HETATM   28  C   UNL     1     -10.048 -14.673 -39.714  1.00  0.00     0.012 A 
HETATM   29  C   UNL     1      -7.128 -15.117 -37.441  1.00  0.00     0.009 A 
HETATM   30  C   UNL     1     -10.701 -13.654 -40.407  1.00  0.00     0.001 A 
HETATM   31  C   UNL     1     -10.228 -12.347 -40.330  1.00  0.00     0.001 A 
ENDBRANCH  20  22
ENDBRANCH   1  20
TORSDOF 4
ENDMDL
