MODEL 1
REMARK VINA RESULT:      -9.3      0.000      0.000
REMARK  3 active torsions:
REMARK  status: ('A' for Active; 'I' for Inactive)
REMARK    1  A    between atoms: C_6  and  N_7 
REMARK       I    between atoms: N_7  and  C_8 
REMARK       I    between atoms: C_8  and  N_9 
REMARK    2  A    between atoms: N_9  and  C_10 
REMARK    3  A    between atoms: C_11  and  C_12 
ROOT
HETATM    1  C   UNL     1      -5.584  -0.236 -33.704  1.00  0.00     0.049 A 
HETATM    2  C   UNL     1      -6.790  -0.792 -34.169  1.00  0.00     0.021 A 
HETATM    3  C   UNL     1      -6.840  -2.134 -34.578  1.00  0.00     0.016 A 
HETATM    4  C   UNL     1      -5.693  -2.924 -34.515  1.00  0.00     0.001 A 
HETATM    5  C   UNL     1      -4.506  -2.389 -34.016  1.00  0.00     0.002 A 
HETATM    6  C   UNL     1      -4.455  -1.056 -33.599  1.00  0.00     0.030 A 
ENDROOT
BRANCH   1   7
HETATM    7  N   UNL     1      -5.450   1.112 -33.305  1.00  0.00    -0.308 N 
HETATM    8  C   UNL     1      -5.460   1.509 -31.993  1.00  0.00     0.325 C 
HETATM    9  N   UNL     1      -5.070   2.794 -31.742  1.00  0.00    -0.309 N 
HETATM   10  O   UNL     1      -5.897   0.826 -31.068  1.00  0.00    -0.247 OA
HETATM   11  H   UNL     1      -5.339   3.090 -30.811  1.00  0.00     0.170 HD
HETATM   12  H   UNL     1      -5.780   1.827 -33.939  1.00  0.00     0.170 HD
BRANCH   9  13
HETATM   13  C   UNL     1      -4.175   3.635 -32.432  1.00  0.00     0.039 A 
HETATM   14  C   UNL     1      -4.473   4.276 -33.634  1.00  0.00     0.072 A 
HETATM   15  C   UNL     1      -3.495   5.033 -34.280  1.00  0.00     0.124 A 
HETATM   16  C   UNL     1      -2.210   5.173 -33.752  1.00  0.00    -0.023 A 
HETATM   17  F   UNL     1      -3.804   5.618 -35.446  1.00  0.00    -0.205 F 
HETATM   18  C   UNL     1      -1.155   5.942 -34.486  1.00  0.00     0.051 C 
HETATM   19  C   UNL     1      -1.907   4.515 -32.558  1.00  0.00     0.012 A 
HETATM   20  C   UNL     1      -2.882   3.751 -31.907  1.00  0.00     0.030 A 
ENDBRANCH   9  13
ENDBRANCH   1   7
BRANCH   2  21
HETATM   21  C   UNL     1      -8.076  -0.063 -34.056  1.00  0.00     0.089 A 
HETATM   22  N   UNL     1      -8.344   0.886 -34.904  1.00  0.00    -0.171 NA
HETATM   23  N   UNL     1      -9.545   1.518 -34.752  1.00  0.00    -0.243 N 
HETATM   24  C   UNL     1     -10.483   1.236 -33.793  1.00  0.00     0.261 A 
HETATM   25  H   UNL     1      -9.760   2.248 -35.422  1.00  0.00     0.192 HD
HETATM   26  O   UNL     1     -11.553   1.828 -33.703  1.00  0.00    -0.267 OA
HETATM   27  C   UNL     1     -10.134   0.161 -32.844  1.00  0.00     0.078 A 
HETATM   28  C   UNL     1      -8.966  -0.479 -32.949  1.00  0.00     0.040 A 
ENDBRANCH   2  21
TORSDOF 3
ENDMDL
MODEL 2
REMARK VINA RESULT:      -8.9      2.637      5.992
REMARK  3 active torsions:
REMARK  status: ('A' for Active; 'I' for Inactive)
REMARK    1  A    between atoms: C_6  and  N_7 
REMARK       I    between atoms: N_7  and  C_8 
REMARK       I    between atoms: C_8  and  N_9 
REMARK    2  A    between atoms: N_9  and  C_10 
REMARK    3  A    between atoms: C_11  and  C_12 
ROOT
HETATM    1  C   UNL     1      -4.007   2.370 -32.382  1.00  0.00     0.049 A 
HETATM    2  C   UNL     1      -5.276   2.829 -31.978  1.00  0.00     0.021 A 
HETATM    3  C   UNL     1      -5.463   4.176 -31.630  1.00  0.00     0.016 A 
HETATM    4  C   UNL     1      -4.392   5.067 -31.693  1.00  0.00     0.001 A 
HETATM    5  C   UNL     1      -3.145   4.626 -32.131  1.00  0.00     0.002 A 
HETATM    6  C   UNL     1      -2.956   3.287 -32.488  1.00  0.00     0.030 A 
ENDROOT
BRANCH   1   7
HETATM    7  N   UNL     1      -3.736   1.025 -32.717  1.00  0.00    -0.308 N 
HETATM    8  C   UNL     1      -3.227   0.119 -31.823  1.00  0.00     0.325 C 
HETATM    9  N   UNL     1      -3.253  -1.193 -32.203  1.00  0.00    -0.309 N 
HETATM   10  O   UNL     1      -2.661   0.426 -30.775  1.00  0.00    -0.247 OA
HETATM   11  H   UNL     1      -2.647  -1.761 -31.623  1.00  0.00     0.170 HD
HETATM   12  H   UNL     1      -3.492   0.817 -33.675  1.00  0.00     0.170 HD
BRANCH   9  13
HETATM   13  C   UNL     1      -4.137  -1.887 -33.053  1.00  0.00     0.039 A 
HETATM   14  C   UNL     1      -5.404  -1.426 -33.408  1.00  0.00     0.072 A 
HETATM   15  C   UNL     1      -6.237  -2.219 -34.198  1.00  0.00     0.124 A 
HETATM   16  C   UNL     1      -5.835  -3.475 -34.654  1.00  0.00    -0.023 A 
HETATM   17  F   UNL     1      -7.458  -1.759 -34.504  1.00  0.00    -0.205 F 
HETATM   18  C   UNL     1      -6.761  -4.338 -35.454  1.00  0.00     0.051 C 
HETATM   19  C   UNL     1      -4.572  -3.945 -34.281  1.00  0.00     0.012 A 
HETATM   20  C   UNL     1      -3.734  -3.157 -33.485  1.00  0.00     0.030 A 
ENDBRANCH   9  13
ENDBRANCH   1   7
BRANCH   2  21
HETATM   21  C   UNL     1      -6.483   1.978 -32.098  1.00  0.00     0.089 A 
HETATM   22  N   UNL     1      -6.806   1.191 -31.115  1.00  0.00    -0.171 NA
HETATM   23  N   UNL     1      -7.932   0.436 -31.281  1.00  0.00    -0.243 N 
HETATM   24  C   UNL     1      -8.743   0.441 -32.386  1.00  0.00     0.261 A 
HETATM   25  H   UNL     1      -8.191  -0.167 -30.509  1.00  0.00     0.192 HD
HETATM   26  O   UNL     1      -9.750  -0.251 -32.486  1.00  0.00    -0.267 OA
HETATM   27  C   UNL     1      -8.335   1.340 -33.483  1.00  0.00     0.078 A 
HETATM   28  C   UNL     1      -7.236   2.091 -33.368  1.00  0.00     0.040 A 
ENDBRANCH   2  21
TORSDOF 3
ENDMDL
MODEL 3
REMARK VINA RESULT:      -8.7      2.741      5.824
REMARK  3 active torsions:
REMARK  status: ('A' for Active; 'I' for Inactive)
REMARK    1  A    between atoms: C_6  and  N_7 
REMARK       I    between atoms: N_7  and  C_8 
REMARK       I    between atoms: C_8  and  N_9 
REMARK    2  A    between atoms: N_9  and  C_10 
REMARK    3  A    between atoms: C_11  and  C_12 
ROOT
HETATM    1  C   UNL     1      -5.746   3.068 -33.106  1.00  0.00     0.049 A 
HETATM    2  C   UNL     1      -7.121   3.317 -32.928  1.00  0.00     0.021 A 
HETATM    3  C   UNL     1      -7.619   4.627 -33.002  1.00  0.00     0.016 A 
HETATM    4  C   UNL     1      -6.751   5.688 -33.263  1.00  0.00     0.001 A 
HETATM    5  C   UNL     1      -5.396   5.441 -33.481  1.00  0.00     0.002 A 
HETATM    6  C   UNL     1      -4.898   4.136 -33.417  1.00  0.00     0.030 A 
ENDROOT
BRANCH   1   7
HETATM    7  N   UNL     1      -5.169   1.782 -33.015  1.00  0.00    -0.308 N 
HETATM    8  C   UNL     1      -4.823   1.199 -31.824  1.00  0.00     0.325 C 
HETATM    9  N   UNL     1      -4.516  -0.131 -31.862  1.00  0.00    -0.309 N 
HETATM   10  O   UNL     1      -4.668   1.818 -30.772  1.00  0.00    -0.247 OA
HETATM   11  H   UNL     1      -4.036  -0.428 -31.021  1.00  0.00     0.170 HD
HETATM   12  H   UNL     1      -4.609   1.460 -33.792  1.00  0.00     0.170 HD
BRANCH   9  13
HETATM   13  C   UNL     1      -4.967  -1.155 -32.719  1.00  0.00     0.039 A 
HETATM   14  C   UNL     1      -4.146  -2.148 -33.252  1.00  0.00     0.072 A 
HETATM   15  C   UNL     1      -4.671  -3.077 -34.150  1.00  0.00     0.124 A 
HETATM   16  C   UNL     1      -6.012  -3.047 -34.534  1.00  0.00    -0.023 A 
HETATM   17  F   UNL     1      -3.851  -4.005 -34.663  1.00  0.00    -0.205 F 
HETATM   18  C   UNL     1      -6.547  -4.017 -35.542  1.00  0.00     0.051 C 
HETATM   19  C   UNL     1      -6.830  -2.040 -34.015  1.00  0.00     0.012 A 
HETATM   20  C   UNL     1      -6.309  -1.102 -33.117  1.00  0.00     0.030 A 
ENDBRANCH   9  13
ENDBRANCH   1   7
BRANCH   2  21
HETATM   21  C   UNL     1      -8.107   2.212 -32.861  1.00  0.00     0.089 A 
HETATM   22  N   UNL     1      -8.386   1.678 -31.710  1.00  0.00    -0.171 NA
HETATM   23  N   UNL     1      -9.305   0.669 -31.711  1.00  0.00    -0.243 N 
HETATM   24  C   UNL     1      -9.955   0.180 -32.815  1.00  0.00     0.261 A 
HETATM   25  H   UNL     1      -9.533   0.262 -30.812  1.00  0.00     0.192 HD
HETATM   26  O   UNL     1     -10.781  -0.725 -32.764  1.00  0.00    -0.267 OA
HETATM   27  C   UNL     1      -9.602   0.806 -34.103  1.00  0.00     0.078 A 
HETATM   28  C   UNL     1      -8.701   1.791 -34.151  1.00  0.00     0.040 A 
ENDBRANCH   2  21
TORSDOF 3
ENDMDL
MODEL 4
REMARK VINA RESULT:      -8.4      3.710      5.935
REMARK  3 active torsions:
REMARK  status: ('A' for Active; 'I' for Inactive)
REMARK    1  A    between atoms: C_6  and  N_7 
REMARK       I    between atoms: N_7  and  C_8 
REMARK       I    between atoms: C_8  and  N_9 
REMARK    2  A    between atoms: N_9  and  C_10 
REMARK    3  A    between atoms: C_11  and  C_12 
ROOT
HETATM    1  C   UNL     1      -7.626   1.591 -31.817  1.00  0.00     0.049 A 
HETATM    2  C   UNL     1      -8.898   2.185 -31.698  1.00  0.00     0.021 A 
HETATM    3  C   UNL     1      -9.144   3.138 -30.698  1.00  0.00     0.016 A 
HETATM    4  C   UNL     1      -8.123   3.507 -29.822  1.00  0.00     0.001 A 
HETATM    5  C   UNL     1      -6.852   2.953 -29.962  1.00  0.00     0.002 A 
HETATM    6  C   UNL     1      -6.600   2.011 -30.964  1.00  0.00     0.030 A 
ENDROOT
BRANCH   1   7
HETATM    7  N   UNL     1      -7.314   0.605 -32.778  1.00  0.00    -0.308 N 
HETATM    8  C   UNL     1      -6.869   0.903 -34.040  1.00  0.00     0.325 C 
HETATM    9  N   UNL     1      -6.367  -0.136 -34.771  1.00  0.00    -0.309 N 
HETATM   10  O   UNL     1      -6.998   2.003 -34.575  1.00  0.00    -0.247 OA
HETATM   11  H   UNL     1      -6.297   0.099 -35.754  1.00  0.00     0.170 HD
HETATM   12  H   UNL     1      -7.809  -0.275 -32.729  1.00  0.00     0.170 HD
BRANCH   9  13
HETATM   13  C   UNL     1      -5.722  -1.321 -34.363  1.00  0.00     0.039 A 
HETATM   14  C   UNL     1      -4.653  -1.361 -33.470  1.00  0.00     0.072 A 
HETATM   15  C   UNL     1      -4.032  -2.577 -33.182  1.00  0.00     0.124 A 
HETATM   16  C   UNL     1      -4.456  -3.772 -33.765  1.00  0.00    -0.023 A 
HETATM   17  F   UNL     1      -2.992  -2.581 -32.337  1.00  0.00    -0.205 F 
HETATM   18  C   UNL     1      -3.745  -5.060 -33.489  1.00  0.00     0.051 C 
HETATM   19  C   UNL     1      -5.516  -3.727 -34.675  1.00  0.00     0.012 A 
HETATM   20  C   UNL     1      -6.140  -2.511 -34.972  1.00  0.00     0.030 A 
ENDBRANCH   9  13
ENDBRANCH   1   7
BRANCH   2  21
HETATM   21  C   UNL     1      -9.946   1.987 -32.727  1.00  0.00     0.089 A 
HETATM   22  N   UNL     1     -10.489   0.813 -32.863  1.00  0.00    -0.171 NA
HETATM   23  N   UNL     1     -11.452   0.694 -33.824  1.00  0.00    -0.243 N 
HETATM   24  C   UNL     1     -11.892   1.698 -34.646  1.00  0.00     0.261 A 
HETATM   25  H   UNL     1     -11.885  -0.218 -33.920  1.00  0.00     0.192 HD
HETATM   26  O   UNL     1     -12.767   1.543 -35.491  1.00  0.00    -0.267 OA
HETATM   27  C   UNL     1     -11.242   3.011 -34.467  1.00  0.00     0.078 A 
HETATM   28  C   UNL     1     -10.289   3.172 -33.545  1.00  0.00     0.040 A 
ENDBRANCH   2  21
TORSDOF 3
ENDMDL
MODEL 5
REMARK VINA RESULT:      -8.4      3.403      7.111
REMARK  3 active torsions:
REMARK  status: ('A' for Active; 'I' for Inactive)
REMARK    1  A    between atoms: C_6  and  N_7 
REMARK       I    between atoms: N_7  and  C_8 
REMARK       I    between atoms: C_8  and  N_9 
REMARK    2  A    between atoms: N_9  and  C_10 
REMARK    3  A    between atoms: C_11  and  C_12 
ROOT
HETATM    1  C   UNL     1      -7.273  -0.203 -33.506  1.00  0.00     0.049 A 
HETATM    2  C   UNL     1      -6.181  -0.189 -32.616  1.00  0.00     0.021 A 
HETATM    3  C   UNL     1      -5.148  -1.129 -32.748  1.00  0.00     0.016 A 
HETATM    4  C   UNL     1      -5.196  -2.078 -33.770  1.00  0.00     0.001 A 
HETATM    5  C   UNL     1      -6.254  -2.070 -34.678  1.00  0.00     0.002 A 
HETATM    6  C   UNL     1      -7.280  -1.128 -34.556  1.00  0.00     0.030 A 
ENDROOT
BRANCH   1   7
HETATM    7  N   UNL     1      -8.362   0.692 -33.417  1.00  0.00    -0.308 N 
HETATM    8  C   UNL     1      -8.392   1.901 -34.062  1.00  0.00     0.325 C 
HETATM    9  N   UNL     1      -9.597   2.544 -34.095  1.00  0.00    -0.309 N 
HETATM   10  O   UNL     1      -7.397   2.474 -34.502  1.00  0.00    -0.247 OA
HETATM   11  H   UNL     1      -9.493   3.517 -34.355  1.00  0.00     0.170 HD
HETATM   12  H   UNL     1      -8.915   0.679 -32.571  1.00  0.00     0.170 HD
BRANCH   9  13
HETATM   13  C   UNL     1     -10.912   2.036 -34.084  1.00  0.00     0.039 A 
HETATM   14  C   UNL     1     -11.259   0.775 -33.601  1.00  0.00     0.072 A 
HETATM   15  C   UNL     1     -12.578   0.332 -33.699  1.00  0.00     0.124 A 
HETATM   16  C   UNL     1     -13.576   1.123 -34.270  1.00  0.00    -0.023 A 
HETATM   17  F   UNL     1     -12.877  -0.894 -33.247  1.00  0.00    -0.205 F 
HETATM   18  C   UNL     1     -14.975   0.611 -34.418  1.00  0.00     0.051 C 
HETATM   19  C   UNL     1     -13.223   2.379 -34.772  1.00  0.00     0.012 A 
HETATM   20  C   UNL     1     -11.901   2.828 -34.681  1.00  0.00     0.030 A 
ENDBRANCH   9  13
ENDBRANCH   1   7
BRANCH   2  21
HETATM   21  C   UNL     1      -5.978   0.921 -31.655  1.00  0.00     0.089 A 
HETATM   22  N   UNL     1      -6.749   1.007 -30.612  1.00  0.00    -0.171 NA
HETATM   23  N   UNL     1      -6.510   2.047 -29.761  1.00  0.00    -0.243 N 
HETATM   24  C   UNL     1      -5.533   2.996 -29.910  1.00  0.00     0.261 A 
HETATM   25  H   UNL     1      -7.103   2.106 -28.940  1.00  0.00     0.192 HD
HETATM   26  O   UNL     1      -5.352   3.910 -29.112  1.00  0.00    -0.267 OA
HETATM   27  C   UNL     1      -4.687   2.869 -31.113  1.00  0.00     0.078 A 
HETATM   28  C   UNL     1      -4.890   1.872 -31.978  1.00  0.00     0.040 A 
ENDBRANCH   2  21
TORSDOF 3
ENDMDL
MODEL 6
REMARK VINA RESULT:      -8.3      3.219      7.060
REMARK  3 active torsions:
REMARK  status: ('A' for Active; 'I' for Inactive)
REMARK    1  A    between atoms: C_6  and  N_7 
REMARK       I    between atoms: N_7  and  C_8 
REMARK       I    between atoms: C_8  and  N_9 
REMARK    2  A    between atoms: N_9  and  C_10 
REMARK    3  A    between atoms: C_11  and  C_12 
ROOT
HETATM    1  C   UNL     1      -6.822   3.574 -33.156  1.00  0.00     0.049 A 
HETATM    2  C   UNL     1      -6.505   4.913 -33.458  1.00  0.00     0.021 A 
HETATM    3  C   UNL     1      -7.457   5.926 -33.265  1.00  0.00     0.016 A 
HETATM    4  C   UNL     1      -8.719   5.610 -32.765  1.00  0.00     0.001 A 
HETATM    5  C   UNL     1      -9.023   4.292 -32.426  1.00  0.00     0.002 A 
HETATM    6  C   UNL     1      -8.075   3.281 -32.607  1.00  0.00     0.030 A 
ENDROOT
BRANCH   1   7
HETATM    7  N   UNL     1      -5.928   2.499 -33.352  1.00  0.00    -0.308 N 
HETATM    8  C   UNL     1      -5.047   2.073 -32.391  1.00  0.00     0.325 C 
HETATM    9  N   UNL     1      -4.428   0.877 -32.619  1.00  0.00    -0.309 N 
HETATM   10  O   UNL     1      -4.709   2.745 -31.417  1.00  0.00    -0.247 OA
HETATM   11  H   UNL     1      -3.626   0.751 -32.014  1.00  0.00     0.170 HD
HETATM   12  H   UNL     1      -5.607   2.317 -34.293  1.00  0.00     0.170 HD
BRANCH   9  13
HETATM   13  C   UNL     1      -4.857  -0.259 -33.334  1.00  0.00     0.039 A 
HETATM   14  C   UNL     1      -6.072  -0.344 -34.013  1.00  0.00     0.072 A 
HETATM   15  C   UNL     1      -6.440  -1.537 -34.633  1.00  0.00     0.124 A 
HETATM   16  C   UNL     1      -5.619  -2.665 -34.599  1.00  0.00    -0.023 A 
HETATM   17  F   UNL     1      -7.625  -1.596 -35.257  1.00  0.00    -0.205 F 
HETATM   18  C   UNL     1      -6.053  -3.955 -35.222  1.00  0.00     0.051 C 
HETATM   19  C   UNL     1      -4.410  -2.585 -33.902  1.00  0.00     0.012 A 
HETATM   20  C   UNL     1      -4.036  -1.392 -33.274  1.00  0.00     0.030 A 
ENDBRANCH   9  13
ENDBRANCH   1   7
BRANCH   2  21
HETATM   21  C   UNL     1      -5.121   5.327 -33.787  1.00  0.00     0.089 A 
HETATM   22  N   UNL     1      -4.634   5.042 -34.958  1.00  0.00    -0.171 NA
HETATM   23  N   UNL     1      -3.356   5.454 -35.205  1.00  0.00    -0.243 N 
HETATM   24  C   UNL     1      -2.553   6.139 -34.331  1.00  0.00     0.261 A 
HETATM   25  H   UNL     1      -2.982   5.244 -36.123  1.00  0.00     0.192 HD
HETATM   26  O   UNL     1      -1.411   6.495 -34.603  1.00  0.00    -0.267 OA
HETATM   27  C   UNL     1      -3.139   6.433 -33.009  1.00  0.00     0.078 A 
HETATM   28  C   UNL     1      -4.383   6.041 -32.720  1.00  0.00     0.040 A 
ENDBRANCH   2  21
TORSDOF 3
ENDMDL
MODEL 7
REMARK VINA RESULT:      -8.2      2.904      6.322
REMARK  3 active torsions:
REMARK  status: ('A' for Active; 'I' for Inactive)
REMARK    1  A    between atoms: C_6  and  N_7 
REMARK       I    between atoms: N_7  and  C_8 
REMARK       I    between atoms: C_8  and  N_9 
REMARK    2  A    between atoms: N_9  and  C_10 
REMARK    3  A    between atoms: C_11  and  C_12 
ROOT
HETATM    1  C   UNL     1      -8.559   0.833 -33.293  1.00  0.00     0.049 A 
HETATM    2  C   UNL     1      -8.086   2.048 -32.760  1.00  0.00     0.021 A 
HETATM    3  C   UNL     1      -8.986   3.070 -32.420  1.00  0.00     0.016 A 
HETATM    4  C   UNL     1     -10.356   2.881 -32.603  1.00  0.00     0.001 A 
HETATM    5  C   UNL     1     -10.831   1.664 -33.091  1.00  0.00     0.002 A 
HETATM    6  C   UNL     1      -9.939   0.640 -33.421  1.00  0.00     0.030 A 
ENDROOT
BRANCH   1   7
HETATM    7  N   UNL     1      -7.713  -0.227 -33.685  1.00  0.00    -0.308 N 
HETATM    8  C   UNL     1      -7.081  -0.270 -34.901  1.00  0.00     0.325 C 
HETATM    9  N   UNL     1      -6.103  -1.213 -35.047  1.00  0.00    -0.309 N 
HETATM   10  O   UNL     1      -7.415   0.401 -35.876  1.00  0.00    -0.247 OA
HETATM   11  H   UNL     1      -5.864  -1.355 -36.021  1.00  0.00     0.170 HD
HETATM   12  H   UNL     1      -7.894  -1.144 -33.299  1.00  0.00     0.170 HD
BRANCH   9  13
HETATM   13  C   UNL     1      -5.239  -1.796 -34.099  1.00  0.00     0.039 A 
HETATM   14  C   UNL     1      -4.711  -1.119 -33.000  1.00  0.00     0.072 A 
HETATM   15  C   UNL     1      -3.806  -1.762 -32.157  1.00  0.00     0.124 A 
HETATM   16  C   UNL     1      -3.407  -3.081 -32.378  1.00  0.00    -0.023 A 
HETATM   17  F   UNL     1      -3.298  -1.078 -31.122  1.00  0.00    -0.205 F 
HETATM   18  C   UNL     1      -2.391  -3.738 -31.496  1.00  0.00     0.051 C 
HETATM   19  C   UNL     1      -3.921  -3.753 -33.491  1.00  0.00     0.012 A 
HETATM   20  C   UNL     1      -4.827  -3.113 -34.343  1.00  0.00     0.030 A 
ENDBRANCH   9  13
ENDBRANCH   1   7
BRANCH   2  21
HETATM   21  C   UNL     1      -6.672   2.218 -32.352  1.00  0.00     0.089 A 
HETATM   22  N   UNL     1      -5.812   2.676 -33.213  1.00  0.00    -0.171 NA
HETATM   23  N   UNL     1      -4.526   2.816 -32.777  1.00  0.00    -0.243 N 
HETATM   24  C   UNL     1      -4.071   2.519 -31.519  1.00  0.00     0.261 A 
HETATM   25  H   UNL     1      -3.859   3.186 -33.444  1.00  0.00     0.192 HD
HETATM   26  O   UNL     1      -2.904   2.669 -31.172  1.00  0.00    -0.267 OA
HETATM   27  C   UNL     1      -5.075   1.991 -30.576  1.00  0.00     0.078 A 
HETATM   28  C   UNL     1      -6.343   1.829 -30.961  1.00  0.00     0.040 A 
ENDBRANCH   2  21
TORSDOF 3
ENDMDL
MODEL 8
REMARK VINA RESULT:      -7.9     15.395     17.979
REMARK  3 active torsions:
REMARK  status: ('A' for Active; 'I' for Inactive)
REMARK    1  A    between atoms: C_6  and  N_7 
REMARK       I    between atoms: N_7  and  C_8 
REMARK       I    between atoms: C_8  and  N_9 
REMARK    2  A    between atoms: N_9  and  C_10 
REMARK    3  A    between atoms: C_11  and  C_12 
ROOT
HETATM    1  C   UNL     1      -2.202 -14.023 -39.033  1.00  0.00     0.049 A 
HETATM    2  C   UNL     1      -1.930 -14.460 -40.344  1.00  0.00     0.021 A 
HETATM    3  C   UNL     1      -0.617 -14.772 -40.728  1.00  0.00     0.016 A 
HETATM    4  C   UNL     1       0.424 -14.658 -39.806  1.00  0.00     0.001 A 
HETATM    5  C   UNL     1       0.153 -14.266 -38.496  1.00  0.00     0.002 A 
HETATM    6  C   UNL     1      -1.155 -13.964 -38.107  1.00  0.00     0.030 A 
ENDROOT
BRANCH   1   7
HETATM    7  N   UNL     1      -3.492 -13.663 -38.584  1.00  0.00    -0.308 N 
HETATM    8  C   UNL     1      -3.904 -12.362 -38.457  1.00  0.00     0.325 C 
HETATM    9  N   UNL     1      -5.241 -12.163 -38.260  1.00  0.00    -0.309 N 
HETATM   10  O   UNL     1      -3.141 -11.399 -38.399  1.00  0.00    -0.247 OA
HETATM   11  H   UNL     1      -5.433 -11.225 -37.928  1.00  0.00     0.170 HD
HETATM   12  H   UNL     1      -3.964 -14.293 -37.949  1.00  0.00     0.170 HD
BRANCH   9  13
HETATM   13  C   UNL     1      -6.355 -12.922 -38.670  1.00  0.00     0.039 A 
HETATM   14  C   UNL     1      -6.470 -13.528 -39.921  1.00  0.00     0.072 A 
HETATM   15  C   UNL     1      -7.643 -14.200 -40.263  1.00  0.00     0.124 A 
HETATM   16  C   UNL     1      -8.720 -14.289 -39.379  1.00  0.00    -0.023 A 
HETATM   17  F   UNL     1      -7.734 -14.752 -41.480  1.00  0.00    -0.205 F 
HETATM   18  C   UNL     1      -9.994 -14.965 -39.782  1.00  0.00     0.051 C 
HETATM   19  C   UNL     1      -8.612 -13.664 -38.134  1.00  0.00     0.012 A 
HETATM   20  C   UNL     1      -7.439 -12.986 -37.786  1.00  0.00     0.030 A 
ENDBRANCH   9  13
ENDBRANCH   1   7
BRANCH   2  21
HETATM   21  C   UNL     1      -3.019 -14.798 -41.290  1.00  0.00     0.089 A 
HETATM   22  N   UNL     1      -3.545 -13.857 -42.016  1.00  0.00    -0.171 NA
HETATM   23  N   UNL     1      -4.540 -14.231 -42.873  1.00  0.00    -0.243 N 
HETATM   24  C   UNL     1      -5.023 -15.504 -43.033  1.00  0.00     0.261 A 
HETATM   25  H   UNL     1      -4.941 -13.500 -43.449  1.00  0.00     0.192 HD
HETATM   26  O   UNL     1      -5.915 -15.792 -43.823  1.00  0.00    -0.267 OA
HETATM   27  C   UNL     1      -4.407 -16.540 -42.182  1.00  0.00     0.078 A 
HETATM   28  C   UNL     1      -3.436 -16.219 -41.323  1.00  0.00     0.040 A 
ENDBRANCH   2  21
TORSDOF 3
ENDMDL
MODEL 9
REMARK VINA RESULT:      -7.9      3.422      6.640
REMARK  3 active torsions:
REMARK  status: ('A' for Active; 'I' for Inactive)
REMARK    1  A    between atoms: C_6  and  N_7 
REMARK       I    between atoms: N_7  and  C_8 
REMARK       I    between atoms: C_8  and  N_9 
REMARK    2  A    between atoms: N_9  and  C_10 
REMARK    3  A    between atoms: C_11  and  C_12 
ROOT
HETATM    1  C   UNL     1      -9.166   3.006 -34.020  1.00  0.00     0.049 A 
HETATM    2  C   UNL     1      -8.968   4.383 -34.238  1.00  0.00     0.021 A 
HETATM    3  C   UNL     1      -9.960   5.150 -34.869  1.00  0.00     0.016 A 
HETATM    4  C   UNL     1     -11.152   4.549 -35.274  1.00  0.00     0.001 A 
HETATM    5  C   UNL     1     -11.369   3.195 -35.023  1.00  0.00     0.002 A 
HETATM    6  C   UNL     1     -10.387   2.430 -34.386  1.00  0.00     0.030 A 
ENDROOT
BRANCH   1   7
HETATM    7  N   UNL     1      -8.203   2.166 -33.420  1.00  0.00    -0.308 N 
HETATM    8  C   UNL     1      -8.379   1.581 -32.193  1.00  0.00     0.325 C 
HETATM    9  N   UNL     1      -7.491   0.601 -31.851  1.00  0.00    -0.309 N 
HETATM   10  O   UNL     1      -9.203   1.958 -31.361  1.00  0.00    -0.247 OA
HETATM   11  H   UNL     1      -7.523   0.398 -30.859  1.00  0.00     0.170 HD
HETATM   12  H   UNL     1      -7.231   2.324 -33.648  1.00  0.00     0.170 HD
BRANCH   9  13
HETATM   13  C   UNL     1      -6.767  -0.305 -32.652  1.00  0.00     0.039 A 
HETATM   14  C   UNL     1      -7.353  -1.209 -33.535  1.00  0.00     0.072 A 
HETATM   15  C   UNL     1      -6.556  -2.117 -34.233  1.00  0.00     0.124 A 
HETATM   16  C   UNL     1      -5.170  -2.146 -34.075  1.00  0.00    -0.023 A 
HETATM   17  F   UNL     1      -7.151  -2.990 -35.058  1.00  0.00    -0.205 F 
HETATM   18  C   UNL     1      -4.333  -3.163 -34.788  1.00  0.00     0.051 C 
HETATM   19  C   UNL     1      -4.584  -1.252 -33.174  1.00  0.00     0.012 A 
HETATM   20  C   UNL     1      -5.379  -0.342 -32.468  1.00  0.00     0.030 A 
ENDBRANCH   9  13
ENDBRANCH   1   7
BRANCH   2  21
HETATM   21  C   UNL     1      -7.820   5.106 -33.641  1.00  0.00     0.089 A 
HETATM   22  N   UNL     1      -6.622   4.874 -34.088  1.00  0.00    -0.171 NA
HETATM   23  N   UNL     1      -5.606   5.574 -33.503  1.00  0.00    -0.243 N 
HETATM   24  C   UNL     1      -5.744   6.493 -32.496  1.00  0.00     0.261 A 
HETATM   25  H   UNL     1      -4.673   5.404 -33.861  1.00  0.00     0.192 HD
HETATM   26  O   UNL     1      -4.799   7.103 -32.006  1.00  0.00    -0.267 OA
HETATM   27  C   UNL     1      -7.119   6.718 -32.009  1.00  0.00     0.078 A 
HETATM   28  C   UNL     1      -8.142   6.049 -32.546  1.00  0.00     0.040 A 
ENDBRANCH   2  21
TORSDOF 3
ENDMDL
MODEL 10
REMARK VINA RESULT:      -7.8      4.738      8.747
REMARK  3 active torsions:
REMARK  status: ('A' for Active; 'I' for Inactive)
REMARK    1  A    between atoms: C_6  and  N_7 
REMARK       I    between atoms: N_7  and  C_8 
REMARK       I    between atoms: C_8  and  N_9 
REMARK    2  A    between atoms: N_9  and  C_10 
REMARK    3  A    between atoms: C_11  and  C_12 
ROOT
HETATM    1  C   UNL     1      -1.631   6.817 -29.108  1.00  0.00     0.049 A 
HETATM    2  C   UNL     1      -0.726   7.029 -30.166  1.00  0.00     0.021 A 
HETATM    3  C   UNL     1       0.540   7.581 -29.916  1.00  0.00     0.016 A 
HETATM    4  C   UNL     1       0.909   7.913 -28.613  1.00  0.00     0.001 A 
HETATM    5  C   UNL     1       0.033   7.666 -27.557  1.00  0.00     0.002 A 
HETATM    6  C   UNL     1      -1.225   7.108 -27.801  1.00  0.00     0.030 A 
ENDROOT
BRANCH   1   7
HETATM    7  N   UNL     1      -2.930   6.295 -29.287  1.00  0.00    -0.308 N 
HETATM    8  C   UNL     1      -3.984   7.048 -29.737  1.00  0.00     0.325 C 
HETATM    9  N   UNL     1      -5.109   6.365 -30.103  1.00  0.00    -0.309 N 
HETATM   10  O   UNL     1      -4.010   8.278 -29.722  1.00  0.00    -0.247 OA
HETATM   11  H   UNL     1      -5.910   6.980 -30.179  1.00  0.00     0.170 HD
HETATM   12  H   UNL     1      -3.216   5.526 -28.697  1.00  0.00     0.170 HD
BRANCH   9  13
HETATM   13  C   UNL     1      -5.268   5.064 -30.618  1.00  0.00     0.039 A 
HETATM   14  C   UNL     1      -5.710   3.974 -29.869  1.00  0.00     0.072 A 
HETATM   15  C   UNL     1      -5.766   2.707 -30.450  1.00  0.00     0.124 A 
HETATM   16  C   UNL     1      -5.393   2.493 -31.777  1.00  0.00    -0.023 A 
HETATM   17  F   UNL     1      -6.173   1.675 -29.697  1.00  0.00    -0.205 F 
HETATM   18  C   UNL     1      -5.406   1.118 -32.370  1.00  0.00     0.051 C 
HETATM   19  C   UNL     1      -4.932   3.582 -32.522  1.00  0.00     0.012 A 
HETATM   20  C   UNL     1      -4.869   4.854 -31.944  1.00  0.00     0.030 A 
ENDBRANCH   9  13
ENDBRANCH   1   7
BRANCH   2  21
HETATM   21  C   UNL     1      -0.986   6.501 -31.527  1.00  0.00     0.089 A 
HETATM   22  N   UNL     1      -1.063   5.216 -31.705  1.00  0.00    -0.171 NA
HETATM   23  N   UNL     1      -1.311   4.790 -32.979  1.00  0.00    -0.243 N 
HETATM   24  C   UNL     1      -1.485   5.597 -34.073  1.00  0.00     0.261 A 
HETATM   25  H   UNL     1      -1.385   3.789 -33.115  1.00  0.00     0.192 HD
HETATM   26  O   UNL     1      -1.713   5.166 -35.198  1.00  0.00    -0.267 OA
HETATM   27  C   UNL     1      -1.378   7.049 -33.829  1.00  0.00     0.078 A 
HETATM   28  C   UNL     1      -1.129   7.510 -32.601  1.00  0.00     0.040 A 
ENDBRANCH   2  21
TORSDOF 3
ENDMDL
