MODEL 1
REMARK VINA RESULT:      -9.7      0.000      0.000
REMARK  6 active torsions:
REMARK  status: ('A' for Active; 'I' for Inactive)
REMARK    1  A    between atoms: C_4  and  C_5 
REMARK    2  A    between atoms: C_5  and  N_6 
REMARK    3  A    between atoms: C_10  and  C_11 
REMARK    4  A    between atoms: C_11  and  C_12 
REMARK    5  A    between atoms: N_21  and  C_22 
REMARK    6  A    between atoms: C_22  and  C_23 
ROOT
HETATM    1  C   UNL     1      -7.129   1.915 -32.392  1.00  0.00     0.149 C 
HETATM    2  N   UNL     1      -7.527   2.910 -33.376  1.00  0.00    -0.220 NA
HETATM    3  C   UNL     1      -6.586   3.916 -33.472  1.00  0.00     0.304 C 
HETATM    4  O   UNL     1      -6.641   4.774 -34.334  1.00  0.00    -0.253 OA
HETATM    5  N   UNL     1      -5.689   3.791 -32.463  1.00  0.00    -0.270 N 
HETATM    6  C   UNL     1      -5.986   2.694 -31.706  1.00  0.00     0.257 C 
HETATM    7  O   UNL     1      -5.465   2.377 -30.646  1.00  0.00    -0.270 OA
HETATM    8  H   UNL     1      -7.807   2.573 -34.295  1.00  0.00     0.134 HD
ENDROOT
BRANCH   1   9
HETATM    9  C   UNL     1      -8.265   1.559 -31.376  1.00  0.00     0.028 C 
HETATM   10  C   UNL     1      -9.240   0.462 -31.841  1.00  0.00     0.035 C 
HETATM   11  C   UNL     1     -10.195   0.922 -32.931  1.00  0.00     0.235 C 
HETATM   12  N   UNL     1     -10.987   2.116 -32.448  1.00  0.00    -0.067 N 
HETATM   13  H   UNL     1     -11.573   1.779 -31.676  1.00  0.00     0.280 HD
HETATM   14  C   UNL     1     -10.135   3.249 -31.928  1.00  0.00     0.235 C 
HETATM   15  C   UNL     1      -9.116   2.759 -30.907  1.00  0.00     0.035 C 
BRANCH  12  16
HETATM   16  C   UNL     1     -11.951   2.653 -33.502  1.00  0.00     0.274 C 
BRANCH  16  17
HETATM   17  C   UNL     1     -13.393   2.712 -33.064  1.00  0.00    -0.026 A 
HETATM   18  C   UNL     1     -13.864   3.882 -32.434  1.00  0.00     0.016 A 
HETATM   19  C   UNL     1     -15.178   3.971 -31.961  1.00  0.00    -0.061 A 
HETATM   20  C   UNL     1     -15.688   5.229 -31.319  1.00  0.00     0.048 C 
HETATM   21  C   UNL     1     -16.039   2.889 -32.148  1.00  0.00     0.007 A 
HETATM   22  C   UNL     1     -15.594   1.730 -32.782  1.00  0.00     0.008 A 
HETATM   23  C   UNL     1     -14.274   1.622 -33.243  1.00  0.00    -0.054 A 
HETATM   24  C   UNL     1     -13.867   0.353 -33.947  1.00  0.00     0.049 C 
ENDBRANCH  16  17
ENDBRANCH  12  16
ENDBRANCH   1   9
BRANCH   1  25
HETATM   25  C   UNL     1      -6.624   0.676 -33.133  1.00  0.00     0.067 A 
HETATM   26  N   UNL     1      -5.767  -0.115 -32.418  1.00  0.00    -0.263 NA
HETATM   27  C   UNL     1      -5.281  -1.221 -33.027  1.00  0.00     0.117 A 
HETATM   28  C   UNL     1      -5.582  -1.573 -34.329  1.00  0.00     0.019 A 
HETATM   29  C   UNL     1      -6.434  -0.748 -35.053  1.00  0.00     0.003 A 
HETATM   30  C   UNL     1      -6.962   0.394 -34.455  1.00  0.00     0.030 A 
ENDBRANCH   1  25
BRANCH   5  31
HETATM   31  C   UNL     1      -4.594   4.718 -32.230  1.00  0.00     0.168 C 
BRANCH  31  32
HETATM   32  C   UNL     1      -3.678   4.898 -33.443  1.00  0.00     0.140 C 
HETATM   33  O   UNL     1      -3.569   6.286 -33.811  1.00  0.00    -0.384 OA
HETATM   34  C   UNL     1      -2.254   6.501 -34.351  1.00  0.00     0.168 C 
HETATM   35  C   UNL     1      -1.513   5.178 -34.283  1.00  0.00     0.029 C 
HETATM   36  C   UNL     1      -2.251   4.444 -33.191  1.00  0.00     0.036 C 
ENDBRANCH  31  32
ENDBRANCH   5  31
TORSDOF 6
ENDMDL
MODEL 2
REMARK VINA RESULT:      -9.4      3.188      9.045
REMARK  6 active torsions:
REMARK  status: ('A' for Active; 'I' for Inactive)
REMARK    1  A    between atoms: C_4  and  C_5 
REMARK    2  A    between atoms: C_5  and  N_6 
REMARK    3  A    between atoms: C_10  and  C_11 
REMARK    4  A    between atoms: C_11  and  C_12 
REMARK    5  A    between atoms: N_21  and  C_22 
REMARK    6  A    between atoms: C_22  and  C_23 
ROOT
HETATM    1  C   UNL     1      -7.061   2.361 -31.659  1.00  0.00     0.149 C 
HETATM    2  N   UNL     1      -6.475   2.671 -32.954  1.00  0.00    -0.220 NA
HETATM    3  C   UNL     1      -6.760   1.683 -33.875  1.00  0.00     0.304 C 
HETATM    4  O   UNL     1      -6.495   1.804 -35.058  1.00  0.00    -0.253 OA
HETATM    5  N   UNL     1      -7.307   0.618 -33.239  1.00  0.00    -0.270 N 
HETATM    6  C   UNL     1      -7.431   0.883 -31.905  1.00  0.00     0.257 C 
HETATM    7  O   UNL     1      -7.753   0.090 -31.031  1.00  0.00    -0.270 OA
HETATM    8  H   UNL     1      -6.649   3.599 -33.336  1.00  0.00     0.134 HD
ENDROOT
BRANCH   1   9
HETATM    9  C   UNL     1      -6.052   2.505 -30.471  1.00  0.00     0.028 C 
HETATM   10  C   UNL     1      -5.583   3.943 -30.180  1.00  0.00     0.035 C 
HETATM   11  C   UNL     1      -4.620   4.489 -31.223  1.00  0.00     0.235 C 
HETATM   12  N   UNL     1      -3.412   3.584 -31.326  1.00  0.00    -0.067 N 
HETATM   13  H   UNL     1      -2.926   3.650 -30.425  1.00  0.00     0.280 HD
HETATM   14  C   UNL     1      -3.749   2.134 -31.573  1.00  0.00     0.235 C 
HETATM   15  C   UNL     1      -4.788   1.626 -30.582  1.00  0.00     0.035 C 
BRANCH  12  16
HETATM   16  C   UNL     1      -2.409   4.054 -32.376  1.00  0.00     0.274 C 
BRANCH  16  17
HETATM   17  C   UNL     1      -1.409   5.069 -31.882  1.00  0.00    -0.026 A 
HETATM   18  C   UNL     1      -0.857   4.906 -30.594  1.00  0.00     0.016 A 
HETATM   19  C   UNL     1       0.036   5.845 -30.065  1.00  0.00    -0.061 A 
HETATM   20  C   UNL     1       0.648   5.656 -28.708  1.00  0.00     0.048 C 
HETATM   21  C   UNL     1       0.404   6.944 -30.844  1.00  0.00     0.007 A 
HETATM   22  C   UNL     1      -0.122   7.112 -32.124  1.00  0.00     0.008 A 
HETATM   23  C   UNL     1      -1.032   6.187 -32.658  1.00  0.00    -0.054 A 
HETATM   24  C   UNL     1      -1.538   6.413 -34.060  1.00  0.00     0.049 C 
ENDBRANCH  16  17
ENDBRANCH  12  16
ENDBRANCH   1   9
BRANCH   1  25
HETATM   25  C   UNL     1      -8.295   3.243 -31.462  1.00  0.00     0.067 A 
HETATM   26  N   UNL     1      -8.355   4.343 -32.274  1.00  0.00    -0.263 NA
HETATM   27  C   UNL     1      -9.421   5.165 -32.137  1.00  0.00     0.117 A 
HETATM   28  C   UNL     1     -10.426   4.967 -31.211  1.00  0.00     0.019 A 
HETATM   29  C   UNL     1     -10.341   3.861 -30.375  1.00  0.00     0.003 A 
HETATM   30  C   UNL     1      -9.263   2.987 -30.494  1.00  0.00     0.030 A 
ENDBRANCH   1  25
BRANCH   5  31
HETATM   31  C   UNL     1      -7.675  -0.623 -33.900  1.00  0.00     0.168 C 
BRANCH  31  32
HETATM   32  C   UNL     1      -6.485  -1.361 -34.519  1.00  0.00     0.140 C 
HETATM   33  O   UNL     1      -5.318  -1.257 -33.682  1.00  0.00    -0.384 OA
HETATM   34  C   UNL     1      -4.551  -2.463 -33.836  1.00  0.00     0.168 C 
HETATM   35  C   UNL     1      -5.306  -3.361 -34.798  1.00  0.00     0.029 C 
HETATM   36  C   UNL     1      -6.721  -2.852 -34.681  1.00  0.00     0.036 C 
ENDBRANCH  31  32
ENDBRANCH   5  31
TORSDOF 6
ENDMDL
MODEL 3
REMARK VINA RESULT:      -9.4      3.633      6.857
REMARK  6 active torsions:
REMARK  status: ('A' for Active; 'I' for Inactive)
REMARK    1  A    between atoms: C_4  and  C_5 
REMARK    2  A    between atoms: C_5  and  N_6 
REMARK    3  A    between atoms: C_10  and  C_11 
REMARK    4  A    between atoms: C_11  and  C_12 
REMARK    5  A    between atoms: N_21  and  C_22 
REMARK    6  A    between atoms: C_22  and  C_23 
ROOT
HETATM    1  C   UNL     1      -5.702   4.625 -31.863  1.00  0.00     0.149 C 
HETATM    2  N   UNL     1      -5.073   3.365 -31.500  1.00  0.00    -0.220 NA
HETATM    3  C   UNL     1      -3.707   3.421 -31.689  1.00  0.00     0.304 C 
HETATM    4  O   UNL     1      -2.964   2.532 -31.314  1.00  0.00    -0.253 OA
HETATM    5  N   UNL     1      -3.392   4.554 -32.365  1.00  0.00    -0.270 N 
HETATM    6  C   UNL     1      -4.521   5.284 -32.605  1.00  0.00     0.257 C 
HETATM    7  O   UNL     1      -4.607   6.280 -33.310  1.00  0.00    -0.270 OA
HETATM    8  H   UNL     1      -5.309   2.969 -30.592  1.00  0.00     0.134 HD
ENDROOT
BRANCH   1   9
HETATM    9  C   UNL     1      -6.941   4.452 -32.805  1.00  0.00     0.028 C 
HETATM   10  C   UNL     1      -8.256   4.080 -32.095  1.00  0.00     0.035 C 
HETATM   11  C   UNL     1      -8.288   2.646 -31.591  1.00  0.00     0.235 C 
HETATM   12  N   UNL     1      -8.059   1.693 -32.743  1.00  0.00    -0.067 N 
HETATM   13  H   UNL     1      -8.867   1.795 -33.366  1.00  0.00     0.280 HD
HETATM   14  C   UNL     1      -6.812   1.983 -33.542  1.00  0.00     0.235 C 
HETATM   15  C   UNL     1      -6.743   3.446 -33.959  1.00  0.00     0.035 C 
BRANCH  12  16
HETATM   16  C   UNL     1      -8.050   0.230 -32.308  1.00  0.00     0.274 C 
BRANCH  16  17
HETATM   17  C   UNL     1      -6.756  -0.498 -32.575  1.00  0.00    -0.026 A 
HETATM   18  C   UNL     1      -6.636  -1.256 -33.758  1.00  0.00     0.016 A 
HETATM   19  C   UNL     1      -5.478  -1.993 -34.030  1.00  0.00    -0.061 A 
HETATM   20  C   UNL     1      -5.337  -2.775 -35.305  1.00  0.00     0.048 C 
HETATM   21  C   UNL     1      -4.417  -1.948 -33.124  1.00  0.00     0.007 A 
HETATM   22  C   UNL     1      -4.515  -1.192 -31.957  1.00  0.00     0.008 A 
HETATM   23  C   UNL     1      -5.677  -0.464 -31.664  1.00  0.00    -0.054 A 
HETATM   24  C   UNL     1      -5.704   0.356 -30.400  1.00  0.00     0.049 C 
ENDBRANCH  16  17
ENDBRANCH  12  16
ENDBRANCH   1   9
BRANCH   1  25
HETATM   25  C   UNL     1      -6.069   5.371 -30.579  1.00  0.00     0.067 A 
HETATM   26  N   UNL     1      -6.386   6.691 -30.748  1.00  0.00    -0.263 NA
HETATM   27  C   UNL     1      -6.710   7.403 -29.643  1.00  0.00     0.117 A 
HETATM   28  C   UNL     1      -6.709   6.877 -28.366  1.00  0.00     0.019 A 
HETATM   29  C   UNL     1      -6.360   5.542 -28.205  1.00  0.00     0.003 A 
HETATM   30  C   UNL     1      -6.031   4.775 -29.320  1.00  0.00     0.030 A 
ENDBRANCH   1  25
BRANCH   5  31
HETATM   31  C   UNL     1      -2.044   4.903 -32.783  1.00  0.00     0.168 C 
BRANCH  31  32
HETATM   32  C   UNL     1      -1.202   5.526 -31.666  1.00  0.00     0.140 C 
HETATM   33  O   UNL     1      -0.275   4.570 -31.119  1.00  0.00    -0.384 OA
HETATM   34  C   UNL     1       0.904   5.281 -30.704  1.00  0.00     0.168 C 
HETATM   35  C   UNL     1       0.693   6.745 -31.042  1.00  0.00     0.029 C 
HETATM   36  C   UNL     1      -0.341   6.684 -32.139  1.00  0.00     0.036 C 
ENDBRANCH  31  32
ENDBRANCH   5  31
TORSDOF 6
ENDMDL
MODEL 4
REMARK VINA RESULT:      -9.2      2.204      3.367
REMARK  6 active torsions:
REMARK  status: ('A' for Active; 'I' for Inactive)
REMARK    1  A    between atoms: C_4  and  C_5 
REMARK    2  A    between atoms: C_5  and  N_6 
REMARK    3  A    between atoms: C_10  and  C_11 
REMARK    4  A    between atoms: C_11  and  C_12 
REMARK    5  A    between atoms: N_21  and  C_22 
REMARK    6  A    between atoms: C_22  and  C_23 
ROOT
HETATM    1  C   UNL     1      -5.604   2.150 -32.301  1.00  0.00     0.149 C 
HETATM    2  N   UNL     1      -6.021   3.456 -32.789  1.00  0.00    -0.220 NA
HETATM    3  C   UNL     1      -4.940   4.181 -33.249  1.00  0.00     0.304 C 
HETATM    4  O   UNL     1      -5.073   5.241 -33.834  1.00  0.00    -0.253 OA
HETATM    5  N   UNL     1      -3.792   3.549 -32.901  1.00  0.00    -0.270 N 
HETATM    6  C   UNL     1      -4.080   2.386 -32.244  1.00  0.00     0.257 C 
HETATM    7  O   UNL     1      -3.281   1.654 -31.676  1.00  0.00    -0.270 OA
HETATM    8  H   UNL     1      -6.797   3.482 -33.448  1.00  0.00     0.134 HD
ENDROOT
BRANCH   1   9
HETATM    9  C   UNL     1      -6.179   1.802 -30.888  1.00  0.00     0.028 C 
HETATM   10  C   UNL     1      -7.437   0.913 -30.893  1.00  0.00     0.035 C 
HETATM   11  C   UNL     1      -8.690   1.639 -31.357  1.00  0.00     0.235 C 
HETATM   12  N   UNL     1      -8.938   2.845 -30.478  1.00  0.00    -0.067 N 
HETATM   13  H   UNL     1      -9.148   2.481 -29.542  1.00  0.00     0.280 HD
HETATM   14  C   UNL     1      -7.756   3.776 -30.364  1.00  0.00     0.235 C 
HETATM   15  C   UNL     1      -6.485   3.023 -29.993  1.00  0.00     0.035 C 
BRANCH  12  16
HETATM   16  C   UNL     1     -10.168   3.643 -30.902  1.00  0.00     0.274 C 
BRANCH  16  17
HETATM   17  C   UNL     1     -10.420   3.670 -32.388  1.00  0.00    -0.026 A 
HETATM   18  C   UNL     1     -11.238   2.672 -32.957  1.00  0.00     0.016 A 
HETATM   19  C   UNL     1     -11.463   2.619 -34.337  1.00  0.00    -0.061 A 
HETATM   20  C   UNL     1     -12.359   1.575 -34.938  1.00  0.00     0.048 C 
HETATM   21  C   UNL     1     -10.887   3.592 -35.154  1.00  0.00     0.007 A 
HETATM   22  C   UNL     1     -10.086   4.594 -34.607  1.00  0.00     0.008 A 
HETATM   23  C   UNL     1      -9.840   4.647 -33.228  1.00  0.00    -0.054 A 
HETATM   24  C   UNL     1      -8.990   5.774 -32.698  1.00  0.00     0.049 C 
ENDBRANCH  16  17
ENDBRANCH  12  16
ENDBRANCH   1   9
BRANCH   1  25
HETATM   25  C   UNL     1      -5.989   1.098 -33.343  1.00  0.00     0.067 A 
HETATM   26  N   UNL     1      -5.385  -0.120 -33.185  1.00  0.00    -0.263 NA
HETATM   27  C   UNL     1      -5.682  -1.086 -34.084  1.00  0.00     0.117 A 
HETATM   28  C   UNL     1      -6.533  -0.899 -35.157  1.00  0.00     0.019 A 
HETATM   29  C   UNL     1      -7.121   0.349 -35.320  1.00  0.00     0.003 A 
HETATM   30  C   UNL     1      -6.846   1.366 -34.408  1.00  0.00     0.030 A 
ENDBRANCH   1  25
BRANCH   5  31
HETATM   31  C   UNL     1      -2.462   4.067 -33.177  1.00  0.00     0.168 C 
BRANCH  31  32
HETATM   32  C   UNL     1      -1.951   5.036 -32.108  1.00  0.00     0.140 C 
HETATM   33  O   UNL     1      -1.202   4.340 -31.093  1.00  0.00    -0.384 OA
HETATM   34  C   UNL     1      -0.178   5.227 -30.610  1.00  0.00     0.168 C 
HETATM   35  C   UNL     1      -0.293   6.522 -31.393  1.00  0.00     0.029 C 
HETATM   36  C   UNL     1      -0.997   6.083 -32.653  1.00  0.00     0.036 C 
ENDBRANCH  31  32
ENDBRANCH   5  31
TORSDOF 6
ENDMDL
MODEL 5
REMARK VINA RESULT:      -9.1      2.848      8.146
REMARK  6 active torsions:
REMARK  status: ('A' for Active; 'I' for Inactive)
REMARK    1  A    between atoms: C_4  and  C_5 
REMARK    2  A    between atoms: C_5  and  N_6 
REMARK    3  A    between atoms: C_10  and  C_11 
REMARK    4  A    between atoms: C_11  and  C_12 
REMARK    5  A    between atoms: N_21  and  C_22 
REMARK    6  A    between atoms: C_22  and  C_23 
ROOT
HETATM    1  C   UNL     1      -7.255   3.269 -31.038  1.00  0.00     0.149 C 
HETATM    2  N   UNL     1      -6.617   3.377 -32.341  1.00  0.00    -0.220 NA
HETATM    3  C   UNL     1      -7.451   3.996 -33.251  1.00  0.00     0.304 C 
HETATM    4  O   UNL     1      -7.070   4.322 -34.361  1.00  0.00    -0.253 OA
HETATM    5  N   UNL     1      -8.692   4.113 -32.718  1.00  0.00    -0.270 N 
HETATM    6  C   UNL     1      -8.703   3.616 -31.445  1.00  0.00     0.257 C 
HETATM    7  O   UNL     1      -9.687   3.442 -30.740  1.00  0.00    -0.270 OA
HETATM    8  H   UNL     1      -5.677   3.767 -32.370  1.00  0.00     0.134 HD
ENDROOT
BRANCH   1   9
HETATM    9  C   UNL     1      -7.167   1.834 -30.421  1.00  0.00     0.028 C 
HETATM   10  C   UNL     1      -5.744   1.356 -30.076  1.00  0.00     0.035 C 
HETATM   11  C   UNL     1      -4.907   1.012 -31.298  1.00  0.00     0.235 C 
HETATM   12  N   UNL     1      -5.604  -0.054 -32.113  1.00  0.00    -0.067 N 
HETATM   13  H   UNL     1      -5.620  -0.898 -31.530  1.00  0.00     0.280 HD
HETATM   14  C   UNL     1      -7.028   0.286 -32.481  1.00  0.00     0.235 C 
HETATM   15  C   UNL     1      -7.831   0.723 -31.263  1.00  0.00     0.035 C 
BRANCH  12  16
HETATM   16  C   UNL     1      -4.834  -0.433 -33.375  1.00  0.00     0.274 C 
BRANCH  16  17
HETATM   17  C   UNL     1      -4.674  -1.916 -33.594  1.00  0.00    -0.026 A 
HETATM   18  C   UNL     1      -5.527  -2.563 -34.512  1.00  0.00     0.016 A 
HETATM   19  C   UNL     1      -5.457  -3.946 -34.716  1.00  0.00    -0.061 A 
HETATM   20  C   UNL     1      -6.343  -4.629 -35.716  1.00  0.00     0.048 C 
HETATM   21  C   UNL     1      -4.503  -4.685 -34.015  1.00  0.00     0.007 A 
HETATM   22  C   UNL     1      -3.643  -4.059 -33.113  1.00  0.00     0.008 A 
HETATM   23  C   UNL     1      -3.716  -2.677 -32.888  1.00  0.00    -0.054 A 
HETATM   24  C   UNL     1      -2.737  -2.060 -31.923  1.00  0.00     0.049 C 
ENDBRANCH  16  17
ENDBRANCH  12  16
ENDBRANCH   1   9
BRANCH   1  25
HETATM   25  C   UNL     1      -6.645   4.322 -30.111  1.00  0.00     0.067 A 
HETATM   26  N   UNL     1      -5.458   4.850 -30.540  1.00  0.00    -0.263 NA
HETATM   27  C   UNL     1      -4.866   5.779 -29.754  1.00  0.00     0.117 A 
HETATM   28  C   UNL     1      -5.381   6.197 -28.542  1.00  0.00     0.019 A 
HETATM   29  C   UNL     1      -6.575   5.634 -28.106  1.00  0.00     0.003 A 
HETATM   30  C   UNL     1      -7.217   4.681 -28.893  1.00  0.00     0.030 A 
ENDBRANCH   1  25
BRANCH   5  31
HETATM   31  C   UNL     1      -9.833   4.669 -33.427  1.00  0.00     0.168 C 
BRANCH  31  32
HETATM   32  C   UNL     1     -10.568   3.644 -34.296  1.00  0.00     0.140 C 
HETATM   33  O   UNL     1     -11.608   2.983 -33.550  1.00  0.00    -0.384 OA
HETATM   34  C   UNL     1     -12.675   2.667 -34.461  1.00  0.00     0.168 C 
HETATM   35  C   UNL     1     -12.274   3.189 -35.828  1.00  0.00     0.029 C 
HETATM   36  C   UNL     1     -11.272   4.264 -35.489  1.00  0.00     0.036 C 
ENDBRANCH  31  32
ENDBRANCH   5  31
TORSDOF 6
ENDMDL
MODEL 6
REMARK VINA RESULT:      -8.8      1.863      7.257
REMARK  6 active torsions:
REMARK  status: ('A' for Active; 'I' for Inactive)
REMARK    1  A    between atoms: C_4  and  C_5 
REMARK    2  A    between atoms: C_5  and  N_6 
REMARK    3  A    between atoms: C_10  and  C_11 
REMARK    4  A    between atoms: C_11  and  C_12 
REMARK    5  A    between atoms: N_21  and  C_22 
REMARK    6  A    between atoms: C_22  and  C_23 
ROOT
HETATM    1  C   UNL     1     -10.520   2.785 -32.794  1.00  0.00     0.149 C 
HETATM    2  N   UNL     1      -9.834   2.632 -31.521  1.00  0.00    -0.220 NA
HETATM    3  C   UNL     1      -8.952   3.672 -31.305  1.00  0.00     0.304 C 
HETATM    4  O   UNL     1      -8.379   3.825 -30.241  1.00  0.00    -0.253 OA
HETATM    5  N   UNL     1      -8.827   4.400 -32.442  1.00  0.00    -0.270 N 
HETATM    6  C   UNL     1      -9.640   3.891 -33.415  1.00  0.00     0.257 C 
HETATM    7  O   UNL     1      -9.663   4.222 -34.592  1.00  0.00    -0.270 OA
HETATM    8  H   UNL     1     -10.408   2.452 -30.699  1.00  0.00     0.134 HD
ENDROOT
BRANCH   1   9
HETATM    9  C   UNL     1     -10.503   1.487 -33.669  1.00  0.00     0.028 C 
HETATM   10  C   UNL     1     -10.299   0.175 -32.889  1.00  0.00     0.035 C 
HETATM   11  C   UNL     1      -8.879  -0.009 -32.374  1.00  0.00     0.235 C 
HETATM   12  N   UNL     1      -7.905   0.038 -33.530  1.00  0.00    -0.067 N 
HETATM   13  H   UNL     1      -8.108  -0.783 -34.111  1.00  0.00     0.280 HD
HETATM   14  C   UNL     1      -8.037   1.267 -34.395  1.00  0.00     0.235 C 
HETATM   15  C   UNL     1      -9.480   1.496 -34.825  1.00  0.00     0.035 C 
BRANCH  12  16
HETATM   16  C   UNL     1      -6.453  -0.112 -33.087  1.00  0.00     0.274 C 
BRANCH  16  17
HETATM   17  C   UNL     1      -5.784  -1.385 -33.542  1.00  0.00    -0.026 A 
HETATM   18  C   UNL     1      -6.534  -2.316 -34.289  1.00  0.00     0.016 A 
HETATM   19  C   UNL     1      -5.979  -3.536 -34.693  1.00  0.00    -0.061 A 
HETATM   20  C   UNL     1      -6.769  -4.514 -35.515  1.00  0.00     0.048 C 
HETATM   21  C   UNL     1      -4.650  -3.814 -34.372  1.00  0.00     0.007 A 
HETATM   22  C   UNL     1      -3.890  -2.898 -33.646  1.00  0.00     0.008 A 
HETATM   23  C   UNL     1      -4.441  -1.681 -33.220  1.00  0.00    -0.054 A 
HETATM   24  C   UNL     1      -3.554  -0.723 -32.466  1.00  0.00     0.049 C 
ENDBRANCH  16  17
ENDBRANCH  12  16
ENDBRANCH   1   9
BRANCH   1  25
HETATM   25  C   UNL     1     -11.947   3.264 -32.521  1.00  0.00     0.067 A 
HETATM   26  N   UNL     1     -12.040   4.388 -31.745  1.00  0.00    -0.263 NA
HETATM   27  C   UNL     1     -13.280   4.851 -31.463  1.00  0.00     0.117 A 
HETATM   28  C   UNL     1     -14.442   4.239 -31.891  1.00  0.00     0.019 A 
HETATM   29  C   UNL     1     -14.334   3.085 -32.657  1.00  0.00     0.003 A 
HETATM   30  C   UNL     1     -13.074   2.584 -32.976  1.00  0.00     0.030 A 
ENDBRANCH   1  25
BRANCH   5  31
HETATM   31  C   UNL     1      -7.933   5.537 -32.585  1.00  0.00     0.168 C 
BRANCH  31  32
HETATM   32  C   UNL     1      -6.469   5.140 -32.788  1.00  0.00     0.140 C 
HETATM   33  O   UNL     1      -6.236   4.683 -34.133  1.00  0.00    -0.384 OA
HETATM   34  C   UNL     1      -4.893   5.042 -34.498  1.00  0.00     0.168 C 
HETATM   35  C   UNL     1      -4.284   5.782 -33.321  1.00  0.00     0.029 C 
HETATM   36  C   UNL     1      -5.501   6.293 -32.590  1.00  0.00     0.036 C 
ENDBRANCH  31  32
ENDBRANCH   5  31
TORSDOF 6
ENDMDL
MODEL 7
REMARK VINA RESULT:      -8.7      2.737      7.861
REMARK  6 active torsions:
REMARK  status: ('A' for Active; 'I' for Inactive)
REMARK    1  A    between atoms: C_4  and  C_5 
REMARK    2  A    between atoms: C_5  and  N_6 
REMARK    3  A    between atoms: C_10  and  C_11 
REMARK    4  A    between atoms: C_11  and  C_12 
REMARK    5  A    between atoms: N_21  and  C_22 
REMARK    6  A    between atoms: C_22  and  C_23 
ROOT
HETATM    1  C   UNL     1      -7.331   3.995 -30.916  1.00  0.00     0.149 C 
HETATM    2  N   UNL     1      -6.766   4.174 -32.245  1.00  0.00    -0.220 NA
HETATM    3  C   UNL     1      -7.731   4.590 -33.140  1.00  0.00     0.304 C 
HETATM    4  O   UNL     1      -7.454   4.941 -34.273  1.00  0.00    -0.253 OA
HETATM    5  N   UNL     1      -8.954   4.490 -32.564  1.00  0.00    -0.270 N 
HETATM    6  C   UNL     1      -8.830   4.047 -31.278  1.00  0.00     0.257 C 
HETATM    7  O   UNL     1      -9.740   3.716 -30.531  1.00  0.00    -0.270 OA
HETATM    8  H   UNL     1      -5.919   4.734 -32.321  1.00  0.00     0.134 HD
ENDROOT
BRANCH   1   9
HETATM    9  C   UNL     1      -6.951   2.626 -30.259  1.00  0.00     0.028 C 
HETATM   10  C   UNL     1      -5.442   2.322 -30.204  1.00  0.00     0.035 C 
HETATM   11  C   UNL     1      -4.843   1.976 -31.558  1.00  0.00     0.235 C 
HETATM   12  N   UNL     1      -5.567   0.787 -32.149  1.00  0.00    -0.067 N 
HETATM   13  H   UNL     1      -5.363  -0.009 -31.534  1.00  0.00     0.280 HD
HETATM   14  C   UNL     1      -7.065   0.952 -32.220  1.00  0.00     0.235 C 
HETATM   15  C   UNL     1      -7.642   1.394 -30.881  1.00  0.00     0.035 C 
BRANCH  12  16
HETATM   16  C   UNL     1      -5.037   0.396 -33.526  1.00  0.00     0.274 C 
BRANCH  16  17
HETATM   17  C   UNL     1      -5.277  -1.043 -33.908  1.00  0.00    -0.026 A 
HETATM   18  C   UNL     1      -4.337  -2.016 -33.511  1.00  0.00     0.016 A 
HETATM   19  C   UNL     1      -4.482  -3.357 -33.883  1.00  0.00    -0.061 A 
HETATM   20  C   UNL     1      -3.498  -4.399 -33.434  1.00  0.00     0.048 C 
HETATM   21  C   UNL     1      -5.597  -3.735 -34.634  1.00  0.00     0.007 A 
HETATM   22  C   UNL     1      -6.543  -2.787 -35.022  1.00  0.00     0.008 A 
HETATM   23  C   UNL     1      -6.398  -1.438 -34.671  1.00  0.00    -0.054 A 
HETATM   24  C   UNL     1      -7.474  -0.471 -35.097  1.00  0.00     0.049 C 
ENDBRANCH  16  17
ENDBRANCH  12  16
ENDBRANCH   1   9
BRANCH   1  25
HETATM   25  C   UNL     1      -6.903   5.178 -30.044  1.00  0.00     0.067 A 
HETATM   26  N   UNL     1      -6.175   6.138 -30.692  1.00  0.00    -0.263 NA
HETATM   27  C   UNL     1      -5.761   7.204 -29.968  1.00  0.00     0.117 A 
HETATM   28  C   UNL     1      -6.010   7.355 -28.617  1.00  0.00     0.019 A 
HETATM   29  C   UNL     1      -6.729   6.360 -27.966  1.00  0.00     0.003 A 
HETATM   30  C   UNL     1      -7.180   5.253 -28.682  1.00  0.00     0.030 A 
ENDBRANCH   1  25
BRANCH   5  31
HETATM   31  C   UNL     1     -10.201   4.793 -33.246  1.00  0.00     0.168 C 
BRANCH  31  32
HETATM   32  C   UNL     1     -10.832   3.577 -33.932  1.00  0.00     0.140 C 
HETATM   33  O   UNL     1      -9.873   2.514 -34.088  1.00  0.00    -0.384 OA
HETATM   34  C   UNL     1     -10.577   1.264 -33.994  1.00  0.00     0.168 C 
HETATM   35  C   UNL     1     -12.038   1.584 -33.739  1.00  0.00     0.029 C 
HETATM   36  C   UNL     1     -11.972   2.966 -33.138  1.00  0.00     0.036 C 
ENDBRANCH  31  32
ENDBRANCH   5  31
TORSDOF 6
ENDMDL
MODEL 8
REMARK VINA RESULT:      -8.7      3.526      6.600
REMARK  6 active torsions:
REMARK  status: ('A' for Active; 'I' for Inactive)
REMARK    1  A    between atoms: C_4  and  C_5 
REMARK    2  A    between atoms: C_5  and  N_6 
REMARK    3  A    between atoms: C_10  and  C_11 
REMARK    4  A    between atoms: C_11  and  C_12 
REMARK    5  A    between atoms: N_21  and  C_22 
REMARK    6  A    between atoms: C_22  and  C_23 
ROOT
HETATM    1  C   UNL     1      -4.740   4.759 -32.070  1.00  0.00     0.149 C 
HETATM    2  N   UNL     1      -5.794   4.300 -32.962  1.00  0.00    -0.220 NA
HETATM    3  C   UNL     1      -6.720   5.298 -33.189  1.00  0.00     0.304 C 
HETATM    4  O   UNL     1      -7.606   5.183 -34.017  1.00  0.00    -0.253 OA
HETATM    5  N   UNL     1      -6.490   6.329 -32.339  1.00  0.00    -0.270 N 
HETATM    6  C   UNL     1      -5.398   6.059 -31.563  1.00  0.00     0.257 C 
HETATM    7  O   UNL     1      -5.008   6.712 -30.605  1.00  0.00    -0.270 OA
HETATM    8  H   UNL     1      -5.509   3.850 -33.830  1.00  0.00     0.134 HD
ENDROOT
BRANCH   1   9
HETATM    9  C   UNL     1      -4.449   3.771 -30.892  1.00  0.00     0.028 C 
HETATM   10  C   UNL     1      -4.031   2.351 -31.316  1.00  0.00     0.035 C 
HETATM   11  C   UNL     1      -5.177   1.526 -31.884  1.00  0.00     0.235 C 
HETATM   12  N   UNL     1      -6.293   1.433 -30.867  1.00  0.00    -0.067 N 
HETATM   13  H   UNL     1      -5.918   0.896 -30.077  1.00  0.00     0.280 HD
HETATM   14  C   UNL     1      -6.763   2.768 -30.346  1.00  0.00     0.235 C 
HETATM   15  C   UNL     1      -5.597   3.624 -29.869  1.00  0.00     0.035 C 
BRANCH  12  16
HETATM   16  C   UNL     1      -7.493   0.641 -31.378  1.00  0.00     0.274 C 
BRANCH  16  17
HETATM   17  C   UNL     1      -7.355   0.129 -32.790  1.00  0.00    -0.026 A 
HETATM   18  C   UNL     1      -6.570  -1.019 -33.022  1.00  0.00     0.016 A 
HETATM   19  C   UNL     1      -6.365  -1.507 -34.317  1.00  0.00    -0.061 A 
HETATM   20  C   UNL     1      -5.555  -2.748 -34.561  1.00  0.00     0.048 C 
HETATM   21  C   UNL     1      -6.977  -0.857 -35.390  1.00  0.00     0.007 A 
HETATM   22  C   UNL     1      -7.768   0.271 -35.177  1.00  0.00     0.008 A 
HETATM   23  C   UNL     1      -7.965   0.780 -33.885  1.00  0.00    -0.054 A 
HETATM   24  C   UNL     1      -8.857   1.984 -33.722  1.00  0.00     0.049 C 
ENDBRANCH  16  17
ENDBRANCH  12  16
ENDBRANCH   1   9
BRANCH   1  25
HETATM   25  C   UNL     1      -3.486   5.031 -32.903  1.00  0.00     0.067 A 
HETATM   26  N   UNL     1      -3.669   4.979 -34.258  1.00  0.00    -0.263 NA
HETATM   27  C   UNL     1      -2.591   5.202 -35.044  1.00  0.00     0.117 A 
HETATM   28  C   UNL     1      -1.324   5.449 -34.554  1.00  0.00     0.019 A 
HETATM   29  C   UNL     1      -1.145   5.474 -33.176  1.00  0.00     0.003 A 
HETATM   30  C   UNL     1      -2.234   5.259 -32.335  1.00  0.00     0.030 A 
ENDBRANCH   1  25
BRANCH   5  31
HETATM   31  C   UNL     1      -7.315   7.523 -32.267  1.00  0.00     0.168 C 
BRANCH  31  32
HETATM   32  C   UNL     1      -8.397   7.453 -31.186  1.00  0.00     0.140 C 
HETATM   33  O   UNL     1      -8.574   6.104 -30.716  1.00  0.00    -0.384 OA
HETATM   34  C   UNL     1      -8.947   6.162 -29.329  1.00  0.00     0.168 C 
HETATM   35  C   UNL     1      -8.970   7.625 -28.926  1.00  0.00     0.029 C 
HETATM   36  C   UNL     1      -8.059   8.261 -29.946  1.00  0.00     0.036 C 
ENDBRANCH  31  32
ENDBRANCH   5  31
TORSDOF 6
ENDMDL
MODEL 9
REMARK VINA RESULT:      -8.6      2.462      8.421
REMARK  6 active torsions:
REMARK  status: ('A' for Active; 'I' for Inactive)
REMARK    1  A    between atoms: C_4  and  C_5 
REMARK    2  A    between atoms: C_5  and  N_6 
REMARK    3  A    between atoms: C_10  and  C_11 
REMARK    4  A    between atoms: C_11  and  C_12 
REMARK    5  A    between atoms: N_21  and  C_22 
REMARK    6  A    between atoms: C_22  and  C_23 
ROOT
HETATM    1  C   UNL     1      -8.273   2.837 -32.545  1.00  0.00     0.149 C 
HETATM    2  N   UNL     1      -8.764   2.329 -33.817  1.00  0.00    -0.220 NA
HETATM    3  C   UNL     1      -9.977   2.902 -34.144  1.00  0.00     0.304 C 
HETATM    4  O   UNL     1     -10.500   2.734 -35.231  1.00  0.00    -0.253 OA
HETATM    5  N   UNL     1     -10.451   3.592 -33.078  1.00  0.00    -0.270 N 
HETATM    6  C   UNL     1      -9.559   3.527 -32.045  1.00  0.00     0.257 C 
HETATM    7  O   UNL     1      -9.740   3.920 -30.901  1.00  0.00    -0.270 OA
HETATM    8  H   UNL     1      -8.120   2.343 -34.606  1.00  0.00     0.134 HD
ENDROOT
BRANCH   1   9
HETATM    9  C   UNL     1      -7.813   1.709 -31.563  1.00  0.00     0.028 C 
HETATM   10  C   UNL     1      -6.295   1.453 -31.523  1.00  0.00     0.035 C 
HETATM   11  C   UNL     1      -5.766   0.752 -32.765  1.00  0.00     0.235 C 
HETATM   12  N   UNL     1      -6.486  -0.564 -32.957  1.00  0.00    -0.067 N 
HETATM   13  H   UNL     1      -6.222  -1.155 -32.160  1.00  0.00     0.280 HD
HETATM   14  C   UNL     1      -7.991  -0.445 -32.973  1.00  0.00     0.235 C 
HETATM   15  C   UNL     1      -8.502   0.343 -31.774  1.00  0.00     0.035 C 
BRANCH  12  16
HETATM   16  C   UNL     1      -6.027  -1.314 -34.203  1.00  0.00     0.274 C 
BRANCH  16  17
HETATM   17  C   UNL     1      -5.247  -2.575 -33.928  1.00  0.00    -0.026 A 
HETATM   18  C   UNL     1      -4.219  -2.540 -32.963  1.00  0.00     0.016 A 
HETATM   19  C   UNL     1      -3.430  -3.667 -32.704  1.00  0.00    -0.061 A 
HETATM   20  C   UNL     1      -2.357  -3.639 -31.654  1.00  0.00     0.048 C 
HETATM   21  C   UNL     1      -3.691  -4.850 -33.398  1.00  0.00     0.007 A 
HETATM   22  C   UNL     1      -4.712  -4.905 -34.346  1.00  0.00     0.008 A 
HETATM   23  C   UNL     1      -5.497  -3.777 -34.626  1.00  0.00    -0.054 A 
HETATM   24  C   UNL     1      -6.605  -3.914 -35.639  1.00  0.00     0.049 C 
ENDBRANCH  16  17
ENDBRANCH  12  16
ENDBRANCH   1   9
BRANCH   1  25
HETATM   25  C   UNL     1      -7.149   3.836 -32.824  1.00  0.00     0.067 A 
HETATM   26  N   UNL     1      -6.926   4.748 -31.828  1.00  0.00    -0.263 NA
HETATM   27  C   UNL     1      -5.949   5.663 -32.025  1.00  0.00     0.117 A 
HETATM   28  C   UNL     1      -5.192   5.740 -33.179  1.00  0.00     0.019 A 
HETATM   29  C   UNL     1      -5.445   4.824 -34.192  1.00  0.00     0.003 A 
HETATM   30  C   UNL     1      -6.437   3.861 -34.021  1.00  0.00     0.030 A 
ENDBRANCH   1  25
BRANCH   5  31
HETATM   31  C   UNL     1     -11.735   4.273 -33.056  1.00  0.00     0.168 C 
BRANCH  31  32
HETATM   32  C   UNL     1     -12.839   3.470 -32.361  1.00  0.00     0.140 C 
HETATM   33  O   UNL     1     -13.876   4.335 -31.864  1.00  0.00    -0.384 OA
HETATM   34  C   UNL     1     -15.122   3.622 -31.935  1.00  0.00     0.168 C 
HETATM   35  C   UNL     1     -14.831   2.258 -32.534  1.00  0.00     0.029 C 
HETATM   36  C   UNL     1     -13.547   2.498 -33.288  1.00  0.00     0.036 C 
ENDBRANCH  31  32
ENDBRANCH   5  31
TORSDOF 6
ENDMDL
MODEL 10
REMARK VINA RESULT:      -8.4      1.647      2.399
REMARK  6 active torsions:
REMARK  status: ('A' for Active; 'I' for Inactive)
REMARK    1  A    between atoms: C_4  and  C_5 
REMARK    2  A    between atoms: C_5  and  N_6 
REMARK    3  A    between atoms: C_10  and  C_11 
REMARK    4  A    between atoms: C_11  and  C_12 
REMARK    5  A    between atoms: N_21  and  C_22 
REMARK    6  A    between atoms: C_22  and  C_23 
ROOT
HETATM    1  C   UNL     1      -6.405   2.043 -32.508  1.00  0.00     0.149 C 
HETATM    2  N   UNL     1      -6.600   3.196 -33.374  1.00  0.00    -0.220 NA
HETATM    3  C   UNL     1      -5.398   3.816 -33.651  1.00  0.00     0.304 C 
HETATM    4  O   UNL     1      -5.305   4.711 -34.471  1.00  0.00    -0.253 OA
HETATM    5  N   UNL     1      -4.430   3.299 -32.853  1.00  0.00    -0.270 N 
HETATM    6  C   UNL     1      -4.951   2.312 -32.066  1.00  0.00     0.257 C 
HETATM    7  O   UNL     1      -4.386   1.743 -31.142  1.00  0.00    -0.270 OA
HETATM    8  H   UNL     1      -7.152   3.058 -34.218  1.00  0.00     0.134 HD
ENDROOT
BRANCH   1   9
HETATM    9  C   UNL     1      -7.377   2.018 -31.281  1.00  0.00     0.028 C 
HETATM   10  C   UNL     1      -8.713   1.288 -31.519  1.00  0.00     0.035 C 
HETATM   11  C   UNL     1      -9.672   2.056 -32.416  1.00  0.00     0.235 C 
HETATM   12  N   UNL     1      -9.950   3.419 -31.820  1.00  0.00    -0.067 N 
HETATM   13  H   UNL     1     -10.451   3.251 -30.940  1.00  0.00     0.280 HD
HETATM   14  C   UNL     1      -8.708   4.217 -31.505  1.00  0.00     0.235 C 
HETATM   15  C   UNL     1      -7.712   3.403 -30.689  1.00  0.00     0.035 C 
BRANCH  12  16
HETATM   16  C   UNL     1     -10.886   4.262 -32.681  1.00  0.00     0.274 C 
BRANCH  16  17
HETATM   17  C   UNL     1     -12.335   4.216 -32.266  1.00  0.00    -0.026 A 
HETATM   18  C   UNL     1     -13.113   3.100 -32.637  1.00  0.00     0.016 A 
HETATM   19  C   UNL     1     -14.475   3.030 -32.323  1.00  0.00    -0.061 A 
HETATM   20  C   UNL     1     -15.296   1.828 -32.691  1.00  0.00     0.048 C 
HETATM   21  C   UNL     1     -15.058   4.074 -31.604  1.00  0.00     0.007 A 
HETATM   22  C   UNL     1     -14.300   5.179 -31.217  1.00  0.00     0.008 A 
HETATM   23  C   UNL     1     -12.939   5.268 -31.542  1.00  0.00    -0.054 A 
HETATM   24  C   UNL     1     -12.171   6.475 -31.067  1.00  0.00     0.049 C 
ENDBRANCH  16  17
ENDBRANCH  12  16
ENDBRANCH   1   9
BRANCH   1  25
HETATM   25  C   UNL     1      -6.530   0.775 -33.354  1.00  0.00     0.067 A 
HETATM   26  N   UNL     1      -6.052  -0.363 -32.763  1.00  0.00    -0.263 NA
HETATM   27  C   UNL     1      -6.127  -1.514 -33.470  1.00  0.00     0.117 A 
HETATM   28  C   UNL     1      -6.631  -1.592 -34.754  1.00  0.00     0.019 A 
HETATM   29  C   UNL     1      -7.090  -0.425 -35.353  1.00  0.00     0.003 A 
HETATM   30  C   UNL     1      -7.037   0.777 -34.651  1.00  0.00     0.030 A 
ENDBRANCH   1  25
BRANCH   5  31
HETATM   31  C   UNL     1      -3.053   3.764 -32.841  1.00  0.00     0.168 C 
BRANCH  31  32
HETATM   32  C   UNL     1      -2.699   4.590 -31.602  1.00  0.00     0.140 C 
HETATM   33  O   UNL     1      -1.313   4.430 -31.250  1.00  0.00    -0.384 OA
HETATM   34  C   UNL     1      -0.855   5.664 -30.672  1.00  0.00     0.168 C 
HETATM   35  C   UNL     1      -2.019   6.638 -30.700  1.00  0.00     0.029 C 
HETATM   36  C   UNL     1      -2.883   6.084 -31.805  1.00  0.00     0.036 C 
ENDBRANCH  31  32
ENDBRANCH   5  31
TORSDOF 6
ENDMDL
