MODEL 1
REMARK VINA RESULT:     -10.1      0.000      0.000
REMARK  5 active torsions:
REMARK  status: ('A' for Active; 'I' for Inactive)
REMARK    1  A    between atoms: C_2  and  N_3 
REMARK    2  A    between atoms: C_7  and  N_8 
REMARK       I    between atoms: N_8  and  C_9 
REMARK    3  A    between atoms: C_9  and  C_10 
REMARK    4  A    between atoms: C_13  and  C_14 
REMARK    5  A    between atoms: C_14  and  C_15 
ROOT
HETATM    1  N   UNL     1      -3.771   4.162 -31.817  1.00  0.00    -0.323 N 
HETATM    2  C   UNL     1      -2.589   4.609 -32.380  1.00  0.00     0.256 C 
HETATM    3  O   UNL     1      -2.239   4.474 -33.547  1.00  0.00    -0.267 OA
HETATM    4  H   UNL     1      -4.015   4.521 -30.905  1.00  0.00     0.169 HD
ENDROOT
BRANCH   1   5
HETATM    5  C   UNL     1      -4.685   3.241 -32.376  1.00  0.00     0.035 A 
HETATM    6  C   UNL     1      -4.350   1.926 -32.710  1.00  0.00     0.044 A 
HETATM    7  C   UNL     1      -5.341   1.036 -33.182  1.00  0.00     0.005 A 
HETATM    8  C   UNL     1      -6.654   1.489 -33.310  1.00  0.00     0.046 A 
HETATM    9  C   UNL     1      -5.315  -0.337 -33.581  1.00  0.00     0.003 A 
HETATM   10  N   UNL     1      -7.410   0.416 -33.745  1.00  0.00    -0.346 N 
HETATM   11  C   UNL     1      -7.006   2.814 -33.011  1.00  0.00     0.033 A 
HETATM   12  C   UNL     1      -6.617  -0.701 -33.930  1.00  0.00     0.046 A 
HETATM   13  C   UNL     1      -6.929  -1.999 -34.370  1.00  0.00     0.030 A 
HETATM   14  C   UNL     1      -5.895  -2.937 -34.449  1.00  0.00     0.002 A 
HETATM   15  C   UNL     1      -4.592  -2.596 -34.104  1.00  0.00     0.001 A 
HETATM   16  C   UNL     1      -4.290  -1.302 -33.669  1.00  0.00     0.014 A 
HETATM   17  C   UNL     1      -6.004   3.673 -32.542  1.00  0.00     0.032 A 
BRANCH  10  18
HETATM   18  C   UNL     1      -8.851   0.445 -33.943  1.00  0.00     0.125 C 
HETATM   19  C   UNL     1      -9.614   0.078 -32.683  1.00  0.00     0.027 C 
ENDBRANCH  10  18
ENDBRANCH   1   5
BRANCH   2  20
HETATM   20  C   UNL     1      -1.671   5.333 -31.450  1.00  0.00     0.032 A 
HETATM   21  C   UNL     1      -0.280   5.178 -31.508  1.00  0.00     0.017 A 
HETATM   22  C   UNL     1       0.548   5.938 -30.676  1.00  0.00     0.008 A 
HETATM   23  C   UNL     1       0.003   6.883 -29.796  1.00  0.00    -0.057 A 
HETATM   24  C   UNL     1      -1.390   7.023 -29.733  1.00  0.00     0.008 A 
HETATM   25  C   UNL     1      -2.220   6.259 -30.556  1.00  0.00     0.017 A 
BRANCH  23  26
HETATM   26  C   UNL     1       0.896   7.776 -28.965  1.00  0.00     0.053 C 
BRANCH  26  27
HETATM   27  C   UNL     1       0.489   7.938 -27.491  1.00  0.00     0.091 C 
HETATM   28  C   UNL     1       0.213   9.378 -27.140  1.00  0.00     0.229 C 
HETATM   29  O   UNL     1      -0.688  10.060 -27.600  1.00  0.00    -0.273 OA
HETATM   30  N   UNL     1       1.154   9.803 -26.261  1.00  0.00    -0.297 N 
HETATM   31  C   UNL     1       2.005   8.822 -25.870  1.00  0.00     0.225 C 
HETATM   32  H   UNL     1       1.223  10.755 -25.936  1.00  0.00     0.171 HD
HETATM   33  O   UNL     1       2.945   8.957 -25.106  1.00  0.00    -0.273 OA
HETATM   34  C   UNL     1       1.555   7.525 -26.474  1.00  0.00     0.117 C 
ENDBRANCH  26  27
ENDBRANCH  23  26
ENDBRANCH   2  20
TORSDOF 5
ENDMDL
MODEL 2
REMARK VINA RESULT:      -9.7      3.325     11.277
REMARK  5 active torsions:
REMARK  status: ('A' for Active; 'I' for Inactive)
REMARK    1  A    between atoms: C_2  and  N_3 
REMARK    2  A    between atoms: C_7  and  N_8 
REMARK       I    between atoms: N_8  and  C_9 
REMARK    3  A    between atoms: C_9  and  C_10 
REMARK    4  A    between atoms: C_13  and  C_14 
REMARK    5  A    between atoms: C_14  and  C_15 
ROOT
HETATM    1  N   UNL     1      -4.257   3.480 -32.150  1.00  0.00    -0.323 N 
HETATM    2  C   UNL     1      -5.160   2.711 -31.439  1.00  0.00     0.256 C 
HETATM    3  O   UNL     1      -5.557   2.920 -30.298  1.00  0.00    -0.267 OA
HETATM    4  H   UNL     1      -4.180   3.307 -33.143  1.00  0.00     0.169 HD
ENDROOT
BRANCH   1   5
HETATM    5  C   UNL     1      -3.410   4.489 -31.639  1.00  0.00     0.035 A 
HETATM    6  C   UNL     1      -3.873   5.720 -31.166  1.00  0.00     0.044 A 
HETATM    7  C   UNL     1      -2.976   6.645 -30.586  1.00  0.00     0.005 A 
HETATM    8  C   UNL     1      -1.624   6.312 -30.495  1.00  0.00     0.046 A 
HETATM    9  C   UNL     1      -3.142   7.944 -30.014  1.00  0.00     0.003 A 
HETATM   10  N   UNL     1      -0.993   7.364 -29.858  1.00  0.00    -0.346 N 
HETATM   11  C   UNL     1      -1.133   5.095 -30.992  1.00  0.00     0.033 A 
HETATM   12  C   UNL     1      -1.891   8.375 -29.568  1.00  0.00     0.046 A 
HETATM   13  C   UNL     1      -1.715   9.625 -28.951  1.00  0.00     0.030 A 
HETATM   14  C   UNL     1      -2.836  10.444 -28.785  1.00  0.00     0.002 A 
HETATM   15  C   UNL     1      -4.092  10.034 -29.219  1.00  0.00     0.001 A 
HETATM   16  C   UNL     1      -4.257   8.790 -29.833  1.00  0.00     0.014 A 
HETATM   17  C   UNL     1      -2.046   4.196 -31.558  1.00  0.00     0.032 A 
BRANCH  10  18
HETATM   18  C   UNL     1       0.418   7.390 -29.504  1.00  0.00     0.125 C 
HETATM   19  C   UNL     1       0.676   6.825 -28.119  1.00  0.00     0.027 C 
ENDBRANCH  10  18
ENDBRANCH   1   5
BRANCH   2  20
HETATM   20  C   UNL     1      -5.694   1.518 -32.162  1.00  0.00     0.032 A 
HETATM   21  C   UNL     1      -5.975   1.545 -33.534  1.00  0.00     0.017 A 
HETATM   22  C   UNL     1      -6.393   0.383 -34.191  1.00  0.00     0.008 A 
HETATM   23  C   UNL     1      -6.508  -0.827 -33.494  1.00  0.00    -0.057 A 
HETATM   24  C   UNL     1      -6.238  -0.845 -32.119  1.00  0.00     0.008 A 
HETATM   25  C   UNL     1      -5.830   0.317 -31.459  1.00  0.00     0.017 A 
BRANCH  23  26
HETATM   26  C   UNL     1      -6.865  -2.108 -34.216  1.00  0.00     0.053 C 
BRANCH  26  27
HETATM   27  C   UNL     1      -5.708  -2.795 -34.960  1.00  0.00     0.091 C 
HETATM   28  C   UNL     1      -5.919  -4.284 -35.072  1.00  0.00     0.229 C 
HETATM   29  O   UNL     1      -6.816  -4.828 -35.694  1.00  0.00    -0.273 OA
HETATM   30  N   UNL     1      -4.973  -4.918 -34.335  1.00  0.00    -0.297 N 
HETATM   31  C   UNL     1      -4.062  -4.073 -33.792  1.00  0.00     0.225 C 
HETATM   32  H   UNL     1      -4.954  -5.915 -34.194  1.00  0.00     0.171 HD
HETATM   33  O   UNL     1      -3.131  -4.396 -33.074  1.00  0.00    -0.273 OA
HETATM   34  C   UNL     1      -4.342  -2.683 -34.280  1.00  0.00     0.117 C 
ENDBRANCH  26  27
ENDBRANCH  23  26
ENDBRANCH   2  20
TORSDOF 5
ENDMDL
MODEL 3
REMARK VINA RESULT:      -9.4      0.986      2.765
REMARK  5 active torsions:
REMARK  status: ('A' for Active; 'I' for Inactive)
REMARK    1  A    between atoms: C_2  and  N_3 
REMARK    2  A    between atoms: C_7  and  N_8 
REMARK       I    between atoms: N_8  and  C_9 
REMARK    3  A    between atoms: C_9  and  C_10 
REMARK    4  A    between atoms: C_13  and  C_14 
REMARK    5  A    between atoms: C_14  and  C_15 
ROOT
HETATM    1  N   UNL     1      -3.394   4.410 -31.140  1.00  0.00    -0.323 N 
HETATM    2  C   UNL     1      -2.300   4.911 -31.822  1.00  0.00     0.256 C 
HETATM    3  O   UNL     1      -1.993   4.673 -32.984  1.00  0.00    -0.267 OA
HETATM    4  H   UNL     1      -3.635   4.849 -30.262  1.00  0.00     0.169 HD
ENDROOT
BRANCH   1   5
HETATM    5  C   UNL     1      -4.220   3.332 -31.530  1.00  0.00     0.035 A 
HETATM    6  C   UNL     1      -5.503   3.494 -32.059  1.00  0.00     0.044 A 
HETATM    7  C   UNL     1      -6.235   2.373 -32.512  1.00  0.00     0.005 A 
HETATM    8  C   UNL     1      -5.659   1.106 -32.421  1.00  0.00     0.046 A 
HETATM    9  C   UNL     1      -7.529   2.221 -33.099  1.00  0.00     0.003 A 
HETATM   10  N   UNL     1      -6.564   0.213 -32.965  1.00  0.00    -0.346 N 
HETATM   11  C   UNL     1      -4.385   0.916 -31.865  1.00  0.00     0.033 A 
HETATM   12  C   UNL     1      -7.714   0.863 -33.371  1.00  0.00     0.046 A 
HETATM   13  C   UNL     1      -8.897   0.380 -33.957  1.00  0.00     0.030 A 
HETATM   14  C   UNL     1      -9.902   1.300 -34.271  1.00  0.00     0.002 A 
HETATM   15  C   UNL     1      -9.739   2.656 -34.010  1.00  0.00     0.001 A 
HETATM   16  C   UNL     1      -8.560   3.127 -33.426  1.00  0.00     0.014 A 
HETATM   17  C   UNL     1      -3.681   2.046 -31.428  1.00  0.00     0.032 A 
BRANCH  10  18
HETATM   18  C   UNL     1      -6.324  -1.213 -33.126  1.00  0.00     0.125 C 
HETATM   19  C   UNL     1      -5.957  -1.579 -34.553  1.00  0.00     0.027 C 
ENDBRANCH  10  18
ENDBRANCH   1   5
BRANCH   2  20
HETATM   20  C   UNL     1      -1.430   5.841 -31.041  1.00  0.00     0.032 A 
HETATM   21  C   UNL     1      -1.948   6.698 -30.062  1.00  0.00     0.017 A 
HETATM   22  C   UNL     1      -1.089   7.491 -29.294  1.00  0.00     0.008 A 
HETATM   23  C   UNL     1       0.299   7.418 -29.472  1.00  0.00    -0.057 A 
HETATM   24  C   UNL     1       0.811   6.568 -30.463  1.00  0.00     0.008 A 
HETATM   25  C   UNL     1      -0.046   5.782 -31.237  1.00  0.00     0.017 A 
BRANCH  23  26
HETATM   26  C   UNL     1       1.239   8.198 -28.580  1.00  0.00     0.053 C 
BRANCH  26  27
HETATM   27  C   UNL     1       0.792   8.350 -27.117  1.00  0.00     0.091 C 
HETATM   28  C   UNL     1       0.648   9.799 -26.721  1.00  0.00     0.229 C 
HETATM   29  O   UNL     1      -0.161  10.584 -27.187  1.00  0.00    -0.273 OA
HETATM   30  N   UNL     1       1.592  10.096 -25.794  1.00  0.00    -0.297 N 
HETATM   31  C   UNL     1       2.325   9.021 -25.411  1.00  0.00     0.225 C 
HETATM   32  H   UNL     1       1.743  11.024 -25.432  1.00  0.00     0.171 HD
HETATM   33  O   UNL     1       3.243   9.034 -24.609  1.00  0.00    -0.273 OA
HETATM   34  C   UNL     1       1.771   7.797 -26.079  1.00  0.00     0.117 C 
ENDBRANCH  26  27
ENDBRANCH  23  26
ENDBRANCH   2  20
TORSDOF 5
ENDMDL
MODEL 4
REMARK VINA RESULT:      -9.3      1.349      1.898
REMARK  5 active torsions:
REMARK  status: ('A' for Active; 'I' for Inactive)
REMARK    1  A    between atoms: C_2  and  N_3 
REMARK    2  A    between atoms: C_7  and  N_8 
REMARK       I    between atoms: N_8  and  C_9 
REMARK    3  A    between atoms: C_9  and  C_10 
REMARK    4  A    between atoms: C_13  and  C_14 
REMARK    5  A    between atoms: C_14  and  C_15 
ROOT
HETATM    1  N   UNL     1      -2.922   4.661 -30.880  1.00  0.00    -0.323 N 
HETATM    2  C   UNL     1      -2.712   5.972 -31.268  1.00  0.00     0.256 C 
HETATM    3  O   UNL     1      -3.313   6.579 -32.147  1.00  0.00    -0.267 OA
HETATM    4  H   UNL     1      -2.501   4.361 -30.012  1.00  0.00     0.169 HD
ENDROOT
BRANCH   1   5
HETATM    5  C   UNL     1      -3.662   3.677 -31.572  1.00  0.00     0.035 A 
HETATM    6  C   UNL     1      -3.283   2.334 -31.645  1.00  0.00     0.044 A 
HETATM    7  C   UNL     1      -4.121   1.389 -32.280  1.00  0.00     0.005 A 
HETATM    8  C   UNL     1      -5.328   1.818 -32.832  1.00  0.00     0.046 A 
HETATM    9  C   UNL     1      -4.020  -0.020 -32.498  1.00  0.00     0.003 A 
HETATM   10  N   UNL     1      -5.957   0.697 -33.343  1.00  0.00    -0.346 N 
HETATM   11  C   UNL     1      -5.715   3.166 -32.797  1.00  0.00     0.033 A 
HETATM   12  C   UNL     1      -5.176  -0.430 -33.165  1.00  0.00     0.046 A 
HETATM   13  C   UNL     1      -5.385  -1.771 -33.528  1.00  0.00     0.030 A 
HETATM   14  C   UNL     1      -4.398  -2.706 -33.200  1.00  0.00     0.002 A 
HETATM   15  C   UNL     1      -3.240  -2.320 -32.533  1.00  0.00     0.001 A 
HETATM   16  C   UNL     1      -3.040  -0.983 -32.178  1.00  0.00     0.014 A 
HETATM   17  C   UNL     1      -4.866   4.079 -32.158  1.00  0.00     0.032 A 
BRANCH  10  18
HETATM   18  C   UNL     1      -7.279   0.695 -33.950  1.00  0.00     0.125 C 
HETATM   19  C   UNL     1      -7.223   0.507 -35.455  1.00  0.00     0.027 C 
ENDBRANCH  10  18
ENDBRANCH   1   5
BRANCH   2  20
HETATM   20  C   UNL     1      -1.645   6.699 -30.516  1.00  0.00     0.032 A 
HETATM   21  C   UNL     1      -1.918   7.848 -29.763  1.00  0.00     0.017 A 
HETATM   22  C   UNL     1      -0.908   8.449 -29.004  1.00  0.00     0.008 A 
HETATM   23  C   UNL     1       0.379   7.897 -28.965  1.00  0.00    -0.057 A 
HETATM   24  C   UNL     1       0.649   6.754 -29.731  1.00  0.00     0.008 A 
HETATM   25  C   UNL     1      -0.355   6.158 -30.497  1.00  0.00     0.017 A 
BRANCH  23  26
HETATM   26  C   UNL     1       1.449   8.484 -28.072  1.00  0.00     0.053 C 
BRANCH  26  27
HETATM   27  C   UNL     1       1.030   8.745 -26.616  1.00  0.00     0.091 C 
HETATM   28  C   UNL     1       1.095  10.211 -26.268  1.00  0.00     0.229 C 
HETATM   29  O   UNL     1       0.405  11.088 -26.762  1.00  0.00    -0.273 OA
HETATM   30  N   UNL     1       2.072  10.401 -25.347  1.00  0.00    -0.297 N 
HETATM   31  C   UNL     1       2.644   9.246 -24.927  1.00  0.00     0.225 C 
HETATM   32  H   UNL     1       2.354  11.309 -25.014  1.00  0.00     0.171 HD
HETATM   33  O   UNL     1       3.555   9.154 -24.122  1.00  0.00    -0.273 OA
HETATM   34  C   UNL     1       1.921   8.092 -25.557  1.00  0.00     0.117 C 
ENDBRANCH  26  27
ENDBRANCH  23  26
ENDBRANCH   2  20
TORSDOF 5
ENDMDL
MODEL 5
REMARK VINA RESULT:      -9.3      1.494      2.164
REMARK  5 active torsions:
REMARK  status: ('A' for Active; 'I' for Inactive)
REMARK    1  A    between atoms: C_2  and  N_3 
REMARK    2  A    between atoms: C_7  and  N_8 
REMARK       I    between atoms: N_8  and  C_9 
REMARK    3  A    between atoms: C_9  and  C_10 
REMARK    4  A    between atoms: C_13  and  C_14 
REMARK    5  A    between atoms: C_14  and  C_15 
ROOT
HETATM    1  N   UNL     1      -3.806   4.409 -31.927  1.00  0.00    -0.323 N 
HETATM    2  C   UNL     1      -2.570   4.743 -32.450  1.00  0.00     0.256 C 
HETATM    3  O   UNL     1      -2.151   4.464 -33.567  1.00  0.00    -0.267 OA
HETATM    4  H   UNL     1      -4.094   4.878 -31.080  1.00  0.00     0.169 HD
ENDROOT
BRANCH   1   5
HETATM    5  C   UNL     1      -4.723   3.467 -32.445  1.00  0.00     0.035 A 
HETATM    6  C   UNL     1      -4.384   2.146 -32.750  1.00  0.00     0.044 A 
HETATM    7  C   UNL     1      -5.376   1.236 -33.179  1.00  0.00     0.005 A 
HETATM    8  C   UNL     1      -6.695   1.675 -33.295  1.00  0.00     0.046 A 
HETATM    9  C   UNL     1      -5.346  -0.147 -33.543  1.00  0.00     0.003 A 
HETATM   10  N   UNL     1      -7.450   0.586 -33.688  1.00  0.00    -0.346 N 
HETATM   11  C   UNL     1      -7.052   3.005 -33.024  1.00  0.00     0.033 A 
HETATM   12  C   UNL     1      -6.651  -0.530 -33.859  1.00  0.00     0.046 A 
HETATM   13  C   UNL     1      -6.961  -1.842 -34.258  1.00  0.00     0.030 A 
HETATM   14  C   UNL     1      -5.921  -2.773 -34.332  1.00  0.00     0.002 A 
HETATM   15  C   UNL     1      -4.615  -2.413 -34.020  1.00  0.00     0.001 A 
HETATM   16  C   UNL     1      -4.315  -1.106 -33.625  1.00  0.00     0.014 A 
HETATM   17  C   UNL     1      -6.048   3.884 -32.597  1.00  0.00     0.032 A 
BRANCH  10  18
HETATM   18  C   UNL     1      -8.894   0.598 -33.860  1.00  0.00     0.125 C 
HETATM   19  C   UNL     1      -9.627   0.124 -32.618  1.00  0.00     0.027 C 
ENDBRANCH  10  18
ENDBRANCH   1   5
BRANCH   2  20
HETATM   20  C   UNL     1      -1.683   5.532 -31.543  1.00  0.00     0.032 A 
HETATM   21  C   UNL     1      -1.864   6.905 -31.335  1.00  0.00     0.017 A 
HETATM   22  C   UNL     1      -1.066   7.589 -30.413  1.00  0.00     0.008 A 
HETATM   23  C   UNL     1      -0.097   6.907 -29.664  1.00  0.00    -0.057 A 
HETATM   24  C   UNL     1       0.088   5.535 -29.886  1.00  0.00     0.008 A 
HETATM   25  C   UNL     1      -0.701   4.852 -30.813  1.00  0.00     0.017 A 
BRANCH  23  26
HETATM   26  C   UNL     1       0.702   7.620 -28.596  1.00  0.00     0.053 C 
BRANCH  26  27
HETATM   27  C   UNL     1      -0.035   7.869 -27.270  1.00  0.00     0.091 C 
HETATM   28  C   UNL     1      -0.728   6.626 -26.771  1.00  0.00     0.229 C 
HETATM   29  O   UNL     1      -0.173   5.597 -26.421  1.00  0.00    -0.273 OA
HETATM   30  N   UNL     1      -2.069   6.823 -26.814  1.00  0.00    -0.297 N 
HETATM   31  C   UNL     1      -2.414   8.079 -27.189  1.00  0.00     0.225 C 
HETATM   32  H   UNL     1      -2.743   6.106 -26.600  1.00  0.00     0.171 HD
HETATM   33  O   UNL     1      -3.552   8.495 -27.323  1.00  0.00    -0.273 OA
HETATM   34  C   UNL     1      -1.165   8.898 -27.340  1.00  0.00     0.117 C 
ENDBRANCH  26  27
ENDBRANCH  23  26
ENDBRANCH   2  20
TORSDOF 5
ENDMDL
MODEL 6
REMARK VINA RESULT:      -8.9      7.299     12.496
REMARK  5 active torsions:
REMARK  status: ('A' for Active; 'I' for Inactive)
REMARK    1  A    between atoms: C_2  and  N_3 
REMARK    2  A    between atoms: C_7  and  N_8 
REMARK       I    between atoms: N_8  and  C_9 
REMARK    3  A    between atoms: C_9  and  C_10 
REMARK    4  A    between atoms: C_13  and  C_14 
REMARK    5  A    between atoms: C_14  and  C_15 
ROOT
HETATM    1  N   UNL     1     -10.956   0.946 -32.685  1.00  0.00    -0.323 N 
HETATM    2  C   UNL     1     -11.642   1.625 -33.675  1.00  0.00     0.256 C 
HETATM    3  O   UNL     1     -11.223   1.909 -34.791  1.00  0.00    -0.267 OA
HETATM    4  H   UNL     1     -11.491   0.605 -31.899  1.00  0.00     0.169 HD
ENDROOT
BRANCH   1   5
HETATM    5  C   UNL     1      -9.569   0.678 -32.641  1.00  0.00     0.035 A 
HETATM    6  C   UNL     1      -8.973  -0.412 -33.279  1.00  0.00     0.044 A 
HETATM    7  C   UNL     1      -7.568  -0.566 -33.267  1.00  0.00     0.005 A 
HETATM    8  C   UNL     1      -6.788   0.385 -32.607  1.00  0.00     0.046 A 
HETATM    9  C   UNL     1      -6.683  -1.539 -33.825  1.00  0.00     0.003 A 
HETATM   10  N   UNL     1      -5.468   0.017 -32.786  1.00  0.00    -0.346 N 
HETATM   11  C   UNL     1      -7.368   1.471 -31.933  1.00  0.00     0.033 A 
HETATM   12  C   UNL     1      -5.378  -1.157 -33.511  1.00  0.00     0.046 A 
HETATM   13  C   UNL     1      -4.266  -1.913 -33.920  1.00  0.00     0.030 A 
HETATM   14  C   UNL     1      -4.494  -3.074 -34.665  1.00  0.00     0.002 A 
HETATM   15  C   UNL     1      -5.785  -3.472 -34.991  1.00  0.00     0.001 A 
HETATM   16  C   UNL     1      -6.886  -2.716 -34.578  1.00  0.00     0.014 A 
HETATM   17  C   UNL     1      -8.763   1.599 -31.966  1.00  0.00     0.032 A 
BRANCH  10  18
HETATM   18  C   UNL     1      -4.324   0.781 -32.311  1.00  0.00     0.125 C 
HETATM   19  C   UNL     1      -3.754   0.224 -31.019  1.00  0.00     0.027 C 
ENDBRANCH  10  18
ENDBRANCH   1   5
BRANCH   2  20
HETATM   20  C   UNL     1     -13.036   2.034 -33.323  1.00  0.00     0.032 A 
HETATM   21  C   UNL     1     -14.142   1.223 -33.606  1.00  0.00     0.017 A 
HETATM   22  C   UNL     1     -15.420   1.603 -33.183  1.00  0.00     0.008 A 
HETATM   23  C   UNL     1     -15.608   2.781 -32.449  1.00  0.00    -0.057 A 
HETATM   24  C   UNL     1     -14.498   3.595 -32.180  1.00  0.00     0.008 A 
HETATM   25  C   UNL     1     -13.223   3.222 -32.609  1.00  0.00     0.017 A 
BRANCH  23  26
HETATM   26  C   UNL     1     -16.971   3.148 -31.905  1.00  0.00     0.053 C 
BRANCH  26  27
HETATM   27  C   UNL     1     -17.176   4.636 -31.579  1.00  0.00     0.091 C 
HETATM   28  C   UNL     1     -18.518   4.890 -30.937  1.00  0.00     0.229 C 
HETATM   29  O   UNL     1     -18.874   4.467 -29.850  1.00  0.00    -0.273 OA
HETATM   30  N   UNL     1     -19.276   5.629 -31.783  1.00  0.00    -0.297 N 
HETATM   31  C   UNL     1     -18.613   6.013 -32.902  1.00  0.00     0.225 C 
HETATM   32  H   UNL     1     -20.240   5.862 -31.607  1.00  0.00     0.171 HD
HETATM   33  O   UNL     1     -19.081   6.663 -33.820  1.00  0.00    -0.273 OA
HETATM   34  C   UNL     1     -17.183   5.571 -32.790  1.00  0.00     0.117 C 
ENDBRANCH  26  27
ENDBRANCH  23  26
ENDBRANCH   2  20
TORSDOF 5
ENDMDL
MODEL 7
REMARK VINA RESULT:      -8.7      4.312      7.269
REMARK  5 active torsions:
REMARK  status: ('A' for Active; 'I' for Inactive)
REMARK    1  A    between atoms: C_2  and  N_3 
REMARK    2  A    between atoms: C_7  and  N_8 
REMARK       I    between atoms: N_8  and  C_9 
REMARK    3  A    between atoms: C_9  and  C_10 
REMARK    4  A    between atoms: C_13  and  C_14 
REMARK    5  A    between atoms: C_14  and  C_15 
ROOT
HETATM    1  N   UNL     1      -7.629   2.822 -32.618  1.00  0.00    -0.323 N 
HETATM    2  C   UNL     1      -6.828   2.354 -31.592  1.00  0.00     0.256 C 
HETATM    3  O   UNL     1      -7.118   1.489 -30.775  1.00  0.00    -0.267 OA
HETATM    4  H   UNL     1      -7.189   3.383 -33.333  1.00  0.00     0.169 HD
ENDROOT
BRANCH   1   5
HETATM    5  C   UNL     1      -9.017   2.608 -32.779  1.00  0.00     0.035 A 
HETATM    6  C   UNL     1      -9.996   3.403 -32.177  1.00  0.00     0.044 A 
HETATM    7  C   UNL     1     -11.364   3.184 -32.456  1.00  0.00     0.005 A 
HETATM    8  C   UNL     1     -11.721   2.163 -33.337  1.00  0.00     0.046 A 
HETATM    9  C   UNL     1     -12.567   3.822 -32.021  1.00  0.00     0.003 A 
HETATM   10  N   UNL     1     -13.097   2.199 -33.458  1.00  0.00    -0.346 N 
HETATM   11  C   UNL     1     -10.756   1.332 -33.928  1.00  0.00     0.033 A 
HETATM   12  C   UNL     1     -13.636   3.188 -32.657  1.00  0.00     0.046 A 
HETATM   13  C   UNL     1     -14.967   3.585 -32.439  1.00  0.00     0.030 A 
HETATM   14  C   UNL     1     -15.205   4.646 -31.560  1.00  0.00     0.002 A 
HETATM   15  C   UNL     1     -14.155   5.292 -30.918  1.00  0.00     0.001 A 
HETATM   16  C   UNL     1     -12.835   4.890 -31.139  1.00  0.00     0.014 A 
HETATM   17  C   UNL     1      -9.408   1.576 -33.636  1.00  0.00     0.032 A 
BRANCH  10  18
HETATM   18  C   UNL     1     -13.873   1.339 -34.339  1.00  0.00     0.125 C 
HETATM   19  C   UNL     1     -14.146  -0.022 -33.723  1.00  0.00     0.027 C 
ENDBRANCH  10  18
ENDBRANCH   1   5
BRANCH   2  20
HETATM   20  C   UNL     1      -5.474   2.981 -31.502  1.00  0.00     0.032 A 
HETATM   21  C   UNL     1      -4.298   2.226 -31.590  1.00  0.00     0.017 A 
HETATM   22  C   UNL     1      -3.052   2.861 -31.587  1.00  0.00     0.008 A 
HETATM   23  C   UNL     1      -2.963   4.258 -31.525  1.00  0.00    -0.057 A 
HETATM   24  C   UNL     1      -4.143   5.007 -31.423  1.00  0.00     0.008 A 
HETATM   25  C   UNL     1      -5.389   4.375 -31.417  1.00  0.00     0.017 A 
BRANCH  23  26
HETATM   26  C   UNL     1      -1.624   4.956 -31.619  1.00  0.00     0.053 C 
BRANCH  26  27
HETATM   27  C   UNL     1      -1.202   5.396 -33.030  1.00  0.00     0.091 C 
HETATM   28  C   UNL     1      -1.528   6.846 -33.287  1.00  0.00     0.229 C 
HETATM   29  O   UNL     1      -1.038   7.797 -32.701  1.00  0.00    -0.273 OA
HETATM   30  N   UNL     1      -2.485   6.918 -34.245  1.00  0.00    -0.297 N 
HETATM   31  C   UNL     1      -2.811   5.710 -34.768  1.00  0.00     0.225 C 
HETATM   32  H   UNL     1      -2.920   7.780 -34.533  1.00  0.00     0.171 HD
HETATM   33  O   UNL     1      -3.655   5.510 -35.625  1.00  0.00    -0.273 OA
HETATM   34  C   UNL     1      -1.910   4.668 -34.175  1.00  0.00     0.117 C 
ENDBRANCH  26  27
ENDBRANCH  23  26
ENDBRANCH   2  20
TORSDOF 5
ENDMDL
MODEL 8
REMARK VINA RESULT:      -8.7      7.228     10.780
REMARK  5 active torsions:
REMARK  status: ('A' for Active; 'I' for Inactive)
REMARK    1  A    between atoms: C_2  and  N_3 
REMARK    2  A    between atoms: C_7  and  N_8 
REMARK       I    between atoms: N_8  and  C_9 
REMARK    3  A    between atoms: C_9  and  C_10 
REMARK    4  A    between atoms: C_13  and  C_14 
REMARK    5  A    between atoms: C_14  and  C_15 
ROOT
HETATM    1  N   UNL     1      -8.571   2.633 -33.982  1.00  0.00    -0.323 N 
HETATM    2  C   UNL     1      -9.771   2.696 -33.297  1.00  0.00     0.256 C 
HETATM    3  O   UNL     1     -10.042   2.129 -32.245  1.00  0.00    -0.267 OA
HETATM    4  H   UNL     1      -8.420   3.309 -34.718  1.00  0.00     0.169 HD
ENDROOT
BRANCH   1   5
HETATM    5  C   UNL     1      -7.519   1.714 -33.772  1.00  0.00     0.035 A 
HETATM    6  C   UNL     1      -7.587   0.366 -34.134  1.00  0.00     0.044 A 
HETATM    7  C   UNL     1      -6.462  -0.474 -33.975  1.00  0.00     0.005 A 
HETATM    8  C   UNL     1      -5.285   0.063 -33.452  1.00  0.00     0.046 A 
HETATM    9  C   UNL     1      -6.221  -1.854 -34.258  1.00  0.00     0.003 A 
HETATM   10  N   UNL     1      -4.347  -0.954 -33.446  1.00  0.00    -0.346 N 
HETATM   11  C   UNL     1      -5.203   1.406 -33.053  1.00  0.00     0.033 A 
HETATM   12  C   UNL     1      -4.895  -2.132 -33.917  1.00  0.00     0.046 A 
HETATM   13  C   UNL     1      -4.343  -3.414 -34.078  1.00  0.00     0.030 A 
HETATM   14  C   UNL     1      -5.159  -4.424 -34.598  1.00  0.00     0.002 A 
HETATM   15  C   UNL     1      -6.480  -4.169 -34.946  1.00  0.00     0.001 A 
HETATM   16  C   UNL     1      -7.022  -2.891 -34.781  1.00  0.00     0.014 A 
HETATM   17  C   UNL     1      -6.334   2.215 -33.226  1.00  0.00     0.032 A 
BRANCH  10  18
HETATM   18  C   UNL     1      -2.960  -0.797 -33.036  1.00  0.00     0.125 C 
HETATM   19  C   UNL     1      -2.760  -1.074 -31.557  1.00  0.00     0.027 C 
ENDBRANCH  10  18
ENDBRANCH   1   5
BRANCH   2  20
HETATM   20  C   UNL     1     -10.820   3.557 -33.922  1.00  0.00     0.032 A 
HETATM   21  C   UNL     1     -11.157   4.814 -33.404  1.00  0.00     0.017 A 
HETATM   22  C   UNL     1     -12.083   5.624 -34.069  1.00  0.00     0.008 A 
HETATM   23  C   UNL     1     -12.664   5.204 -35.273  1.00  0.00    -0.057 A 
HETATM   24  C   UNL     1     -12.333   3.940 -35.779  1.00  0.00     0.008 A 
HETATM   25  C   UNL     1     -11.415   3.125 -35.113  1.00  0.00     0.017 A 
BRANCH  23  26
HETATM   26  C   UNL     1     -13.591   6.115 -36.047  1.00  0.00     0.053 C 
BRANCH  26  27
HETATM   27  C   UNL     1     -13.249   7.613 -35.992  1.00  0.00     0.091 C 
HETATM   28  C   UNL     1     -14.304   8.454 -36.665  1.00  0.00     0.229 C 
HETATM   29  O   UNL     1     -15.461   8.571 -36.294  1.00  0.00    -0.273 OA
HETATM   30  N   UNL     1     -13.770   9.027 -37.772  1.00  0.00    -0.297 N 
HETATM   31  C   UNL     1     -12.445   8.776 -37.918  1.00  0.00     0.225 C 
HETATM   32  H   UNL     1     -14.303   9.575 -38.428  1.00  0.00     0.171 HD
HETATM   33  O   UNL     1     -11.745   9.160 -38.840  1.00  0.00    -0.273 OA
HETATM   34  C   UNL     1     -11.964   8.011 -36.721  1.00  0.00     0.117 C 
ENDBRANCH  26  27
ENDBRANCH  23  26
ENDBRANCH   2  20
TORSDOF 5
ENDMDL
MODEL 9
REMARK VINA RESULT:      -8.7      3.937      6.462
REMARK  5 active torsions:
REMARK  status: ('A' for Active; 'I' for Inactive)
REMARK    1  A    between atoms: C_2  and  N_3 
REMARK    2  A    between atoms: C_7  and  N_8 
REMARK       I    between atoms: N_8  and  C_9 
REMARK    3  A    between atoms: C_9  and  C_10 
REMARK    4  A    between atoms: C_13  and  C_14 
REMARK    5  A    between atoms: C_14  and  C_15 
ROOT
HETATM    1  N   UNL     1      -7.738   4.128 -33.450  1.00  0.00    -0.323 N 
HETATM    2  C   UNL     1      -6.744   3.256 -33.043  1.00  0.00     0.256 C 
HETATM    3  O   UNL     1      -6.904   2.163 -32.514  1.00  0.00    -0.267 OA
HETATM    4  H   UNL     1      -7.467   4.893 -34.052  1.00  0.00     0.169 HD
ENDROOT
BRANCH   1   5
HETATM    5  C   UNL     1      -9.108   4.075 -33.109  1.00  0.00     0.035 A 
HETATM    6  C   UNL     1     -10.000   3.139 -33.637  1.00  0.00     0.044 A 
HETATM    7  C   UNL     1     -11.337   3.090 -33.181  1.00  0.00     0.005 A 
HETATM    8  C   UNL     1     -11.751   3.990 -32.198  1.00  0.00     0.046 A 
HETATM    9  C   UNL     1     -12.454   2.260 -33.507  1.00  0.00     0.003 A 
HETATM   10  N   UNL     1     -13.071   3.696 -31.914  1.00  0.00    -0.346 N 
HETATM   11  C   UNL     1     -10.880   4.959 -31.677  1.00  0.00     0.033 A 
HETATM   12  C   UNL     1     -13.526   2.658 -32.706  1.00  0.00     0.046 A 
HETATM   13  C   UNL     1     -14.782   2.032 -32.785  1.00  0.00     0.030 A 
HETATM   14  C   UNL     1     -14.941   0.983 -33.696  1.00  0.00     0.002 A 
HETATM   15  C   UNL     1     -13.886   0.569 -34.501  1.00  0.00     0.001 A 
HETATM   16  C   UNL     1     -12.641   1.198 -34.417  1.00  0.00     0.014 A 
HETATM   17  C   UNL     1      -9.560   4.981 -32.145  1.00  0.00     0.032 A 
BRANCH  10  18
HETATM   18  C   UNL     1     -13.865   4.361 -30.892  1.00  0.00     0.125 C 
HETATM   19  C   UNL     1     -14.614   5.565 -31.435  1.00  0.00     0.027 C 
ENDBRANCH  10  18
ENDBRANCH   1   5
BRANCH   2  20
HETATM   20  C   UNL     1      -5.346   3.718 -33.294  1.00  0.00     0.032 A 
HETATM   21  C   UNL     1      -5.059   4.789 -34.150  1.00  0.00     0.017 A 
HETATM   22  C   UNL     1      -3.744   5.245 -34.292  1.00  0.00     0.008 A 
HETATM   23  C   UNL     1      -2.703   4.658 -33.561  1.00  0.00    -0.057 A 
HETATM   24  C   UNL     1      -2.994   3.578 -32.717  1.00  0.00     0.008 A 
HETATM   25  C   UNL     1      -4.305   3.115 -32.580  1.00  0.00     0.017 A 
BRANCH  23  26
HETATM   26  C   UNL     1      -1.296   5.209 -33.636  1.00  0.00     0.053 C 
BRANCH  26  27
HETATM   27  C   UNL     1      -0.891   6.155 -32.493  1.00  0.00     0.091 C 
HETATM   28  C   UNL     1      -0.405   5.397 -31.283  1.00  0.00     0.229 C 
HETATM   29  O   UNL     1       0.596   4.702 -31.238  1.00  0.00    -0.273 OA
HETATM   30  N   UNL     1      -1.283   5.582 -30.267  1.00  0.00    -0.297 N 
HETATM   31  C   UNL     1      -2.280   6.449 -30.571  1.00  0.00     0.225 C 
HETATM   32  H   UNL     1      -1.211   5.114 -29.378  1.00  0.00     0.171 HD
HETATM   33  O   UNL     1      -3.200   6.763 -29.836  1.00  0.00    -0.273 OA
HETATM   34  C   UNL     1      -2.024   7.019 -31.936  1.00  0.00     0.117 C 
ENDBRANCH  26  27
ENDBRANCH  23  26
ENDBRANCH   2  20
TORSDOF 5
ENDMDL
MODEL 10
REMARK VINA RESULT:      -8.6      7.424     10.737
REMARK  5 active torsions:
REMARK  status: ('A' for Active; 'I' for Inactive)
REMARK    1  A    between atoms: C_2  and  N_3 
REMARK    2  A    between atoms: C_7  and  N_8 
REMARK       I    between atoms: N_8  and  C_9 
REMARK    3  A    between atoms: C_9  and  C_10 
REMARK    4  A    between atoms: C_13  and  C_14 
REMARK    5  A    between atoms: C_14  and  C_15 
ROOT
HETATM    1  N   UNL     1     -10.094   2.533 -34.554  1.00  0.00    -0.323 N 
HETATM    2  C   UNL     1      -9.435   2.123 -33.409  1.00  0.00     0.256 C 
HETATM    3  O   UNL     1      -9.604   2.556 -32.275  1.00  0.00    -0.267 OA
HETATM    4  H   UNL     1     -10.003   1.952 -35.375  1.00  0.00     0.169 HD
ENDROOT
BRANCH   1   5
HETATM    5  C   UNL     1     -10.885   3.694 -34.711  1.00  0.00     0.035 A 
HETATM    6  C   UNL     1     -10.428   4.862 -35.328  1.00  0.00     0.044 A 
HETATM    7  C   UNL     1     -11.305   5.952 -35.530  1.00  0.00     0.005 A 
HETATM    8  C   UNL     1     -12.629   5.844 -35.103  1.00  0.00     0.046 A 
HETATM    9  C   UNL     1     -11.145   7.240 -36.127  1.00  0.00     0.003 A 
HETATM   10  N   UNL     1     -13.263   7.020 -35.458  1.00  0.00    -0.346 N 
HETATM   11  C   UNL     1     -13.101   4.692 -34.454  1.00  0.00     0.033 A 
HETATM   12  C   UNL     1     -12.380   7.891 -36.069  1.00  0.00     0.046 A 
HETATM   13  C   UNL     1     -12.557   9.188 -36.578  1.00  0.00     0.030 A 
HETATM   14  C   UNL     1     -11.456   9.827 -37.157  1.00  0.00     0.002 A 
HETATM   15  C   UNL     1     -10.219   9.197 -37.227  1.00  0.00     0.001 A 
HETATM   16  C   UNL     1     -10.051   7.907 -36.717  1.00  0.00     0.014 A 
HETATM   17  C   UNL     1     -12.210   3.627 -34.271  1.00  0.00     0.032 A 
BRANCH  10  18
HETATM   18  C   UNL     1     -14.678   7.291 -35.254  1.00  0.00     0.125 C 
HETATM   19  C   UNL     1     -14.948   7.984 -33.930  1.00  0.00     0.027 C 
ENDBRANCH  10  18
ENDBRANCH   1   5
BRANCH   2  20
HETATM   20  C   UNL     1      -8.429   1.036 -33.605  1.00  0.00     0.032 A 
HETATM   21  C   UNL     1      -7.983   0.236 -32.545  1.00  0.00     0.017 A 
HETATM   22  C   UNL     1      -7.105  -0.826 -32.785  1.00  0.00     0.008 A 
HETATM   23  C   UNL     1      -6.683  -1.122 -34.088  1.00  0.00    -0.057 A 
HETATM   24  C   UNL     1      -7.123  -0.309 -35.143  1.00  0.00     0.008 A 
HETATM   25  C   UNL     1      -7.992   0.758 -34.904  1.00  0.00     0.017 A 
BRANCH  23  26
HETATM   26  C   UNL     1      -5.812  -2.327 -34.368  1.00  0.00     0.053 C 
BRANCH  26  27
HETATM   27  C   UNL     1      -4.305  -2.122 -34.147  1.00  0.00     0.091 C 
HETATM   28  C   UNL     1      -3.720  -3.182 -33.248  1.00  0.00     0.229 C 
HETATM   29  O   UNL     1      -3.654  -4.373 -33.507  1.00  0.00    -0.273 OA
HETATM   30  N   UNL     1      -3.318  -2.603 -32.090  1.00  0.00    -0.297 N 
HETATM   31  C   UNL     1      -3.455  -1.254 -32.090  1.00  0.00     0.225 C 
HETATM   32  H   UNL     1      -2.962  -3.121 -31.303  1.00  0.00     0.171 HD
HETATM   33  O   UNL     1      -3.184  -0.511 -31.163  1.00  0.00    -0.273 OA
HETATM   34  C   UNL     1      -3.923  -0.816 -33.447  1.00  0.00     0.117 C 
ENDBRANCH  26  27
ENDBRANCH  23  26
ENDBRANCH   2  20
TORSDOF 5
ENDMDL
