MODEL 1
REMARK VINA RESULT:      -8.4      0.000      0.000
REMARK  4 active torsions:
REMARK  status: ('A' for Active; 'I' for Inactive)
REMARK    1  A    between atoms: C_5  and  C_6 
REMARK    2  A    between atoms: C_6  and  N_7 
REMARK    3  A    between atoms: C_6  and  C_18 
REMARK    4  A    between atoms: N_7  and  C_8 
ROOT
HETATM    1  C   UNL     1      -6.528   0.577 -32.980  1.00  0.00     0.288 C 
ENDROOT
BRANCH   1   2
HETATM    2  C   UNL     1      -5.821   1.903 -33.206  1.00  0.00    -0.003 A 
HETATM    3  C   UNL     1      -6.301   2.866 -34.094  1.00  0.00     0.126 A 
HETATM    4  N   UNL     1      -5.745   4.087 -34.259  1.00  0.00    -0.272 NA
HETATM    5  C   UNL     1      -4.633   4.360 -33.544  1.00  0.00     0.116 A 
HETATM    6  C   UNL     1      -4.067   3.475 -32.644  1.00  0.00     0.020 A 
HETATM    7  C   UNL     1      -4.674   2.234 -32.470  1.00  0.00     0.012 A 
ENDBRANCH   1   2
BRANCH   1   8
HETATM    8  N   UNL     1      -7.967   0.659 -33.357  1.00  0.00     0.101 N 
HETATM    9  H   UNL     1      -8.086   0.059 -34.169  1.00  0.00     0.317 HD
BRANCH   8  10
HETATM   10  C   UNL     1      -8.965   0.402 -32.308  1.00  0.00     0.225 C 
HETATM   11  C   UNL     1     -10.355  -0.066 -32.805  1.00  0.00     0.069 C 
HETATM   12  C   UNL     1     -11.076   1.027 -33.568  1.00  0.00     0.190 C 
HETATM   13  N   UNL     1     -11.232   2.220 -32.667  1.00  0.00    -0.067 N 
HETATM   14  C   UNL     1     -12.515   0.766 -33.962  1.00  0.00     0.035 C 
HETATM   15  H   UNL     1     -11.711   1.912 -31.809  1.00  0.00     0.280 HD
HETATM   16  C   UNL     1      -9.916   2.800 -32.254  1.00  0.00     0.237 C 
HETATM   17  C   UNL     1     -12.202   3.126 -33.381  1.00  0.00     0.235 C 
HETATM   18  C   UNL     1      -9.138   1.718 -31.505  1.00  0.00     0.063 C 
HETATM   19  C   UNL     1     -13.045   2.174 -34.235  1.00  0.00     0.030 C 
ENDBRANCH   8  10
ENDBRANCH   1   8
BRANCH   1  20
HETATM   20  C   UNL     1      -5.773  -0.681 -33.426  1.00  0.00    -0.021 A 
HETATM   21  C   UNL     1      -4.663  -1.128 -32.674  1.00  0.00     0.012 A 
HETATM   22  C   UNL     1      -3.971  -2.291 -33.021  1.00  0.00     0.043 A 
HETATM   23  C   UNL     1      -4.394  -3.038 -34.110  1.00  0.00     0.116 A 
HETATM   24  F   UNL     1      -3.734  -4.153 -34.445  1.00  0.00    -0.206 F 
HETATM   25  C   UNL     1      -5.504  -2.650 -34.846  1.00  0.00     0.043 A 
HETATM   26  C   UNL     1      -6.198  -1.487 -34.497  1.00  0.00     0.012 A 
ENDBRANCH   1  20
TORSDOF 4
ENDMDL
MODEL 2
REMARK VINA RESULT:      -8.2      1.709      5.543
REMARK  4 active torsions:
REMARK  status: ('A' for Active; 'I' for Inactive)
REMARK    1  A    between atoms: C_5  and  C_6 
REMARK    2  A    between atoms: C_6  and  N_7 
REMARK    3  A    between atoms: C_6  and  C_18 
REMARK    4  A    between atoms: N_7  and  C_8 
ROOT
HETATM    1  C   UNL     1      -6.053   0.252 -33.901  1.00  0.00     0.288 C 
ENDROOT
BRANCH   1   2
HETATM    2  C   UNL     1      -7.490   0.611 -33.562  1.00  0.00    -0.003 A 
HETATM    3  C   UNL     1      -8.329   1.271 -34.460  1.00  0.00     0.126 A 
HETATM    4  N   UNL     1      -9.634   1.532 -34.224  1.00  0.00    -0.272 NA
HETATM    5  C   UNL     1     -10.130   1.161 -33.025  1.00  0.00     0.116 A 
HETATM    6  C   UNL     1      -9.385   0.511 -32.058  1.00  0.00     0.020 A 
HETATM    7  C   UNL     1      -8.051   0.227 -32.335  1.00  0.00     0.012 A 
ENDBRANCH   1   2
BRANCH   1   8
HETATM    8  N   UNL     1      -5.092   0.968 -33.015  1.00  0.00     0.101 N 
HETATM    9  H   UNL     1      -4.229   1.061 -33.543  1.00  0.00     0.317 HD
BRANCH   8  10
HETATM   10  C   UNL     1      -5.531   2.237 -32.415  1.00  0.00     0.225 C 
HETATM   11  C   UNL     1      -5.295   3.503 -33.276  1.00  0.00     0.069 C 
HETATM   12  C   UNL     1      -3.819   3.805 -33.438  1.00  0.00     0.190 C 
HETATM   13  N   UNL     1      -3.214   3.995 -32.076  1.00  0.00    -0.067 N 
HETATM   14  C   UNL     1      -3.447   5.110 -34.110  1.00  0.00     0.035 C 
HETATM   15  H   UNL     1      -3.749   4.729 -31.589  1.00  0.00     0.280 HD
HETATM   16  C   UNL     1      -3.296   2.760 -31.236  1.00  0.00     0.237 C 
HETATM   17  C   UNL     1      -1.849   4.578 -32.332  1.00  0.00     0.235 C 
HETATM   18  C   UNL     1      -4.773   2.398 -31.072  1.00  0.00     0.063 C 
HETATM   19  C   UNL     1      -1.998   5.309 -33.669  1.00  0.00     0.030 C 
ENDBRANCH   8  10
ENDBRANCH   1   8
BRANCH   1  20
HETATM   20  C   UNL     1      -5.767  -1.231 -34.165  1.00  0.00    -0.021 A 
HETATM   21  C   UNL     1      -4.516  -1.775 -33.794  1.00  0.00     0.012 A 
HETATM   22  C   UNL     1      -4.228  -3.129 -33.979  1.00  0.00     0.043 A 
HETATM   23  C   UNL     1      -5.195  -3.966 -34.514  1.00  0.00     0.116 A 
HETATM   24  F   UNL     1      -4.923  -5.264 -34.691  1.00  0.00    -0.206 F 
HETATM   25  C   UNL     1      -6.448  -3.474 -34.851  1.00  0.00     0.043 A 
HETATM   26  C   UNL     1      -6.736  -2.119 -34.664  1.00  0.00     0.012 A 
ENDBRANCH   1  20
TORSDOF 4
ENDMDL
MODEL 3
REMARK VINA RESULT:      -8.2      1.343      1.726
REMARK  4 active torsions:
REMARK  status: ('A' for Active; 'I' for Inactive)
REMARK    1  A    between atoms: C_5  and  C_6 
REMARK    2  A    between atoms: C_6  and  N_7 
REMARK    3  A    between atoms: C_6  and  C_18 
REMARK    4  A    between atoms: N_7  and  C_8 
ROOT
HETATM    1  C   UNL     1      -5.931   1.317 -32.200  1.00  0.00     0.288 C 
ENDROOT
BRANCH   1   2
HETATM    2  C   UNL     1      -4.792   2.323 -32.210  1.00  0.00    -0.003 A 
HETATM    3  C   UNL     1      -3.692   2.217 -31.361  1.00  0.00     0.126 A 
HETATM    4  N   UNL     1      -2.624   3.044 -31.399  1.00  0.00    -0.272 NA
HETATM    5  C   UNL     1      -2.659   4.056 -32.291  1.00  0.00     0.116 A 
HETATM    6  C   UNL     1      -3.704   4.260 -33.173  1.00  0.00     0.020 A 
HETATM    7  C   UNL     1      -4.781   3.378 -33.135  1.00  0.00     0.012 A 
ENDBRANCH   1   2
BRANCH   1   8
HETATM    8  N   UNL     1      -7.255   1.997 -32.272  1.00  0.00     0.101 N 
HETATM    9  H   UNL     1      -7.546   1.958 -33.245  1.00  0.00     0.317 HD
BRANCH   8  10
HETATM   10  C   UNL     1      -8.306   1.547 -31.346  1.00  0.00     0.225 C 
HETATM   11  C   UNL     1      -9.357   0.578 -31.944  1.00  0.00     0.069 C 
HETATM   12  C   UNL     1     -10.221   1.260 -32.985  1.00  0.00     0.190 C 
HETATM   13  N   UNL     1     -10.913   2.430 -32.345  1.00  0.00    -0.067 N 
HETATM   14  C   UNL     1     -11.401   0.480 -33.526  1.00  0.00     0.035 C 
HETATM   15  H   UNL     1     -11.428   2.085 -31.522  1.00  0.00     0.280 HD
HETATM   16  C   UNL     1      -9.951   3.468 -31.859  1.00  0.00     0.237 C 
HETATM   17  C   UNL     1     -11.960   2.858 -33.340  1.00  0.00     0.235 C 
HETATM   18  C   UNL     1      -9.034   2.814 -30.825  1.00  0.00     0.063 C 
HETATM   19  C   UNL     1     -12.282   1.580 -34.120  1.00  0.00     0.030 C 
ENDBRANCH   8  10
ENDBRANCH   1   8
BRANCH   1  20
HETATM   20  C   UNL     1      -5.749   0.076 -33.083  1.00  0.00    -0.021 A 
HETATM   21  C   UNL     1      -4.735  -0.857 -32.770  1.00  0.00     0.012 A 
HETATM   22  C   UNL     1      -4.560  -2.021 -33.523  1.00  0.00     0.043 A 
HETATM   23  C   UNL     1      -5.412  -2.281 -34.584  1.00  0.00     0.116 A 
HETATM   24  F   UNL     1      -5.248  -3.396 -35.307  1.00  0.00    -0.206 F 
HETATM   25  C   UNL     1      -6.444  -1.408 -34.894  1.00  0.00     0.043 A 
HETATM   26  C   UNL     1      -6.620  -0.244 -34.139  1.00  0.00     0.012 A 
ENDBRANCH   1  20
TORSDOF 4
ENDMDL
MODEL 4
REMARK VINA RESULT:      -8.0      2.671      6.640
REMARK  4 active torsions:
REMARK  status: ('A' for Active; 'I' for Inactive)
REMARK    1  A    between atoms: C_5  and  C_6 
REMARK    2  A    between atoms: C_6  and  N_7 
REMARK    3  A    between atoms: C_6  and  C_18 
REMARK    4  A    between atoms: N_7  and  C_8 
ROOT
HETATM    1  C   UNL     1      -6.868   1.025 -33.510  1.00  0.00     0.288 C 
ENDROOT
BRANCH   1   2
HETATM    2  C   UNL     1      -6.054  -0.221 -33.822  1.00  0.00    -0.003 A 
HETATM    3  C   UNL     1      -4.812  -0.469 -33.240  1.00  0.00     0.126 A 
HETATM    4  N   UNL     1      -4.100  -1.602 -33.430  1.00  0.00    -0.272 NA
HETATM    5  C   UNL     1      -4.618  -2.522 -34.270  1.00  0.00     0.116 A 
HETATM    6  C   UNL     1      -5.836  -2.374 -34.908  1.00  0.00     0.020 A 
HETATM    7  C   UNL     1      -6.565  -1.211 -34.674  1.00  0.00     0.012 A 
ENDBRANCH   1   2
BRANCH   1   8
HETATM    8  N   UNL     1      -6.293   2.228 -34.174  1.00  0.00     0.101 N 
HETATM    9  H   UNL     1      -6.760   2.310 -35.073  1.00  0.00     0.317 HD
BRANCH   8  10
HETATM   10  C   UNL     1      -6.289   3.490 -33.419  1.00  0.00     0.225 C 
HETATM   11  C   UNL     1      -5.622   4.694 -34.129  1.00  0.00     0.069 C 
HETATM   12  C   UNL     1      -4.129   4.497 -34.287  1.00  0.00     0.190 C 
HETATM   13  N   UNL     1      -3.521   4.308 -32.926  1.00  0.00    -0.067 N 
HETATM   14  C   UNL     1      -3.325   5.670 -34.808  1.00  0.00     0.035 C 
HETATM   15  H   UNL     1      -3.785   5.116 -32.343  1.00  0.00     0.280 HD
HETATM   16  C   UNL     1      -4.032   3.083 -32.236  1.00  0.00     0.237 C 
HETATM   17  C   UNL     1      -2.034   4.422 -33.141  1.00  0.00     0.235 C 
HETATM   18  C   UNL     1      -5.547   3.224 -32.083  1.00  0.00     0.063 C 
HETATM   19  C   UNL     1      -1.901   5.314 -34.379  1.00  0.00     0.030 C 
ENDBRANCH   8  10
ENDBRANCH   1   8
BRANCH   1  20
HETATM   20  C   UNL     1      -8.393   0.872 -33.567  1.00  0.00    -0.021 A 
HETATM   21  C   UNL     1      -9.031  -0.060 -32.717  1.00  0.00     0.012 A 
HETATM   22  C   UNL     1     -10.421  -0.203 -32.709  1.00  0.00     0.043 A 
HETATM   23  C   UNL     1     -11.195   0.601 -33.531  1.00  0.00     0.116 A 
HETATM   24  F   UNL     1     -12.527   0.469 -33.524  1.00  0.00    -0.206 F 
HETATM   25  C   UNL     1     -10.604   1.555 -34.347  1.00  0.00     0.043 A 
HETATM   26  C   UNL     1      -9.213   1.699 -34.355  1.00  0.00     0.012 A 
ENDBRANCH   1  20
TORSDOF 4
ENDMDL
MODEL 5
REMARK VINA RESULT:      -7.9      3.026      6.388
REMARK  4 active torsions:
REMARK  status: ('A' for Active; 'I' for Inactive)
REMARK    1  A    between atoms: C_5  and  C_6 
REMARK    2  A    between atoms: C_6  and  N_7 
REMARK    3  A    between atoms: C_6  and  C_18 
REMARK    4  A    between atoms: N_7  and  C_8 
ROOT
HETATM    1  C   UNL     1      -6.536  -0.350 -32.789  1.00  0.00     0.288 C 
ENDROOT
BRANCH   1   2
HETATM    2  C   UNL     1      -6.102  -1.545 -33.624  1.00  0.00    -0.003 A 
HETATM    3  C   UNL     1      -4.763  -1.892 -33.795  1.00  0.00     0.126 A 
HETATM    4  N   UNL     1      -4.345  -2.992 -34.460  1.00  0.00    -0.272 NA
HETATM    5  C   UNL     1      -5.294  -3.770 -35.022  1.00  0.00     0.116 A 
HETATM    6  C   UNL     1      -6.650  -3.513 -34.923  1.00  0.00     0.020 A 
HETATM    7  C   UNL     1      -7.057  -2.390 -34.208  1.00  0.00     0.012 A 
ENDBRANCH   1   2
BRANCH   1   8
HETATM    8  N   UNL     1      -5.408   0.600 -32.578  1.00  0.00     0.101 N 
HETATM    9  H   UNL     1      -5.707   1.491 -32.965  1.00  0.00     0.317 HD
BRANCH   8  10
HETATM   10  C   UNL     1      -4.865   0.725 -31.216  1.00  0.00     0.225 C 
HETATM   11  C   UNL     1      -5.667   1.638 -30.256  1.00  0.00     0.069 C 
HETATM   12  C   UNL     1      -5.606   3.091 -30.680  1.00  0.00     0.190 C 
HETATM   13  N   UNL     1      -4.167   3.524 -30.710  1.00  0.00    -0.067 N 
HETATM   14  C   UNL     1      -6.200   4.116 -29.736  1.00  0.00     0.035 C 
HETATM   15  H   UNL     1      -3.756   3.331 -29.786  1.00  0.00     0.280 HD
HETATM   16  C   UNL     1      -3.363   2.763 -31.717  1.00  0.00     0.237 C 
HETATM   17  C   UNL     1      -4.211   5.024 -30.840  1.00  0.00     0.235 C 
HETATM   18  C   UNL     1      -3.422   1.280 -31.346  1.00  0.00     0.063 C 
HETATM   19  C   UNL     1      -5.548   5.416 -30.203  1.00  0.00     0.030 C 
ENDBRANCH   8  10
ENDBRANCH   1   8
BRANCH   1  20
HETATM   20  C   UNL     1      -7.895   0.266 -33.140  1.00  0.00    -0.021 A 
HETATM   21  C   UNL     1      -7.963   1.298 -34.103  1.00  0.00     0.012 A 
HETATM   22  C   UNL     1      -9.185   1.861 -34.482  1.00  0.00     0.043 A 
HETATM   23  C   UNL     1     -10.359   1.382 -33.922  1.00  0.00     0.116 A 
HETATM   24  F   UNL     1     -11.531   1.917 -34.284  1.00  0.00    -0.206 F 
HETATM   25  C   UNL     1     -10.333   0.342 -33.004  1.00  0.00     0.043 A 
HETATM   26  C   UNL     1      -9.110  -0.222 -32.627  1.00  0.00     0.012 A 
ENDBRANCH   1  20
TORSDOF 4
ENDMDL
MODEL 6
REMARK VINA RESULT:      -7.9     14.781     16.897
REMARK  4 active torsions:
REMARK  status: ('A' for Active; 'I' for Inactive)
REMARK    1  A    between atoms: C_5  and  C_6 
REMARK    2  A    between atoms: C_6  and  N_7 
REMARK    3  A    between atoms: C_6  and  C_18 
REMARK    4  A    between atoms: N_7  and  C_8 
ROOT
HETATM    1  C   UNL     1      -6.910 -13.373 -37.384  1.00  0.00     0.288 C 
ENDROOT
BRANCH   1   2
HETATM    2  C   UNL     1      -6.983 -14.056 -36.028  1.00  0.00    -0.003 A 
HETATM    3  C   UNL     1      -7.200 -13.351 -34.845  1.00  0.00     0.126 A 
HETATM    4  N   UNL     1      -7.353 -13.933 -33.635  1.00  0.00    -0.272 NA
HETATM    5  C   UNL     1      -7.245 -15.277 -33.578  1.00  0.00     0.116 A 
HETATM    6  C   UNL     1      -7.019 -16.072 -34.687  1.00  0.00     0.020 A 
HETATM    7  C   UNL     1      -6.894 -15.453 -35.928  1.00  0.00     0.012 A 
ENDBRANCH   1   2
BRANCH   1   8
HETATM    8  N   UNL     1      -5.579 -13.576 -38.022  1.00  0.00     0.101 N 
HETATM    9  H   UNL     1      -5.626 -14.469 -38.505  1.00  0.00     0.317 HD
BRANCH   8  10
HETATM   10  C   UNL     1      -5.058 -12.497 -38.874  1.00  0.00     0.225 C 
HETATM   11  C   UNL     1      -5.295 -12.667 -40.394  1.00  0.00     0.069 C 
HETATM   12  C   UNL     1      -4.506 -13.830 -40.960  1.00  0.00     0.190 C 
HETATM   13  N   UNL     1      -3.045 -13.594 -40.697  1.00  0.00    -0.067 N 
HETATM   14  C   UNL     1      -4.509 -14.005 -42.464  1.00  0.00     0.035 C 
HETATM   15  H   UNL     1      -2.794 -12.676 -41.091  1.00  0.00     0.280 HD
HETATM   16  C   UNL     1      -2.729 -13.547 -39.235  1.00  0.00     0.237 C 
HETATM   17  C   UNL     1      -2.326 -14.617 -41.536  1.00  0.00     0.235 C 
HETATM   18  C   UNL     1      -3.531 -12.403 -38.614  1.00  0.00     0.063 C 
HETATM   19  C   UNL     1      -3.286 -14.892 -42.698  1.00  0.00     0.030 C 
ENDBRANCH   8  10
ENDBRANCH   1   8
BRANCH   1  20
HETATM   20  C   UNL     1      -8.137 -13.531 -38.291  1.00  0.00    -0.021 A 
HETATM   21  C   UNL     1      -8.724 -12.383 -38.872  1.00  0.00     0.012 A 
HETATM   22  C   UNL     1      -9.817 -12.484 -39.736  1.00  0.00     0.043 A 
HETATM   23  C   UNL     1     -10.324 -13.735 -40.052  1.00  0.00     0.116 A 
HETATM   24  F   UNL     1     -11.370 -13.836 -40.880  1.00  0.00    -0.206 F 
HETATM   25  C   UNL     1      -9.747 -14.885 -39.532  1.00  0.00     0.043 A 
HETATM   26  C   UNL     1      -8.651 -14.783 -38.669  1.00  0.00     0.012 A 
ENDBRANCH   1  20
TORSDOF 4
ENDMDL
MODEL 7
REMARK VINA RESULT:      -7.7      2.991      6.581
REMARK  4 active torsions:
REMARK  status: ('A' for Active; 'I' for Inactive)
REMARK    1  A    between atoms: C_5  and  C_6 
REMARK    2  A    between atoms: C_6  and  N_7 
REMARK    3  A    between atoms: C_6  and  C_18 
REMARK    4  A    between atoms: N_7  and  C_8 
ROOT
HETATM    1  C   UNL     1      -7.448   0.727 -31.562  1.00  0.00     0.288 C 
ENDROOT
BRANCH   1   2
HETATM    2  C   UNL     1      -8.595   0.986 -32.525  1.00  0.00    -0.003 A 
HETATM    3  C   UNL     1      -9.740   0.191 -32.557  1.00  0.00     0.126 A 
HETATM    4  N   UNL     1     -10.813   0.440 -33.341  1.00  0.00    -0.272 NA
HETATM    5  C   UNL     1     -10.739   1.504 -34.168  1.00  0.00     0.116 A 
HETATM    6  C   UNL     1      -9.647   2.351 -34.226  1.00  0.00     0.020 A 
HETATM    7  C   UNL     1      -8.566   2.092 -33.388  1.00  0.00     0.012 A 
ENDBRANCH   1   2
BRANCH   1   8
HETATM    8  N   UNL     1      -6.532  -0.327 -32.081  1.00  0.00     0.101 N 
HETATM    9  H   UNL     1      -6.966  -1.219 -31.860  1.00  0.00     0.317 HD
BRANCH   8  10
HETATM   10  C   UNL     1      -6.108  -0.233 -33.487  1.00  0.00     0.225 C 
HETATM   11  C   UNL     1      -6.732  -1.276 -34.446  1.00  0.00     0.069 C 
HETATM   12  C   UNL     1      -6.253  -2.680 -34.138  1.00  0.00     0.190 C 
HETATM   13  N   UNL     1      -4.755  -2.714 -34.253  1.00  0.00    -0.067 N 
HETATM   14  C   UNL     1      -6.647  -3.776 -35.106  1.00  0.00     0.035 C 
HETATM   15  H   UNL     1      -4.499  -2.373 -35.190  1.00  0.00     0.280 HD
HETATM   16  C   UNL     1      -4.085  -1.819 -33.259  1.00  0.00     0.237 C 
HETATM   17  C   UNL     1      -4.394  -4.177 -34.232  1.00  0.00     0.235 C 
HETATM   18  C   UNL     1      -4.565  -0.389 -33.513  1.00  0.00     0.063 C 
HETATM   19  C   UNL     1      -5.636  -4.878 -34.789  1.00  0.00     0.030 C 
ENDBRANCH   8  10
ENDBRANCH   1   8
BRANCH   1  20
HETATM   20  C   UNL     1      -6.788   1.966 -30.944  1.00  0.00    -0.021 A 
HETATM   21  C   UNL     1      -5.458   2.292 -31.294  1.00  0.00     0.012 A 
HETATM   22  C   UNL     1      -4.831   3.433 -30.786  1.00  0.00     0.043 A 
HETATM   23  C   UNL     1      -5.533   4.277 -29.940  1.00  0.00     0.116 A 
HETATM   24  F   UNL     1      -4.937   5.372 -29.452  1.00  0.00    -0.206 F 
HETATM   25  C   UNL     1      -6.853   4.009 -29.608  1.00  0.00     0.043 A 
HETATM   26  C   UNL     1      -7.481   2.868 -30.118  1.00  0.00     0.012 A 
ENDBRANCH   1  20
TORSDOF 4
ENDMDL
MODEL 8
REMARK VINA RESULT:      -7.6      3.286      6.078
REMARK  4 active torsions:
REMARK  status: ('A' for Active; 'I' for Inactive)
REMARK    1  A    between atoms: C_5  and  C_6 
REMARK    2  A    between atoms: C_6  and  N_7 
REMARK    3  A    between atoms: C_6  and  C_18 
REMARK    4  A    between atoms: N_7  and  C_8 
ROOT
HETATM    1  C   UNL     1      -5.669   3.491 -32.852  1.00  0.00     0.288 C 
ENDROOT
BRANCH   1   2
HETATM    2  C   UNL     1      -6.870   4.422 -32.871  1.00  0.00    -0.003 A 
HETATM    3  C   UNL     1      -6.961   5.544 -32.048  1.00  0.00     0.126 A 
HETATM    4  N   UNL     1      -7.974   6.439 -32.097  1.00  0.00    -0.272 NA
HETATM    5  C   UNL     1      -8.971   6.194 -32.972  1.00  0.00     0.116 A 
HETATM    6  C   UNL     1      -8.987   5.107 -33.827  1.00  0.00     0.020 A 
HETATM    7  C   UNL     1      -7.919   4.215 -33.779  1.00  0.00     0.012 A 
ENDBRANCH   1   2
BRANCH   1   8
HETATM    8  N   UNL     1      -6.044   2.115 -33.282  1.00  0.00     0.101 N 
HETATM    9  H   UNL     1      -5.460   1.895 -34.083  1.00  0.00     0.317 HD
BRANCH   8  10
HETATM   10  C   UNL     1      -6.035   1.054 -32.264  1.00  0.00     0.225 C 
HETATM   11  C   UNL     1      -4.994  -0.073 -32.477  1.00  0.00     0.069 C 
HETATM   12  C   UNL     1      -5.313  -0.908 -33.701  1.00  0.00     0.190 C 
HETATM   13  N   UNL     1      -6.682  -1.505 -33.532  1.00  0.00    -0.067 N 
HETATM   14  C   UNL     1      -4.477  -2.149 -33.931  1.00  0.00     0.035 C 
HETATM   15  H   UNL     1      -6.695  -2.027 -32.644  1.00  0.00     0.280 HD
HETATM   16  C   UNL     1      -7.753  -0.465 -33.448  1.00  0.00     0.237 C 
HETATM   17  C   UNL     1      -6.794  -2.539 -34.622  1.00  0.00     0.235 C 
HETATM   18  C   UNL     1      -7.454   0.425 -32.241  1.00  0.00     0.063 C 
HETATM   19  C   UNL     1      -5.346  -2.963 -34.889  1.00  0.00     0.030 C 
ENDBRANCH   8  10
ENDBRANCH   1   8
BRANCH   1  20
HETATM   20  C   UNL     1      -4.363   4.055 -33.422  1.00  0.00    -0.021 A 
HETATM   21  C   UNL     1      -4.398   4.837 -34.600  1.00  0.00     0.012 A 
HETATM   22  C   UNL     1      -3.237   5.403 -35.131  1.00  0.00     0.043 A 
HETATM   23  C   UNL     1      -2.028   5.219 -34.480  1.00  0.00     0.116 A 
HETATM   24  F   UNL     1      -0.914   5.762 -34.986  1.00  0.00    -0.206 F 
HETATM   25  C   UNL     1      -1.963   4.493 -33.300  1.00  0.00     0.043 A 
HETATM   26  C   UNL     1      -3.125   3.927 -32.767  1.00  0.00     0.012 A 
ENDBRANCH   1  20
TORSDOF 4
ENDMDL
MODEL 9
REMARK VINA RESULT:      -7.6      2.114      6.023
REMARK  4 active torsions:
REMARK  status: ('A' for Active; 'I' for Inactive)
REMARK    1  A    between atoms: C_5  and  C_6 
REMARK    2  A    between atoms: C_6  and  N_7 
REMARK    3  A    between atoms: C_6  and  C_18 
REMARK    4  A    between atoms: N_7  and  C_8 
ROOT
HETATM    1  C   UNL     1      -5.733   1.824 -32.898  1.00  0.00     0.288 C 
ENDROOT
BRANCH   1   2
HETATM    2  C   UNL     1      -7.223   1.535 -32.979  1.00  0.00    -0.003 A 
HETATM    3  C   UNL     1      -8.006   1.314 -31.847  1.00  0.00     0.126 A 
HETATM    4  N   UNL     1      -9.346   1.136 -31.875  1.00  0.00    -0.272 NA
HETATM    5  C   UNL     1      -9.941   1.134 -33.087  1.00  0.00     0.116 A 
HETATM    6  C   UNL     1      -9.259   1.332 -34.273  1.00  0.00     0.020 A 
HETATM    7  C   UNL     1      -7.884   1.542 -34.216  1.00  0.00     0.012 A 
ENDBRANCH   1   2
BRANCH   1   8
HETATM    8  N   UNL     1      -5.463   3.055 -32.102  1.00  0.00     0.101 N 
HETATM    9  H   UNL     1      -4.501   2.985 -31.784  1.00  0.00     0.317 HD
BRANCH   8  10
HETATM   10  C   UNL     1      -5.763   4.352 -32.727  1.00  0.00     0.225 C 
HETATM   11  C   UNL     1      -5.021   4.645 -34.054  1.00  0.00     0.069 C 
HETATM   12  C   UNL     1      -3.531   4.813 -33.841  1.00  0.00     0.190 C 
HETATM   13  N   UNL     1      -3.308   5.942 -32.873  1.00  0.00    -0.067 N 
HETATM   14  C   UNL     1      -2.707   5.274 -35.025  1.00  0.00     0.035 C 
HETATM   15  H   UNL     1      -3.782   6.778 -33.243  1.00  0.00     0.280 HD
HETATM   16  C   UNL     1      -3.893   5.663 -31.525  1.00  0.00     0.237 C 
HETATM   17  C   UNL     1      -1.832   6.236 -32.949  1.00  0.00     0.235 C 
HETATM   18  C   UNL     1      -5.398   5.454 -31.697  1.00  0.00     0.063 C 
HETATM   19  C   UNL     1      -1.433   5.796 -34.361  1.00  0.00     0.030 C 
ENDBRANCH   8  10
ENDBRANCH   1   8
BRANCH   1  20
HETATM   20  C   UNL     1      -4.821   0.621 -32.630  1.00  0.00    -0.021 A 
HETATM   21  C   UNL     1      -3.774   0.739 -31.688  1.00  0.00     0.012 A 
HETATM   22  C   UNL     1      -2.944  -0.344 -31.384  1.00  0.00     0.043 A 
HETATM   23  C   UNL     1      -3.165  -1.566 -31.999  1.00  0.00     0.116 A 
HETATM   24  F   UNL     1      -2.373  -2.606 -31.709  1.00  0.00    -0.206 F 
HETATM   25  C   UNL     1      -4.209  -1.728 -32.898  1.00  0.00     0.043 A 
HETATM   26  C   UNL     1      -5.040  -0.645 -33.200  1.00  0.00     0.012 A 
ENDBRANCH   1  20
TORSDOF 4
ENDMDL
MODEL 10
REMARK VINA RESULT:      -7.6     14.776     17.059
REMARK  4 active torsions:
REMARK  status: ('A' for Active; 'I' for Inactive)
REMARK    1  A    between atoms: C_5  and  C_6 
REMARK    2  A    between atoms: C_6  and  N_7 
REMARK    3  A    between atoms: C_6  and  C_18 
REMARK    4  A    between atoms: N_7  and  C_8 
ROOT
HETATM    1  C   UNL     1      -6.959 -13.793 -38.500  1.00  0.00     0.288 C 
ENDROOT
BRANCH   1   2
HETATM    2  C   UNL     1      -6.942 -14.409 -37.111  1.00  0.00    -0.003 A 
HETATM    3  C   UNL     1      -6.989 -13.639 -35.949  1.00  0.00     0.126 A 
HETATM    4  N   UNL     1      -7.059 -14.154 -34.702  1.00  0.00    -0.272 NA
HETATM    5  C   UNL     1      -7.040 -15.499 -34.588  1.00  0.00     0.116 A 
HETATM    6  C   UNL     1      -6.983 -16.356 -35.672  1.00  0.00     0.020 A 
HETATM    7  C   UNL     1      -6.941 -15.802 -36.949  1.00  0.00     0.012 A 
ENDBRANCH   1   2
BRANCH   1   8
HETATM    8  N   UNL     1      -5.864 -14.341 -39.349  1.00  0.00     0.101 N 
HETATM    9  H   UNL     1      -6.242 -15.165 -39.808  1.00  0.00     0.317 HD
BRANCH   8  10
HETATM   10  C   UNL     1      -5.201 -13.422 -40.287  1.00  0.00     0.225 C 
HETATM   11  C   UNL     1      -3.860 -13.922 -40.880  1.00  0.00     0.069 C 
HETATM   12  C   UNL     1      -2.779 -14.018 -39.823  1.00  0.00     0.190 C 
HETATM   13  N   UNL     1      -2.589 -12.661 -39.205  1.00  0.00    -0.067 N 
HETATM   14  C   UNL     1      -1.373 -14.326 -40.293  1.00  0.00     0.035 C 
HETATM   15  H   UNL     1      -2.387 -11.991 -39.961  1.00  0.00     0.280 HD
HETATM   16  C   UNL     1      -3.817 -12.176 -38.501  1.00  0.00     0.237 C 
HETATM   17  C   UNL     1      -1.319 -12.772 -38.401  1.00  0.00     0.235 C 
HETATM   18  C   UNL     1      -4.947 -12.094 -39.527  1.00  0.00     0.063 C 
HETATM   19  C   UNL     1      -0.519 -13.868 -39.112  1.00  0.00     0.030 C 
ENDBRANCH   8  10
ENDBRANCH   1   8
BRANCH   1  20
HETATM   20  C   UNL     1      -8.334 -13.649 -39.163  1.00  0.00    -0.021 A 
HETATM   21  C   UNL     1      -9.061 -14.810 -39.514  1.00  0.00     0.012 A 
HETATM   22  C   UNL     1     -10.334 -14.726 -40.084  1.00  0.00     0.043 A 
HETATM   23  C   UNL     1     -10.910 -13.482 -40.286  1.00  0.00     0.116 A 
HETATM   24  F   UNL     1     -12.131 -13.397 -40.830  1.00  0.00    -0.206 F 
HETATM   25  C   UNL     1     -10.243 -12.324 -39.915  1.00  0.00     0.043 A 
HETATM   26  C   UNL     1      -8.969 -12.408 -39.344  1.00  0.00     0.012 A 
ENDBRANCH   1  20
TORSDOF 4
ENDMDL
