MODEL 1
REMARK VINA RESULT:      -7.8      0.000      0.000
REMARK  4 active torsions:
REMARK  status: ('A' for Active; 'I' for Inactive)
REMARK    1  A    between atoms: O_2  and  C_3 
REMARK    2  A    between atoms: C_6  and  C_7 
REMARK    3  A    between atoms: C_12  and  N_13 
REMARK    4  A    between atoms: C_15  and  C_16 
ROOT
HETATM    1  C   UNL     1      -4.566   2.303 -30.902  1.00  0.00     0.135 C 
HETATM    2  N   UNL     1      -3.597   3.250 -31.447  1.00  0.00    -0.214 N 
HETATM    3  C   UNL     1      -3.880   3.912 -32.587  1.00  0.00     0.736 A 
HETATM    4  N   UNL     1      -5.163   4.017 -33.050  1.00  0.00    -0.074 N 
HETATM    5  N   UNL     1      -5.217   4.752 -34.176  1.00  0.00     0.037 NA
HETATM    6  C   UNL     1      -3.927   5.032 -34.351  1.00  0.00     0.753 A 
HETATM    7  N   UNL     1      -3.075   4.528 -33.413  1.00  0.00     0.131 NA
HETATM    8  C   UNL     1      -6.333   3.472 -32.377  1.00  0.00     0.164 C 
HETATM    9  C   UNL     1      -5.968   2.954 -30.968  1.00  0.00     0.063 C 
HETATM   10  H   UNL     1      -2.619   3.060 -31.249  1.00  0.00     0.178 HD
ENDROOT
BRANCH   1  11
HETATM   11  C   UNL     1      -4.450   0.911 -31.513  1.00  0.00    -0.035 A 
HETATM   12  C   UNL     1      -5.442  -0.074 -31.357  1.00  0.00     0.012 A 
HETATM   13  C   UNL     1      -5.321  -1.337 -31.952  1.00  0.00     0.037 A 
HETATM   14  C   UNL     1      -4.209  -1.644 -32.729  1.00  0.00     0.068 A 
HETATM   15  C   UNL     1      -3.222  -0.676 -32.904  1.00  0.00     0.037 A 
HETATM   16  C   UNL     1      -3.342   0.588 -32.314  1.00  0.00     0.012 A 
BRANCH  14  17
HETATM   17  O   UNL     1      -3.974  -2.830 -33.367  1.00  0.00    -0.356 OA
HETATM   18  C   UNL     1      -4.718  -3.076 -34.554  1.00  0.00     0.210 C 
ENDBRANCH  14  17
ENDBRANCH   1  11
BRANCH   8  19
HETATM   19  C   UNL     1      -7.099   2.437 -33.193  1.00  0.00    -0.031 A 
HETATM   20  C   UNL     1      -8.466   2.174 -33.017  1.00  0.00     0.028 A 
HETATM   21  C   UNL     1      -9.121   1.249 -33.832  1.00  0.00     0.011 A 
HETATM   22 BR   UNL     1     -10.970   0.934 -33.591  1.00  0.00    -0.051 Br
HETATM   23  C   UNL     1      -8.428   0.561 -34.825  1.00  0.00     0.019 A 
HETATM   24  C   UNL     1      -7.070   0.802 -35.007  1.00  0.00     0.002 A 
HETATM   25  C   UNL     1      -6.411   1.733 -34.202  1.00  0.00     0.009 A 
ENDBRANCH   8  19
BRANCH   6  26
HETATM   26  N   UNL     1      -3.417   5.718 -35.370  1.00  0.00    -0.229 N 
HETATM   27  H   UNL     1      -4.009   6.430 -35.776  1.00  0.00     0.174 HD
HETATM   28  H   UNL     1      -2.862   5.196 -36.033  1.00  0.00     0.174 HD
ENDBRANCH   6  26
TORSDOF 4
ENDMDL
MODEL 2
REMARK VINA RESULT:      -7.2      3.570      5.563
REMARK  4 active torsions:
REMARK  status: ('A' for Active; 'I' for Inactive)
REMARK    1  A    between atoms: O_2  and  C_3 
REMARK    2  A    between atoms: C_6  and  C_7 
REMARK    3  A    between atoms: C_12  and  N_13 
REMARK    4  A    between atoms: C_15  and  C_16 
ROOT
HETATM    1  C   UNL     1      -8.453   4.161 -31.454  1.00  0.00     0.135 C 
HETATM    2  N   UNL     1      -9.544   4.386 -32.397  1.00  0.00    -0.214 N 
HETATM    3  C   UNL     1     -10.053   3.346 -33.088  1.00  0.00     0.736 A 
HETATM    4  N   UNL     1      -9.852   2.054 -32.682  1.00  0.00    -0.074 N 
HETATM    5  N   UNL     1     -10.481   1.184 -33.492  1.00  0.00     0.037 NA
HETATM    6  C   UNL     1     -11.016   2.017 -34.383  1.00  0.00     0.753 A 
HETATM    7  N   UNL     1     -10.769   3.343 -34.182  1.00  0.00     0.131 NA
HETATM    8  C   UNL     1      -9.118   1.667 -31.486  1.00  0.00     0.164 C 
HETATM    9  C   UNL     1      -8.785   2.903 -30.619  1.00  0.00     0.063 C 
HETATM   10  H   UNL     1      -9.580   5.300 -32.839  1.00  0.00     0.178 HD
ENDROOT
BRANCH   1  11
HETATM   11  C   UNL     1      -7.079   4.177 -32.116  1.00  0.00    -0.035 A 
HETATM   12  C   UNL     1      -6.905   4.103 -33.510  1.00  0.00     0.012 A 
HETATM   13  C   UNL     1      -5.631   4.146 -34.094  1.00  0.00     0.037 A 
HETATM   14  C   UNL     1      -4.498   4.278 -33.297  1.00  0.00     0.068 A 
HETATM   15  C   UNL     1      -4.653   4.365 -31.915  1.00  0.00     0.037 A 
HETATM   16  C   UNL     1      -5.924   4.326 -31.330  1.00  0.00     0.012 A 
BRANCH  14  17
HETATM   17  O   UNL     1      -3.206   4.339 -33.739  1.00  0.00    -0.356 OA
HETATM   18  C   UNL     1      -2.931   5.264 -34.784  1.00  0.00     0.210 C 
ENDBRANCH  14  17
ENDBRANCH   1  11
BRANCH   8  19
HETATM   19  C   UNL     1      -7.891   0.804 -31.756  1.00  0.00    -0.031 A 
HETATM   20  C   UNL     1      -7.739   0.021 -32.911  1.00  0.00     0.028 A 
HETATM   21  C   UNL     1      -6.568  -0.709 -33.122  1.00  0.00     0.011 A 
HETATM   22 BR   UNL     1      -6.378  -1.735 -34.700  1.00  0.00    -0.051 Br
HETATM   23  C   UNL     1      -5.535  -0.683 -32.188  1.00  0.00     0.019 A 
HETATM   24  C   UNL     1      -5.673   0.081 -31.034  1.00  0.00     0.002 A 
HETATM   25  C   UNL     1      -6.838   0.820 -30.820  1.00  0.00     0.009 A 
ENDBRANCH   8  19
BRANCH   6  26
HETATM   26  N   UNL     1     -11.724   1.656 -35.449  1.00  0.00    -0.229 N 
HETATM   27  H   UNL     1     -11.200   1.347 -36.256  1.00  0.00     0.174 HD
HETATM   28  H   UNL     1     -12.541   2.214 -35.658  1.00  0.00     0.174 HD
ENDBRANCH   6  26
TORSDOF 4
ENDMDL
MODEL 3
REMARK VINA RESULT:      -7.0     15.972     17.409
REMARK  4 active torsions:
REMARK  status: ('A' for Active; 'I' for Inactive)
REMARK    1  A    between atoms: O_2  and  C_3 
REMARK    2  A    between atoms: C_6  and  C_7 
REMARK    3  A    between atoms: C_12  and  N_13 
REMARK    4  A    between atoms: C_15  and  C_16 
ROOT
HETATM    1  C   UNL     1      -4.638 -12.473 -39.242  1.00  0.00     0.135 C 
HETATM    2  N   UNL     1      -3.708 -13.209 -40.093  1.00  0.00    -0.214 N 
HETATM    3  C   UNL     1      -4.176 -13.896 -41.155  1.00  0.00     0.736 A 
HETATM    4  N   UNL     1      -5.412 -13.637 -41.682  1.00  0.00    -0.074 N 
HETATM    5  N   UNL     1      -5.656 -14.408 -42.757  1.00  0.00     0.037 NA
HETATM    6  C   UNL     1      -4.538 -15.130 -42.803  1.00  0.00     0.753 A 
HETATM    7  N   UNL     1      -3.614 -14.859 -41.837  1.00  0.00     0.131 NA
HETATM    8  C   UNL     1      -6.321 -12.609 -41.195  1.00  0.00     0.164 C 
HETATM    9  C   UNL     1      -5.624 -11.705 -40.153  1.00  0.00     0.063 C 
HETATM   10  H   UNL     1      -2.867 -13.561 -39.645  1.00  0.00     0.178 HD
ENDROOT
BRANCH   1  11
HETATM   11  C   UNL     1      -5.271 -13.340 -38.159  1.00  0.00    -0.035 A 
HETATM   12  C   UNL     1      -4.699 -14.548 -37.720  1.00  0.00     0.012 A 
HETATM   13  C   UNL     1      -5.288 -15.312 -36.704  1.00  0.00     0.037 A 
HETATM   14  C   UNL     1      -6.459 -14.881 -36.090  1.00  0.00     0.068 A 
HETATM   15  C   UNL     1      -7.034 -13.680 -36.505  1.00  0.00     0.037 A 
HETATM   16  C   UNL     1      -6.445 -12.913 -37.517  1.00  0.00     0.012 A 
BRANCH  14  17
HETATM   17  O   UNL     1      -7.128 -15.525 -35.088  1.00  0.00    -0.356 OA
HETATM   18  C   UNL     1      -7.054 -14.942 -33.793  1.00  0.00     0.210 C 
ENDBRANCH  14  17
ENDBRANCH   1  11
BRANCH   8  19
HETATM   19  C   UNL     1      -7.658 -13.142 -40.694  1.00  0.00    -0.031 A 
HETATM   20  C   UNL     1      -7.913 -14.504 -40.477  1.00  0.00     0.028 A 
HETATM   21  C   UNL     1      -9.144 -14.923 -39.969  1.00  0.00     0.011 A 
HETATM   22 BR   UNL     1      -9.450 -16.763 -39.659  1.00  0.00    -0.051 Br
HETATM   23  C   UNL     1     -10.145 -14.000 -39.680  1.00  0.00     0.019 A 
HETATM   24  C   UNL     1      -9.913 -12.645 -39.899  1.00  0.00     0.002 A 
HETATM   25  C   UNL     1      -8.681 -12.219 -40.398  1.00  0.00     0.009 A 
ENDBRANCH   8  19
BRANCH   6  26
HETATM   26  N   UNL     1      -4.278 -16.096 -43.678  1.00  0.00    -0.229 N 
HETATM   27  H   UNL     1      -3.736 -15.837 -44.491  1.00  0.00     0.174 HD
HETATM   28  H   UNL     1      -5.022 -16.757 -43.855  1.00  0.00     0.174 HD
ENDBRANCH   6  26
TORSDOF 4
ENDMDL
MODEL 4
REMARK VINA RESULT:      -6.8      1.477      2.092
REMARK  4 active torsions:
REMARK  status: ('A' for Active; 'I' for Inactive)
REMARK    1  A    between atoms: O_2  and  C_3 
REMARK    2  A    between atoms: C_6  and  C_7 
REMARK    3  A    between atoms: C_12  and  N_13 
REMARK    4  A    between atoms: C_15  and  C_16 
ROOT
HETATM    1  C   UNL     1      -4.770   0.378 -30.654  1.00  0.00     0.135 C 
HETATM    2  N   UNL     1      -3.541   1.163 -30.723  1.00  0.00    -0.214 N 
HETATM    3  C   UNL     1      -3.561   2.383 -31.297  1.00  0.00     0.736 A 
HETATM    4  N   UNL     1      -4.733   3.065 -31.481  1.00  0.00    -0.074 N 
HETATM    5  N   UNL     1      -4.515   4.273 -32.031  1.00  0.00     0.037 NA
HETATM    6  C   UNL     1      -3.193   4.242 -32.181  1.00  0.00     0.753 A 
HETATM    7  N   UNL     1      -2.572   3.102 -31.759  1.00  0.00     0.131 NA
HETATM    8  C   UNL     1      -6.044   2.584 -31.067  1.00  0.00     0.164 C 
HETATM    9  C   UNL     1      -5.916   1.311 -30.201  1.00  0.00     0.063 C 
HETATM   10  H   UNL     1      -2.672   0.640 -30.772  1.00  0.00     0.178 HD
ENDROOT
BRANCH   1  11
HETATM   11  C   UNL     1      -5.032  -0.433 -31.918  1.00  0.00    -0.035 A 
HETATM   12  C   UNL     1      -3.999  -0.914 -32.742  1.00  0.00     0.012 A 
HETATM   13  C   UNL     1      -4.268  -1.680 -33.885  1.00  0.00     0.037 A 
HETATM   14  C   UNL     1      -5.579  -1.996 -34.226  1.00  0.00     0.068 A 
HETATM   15  C   UNL     1      -6.615  -1.537 -33.414  1.00  0.00     0.037 A 
HETATM   16  C   UNL     1      -6.348  -0.776 -32.270  1.00  0.00     0.012 A 
BRANCH  14  17
HETATM   17  O   UNL     1      -5.975  -2.737 -35.304  1.00  0.00    -0.356 OA
HETATM   18  C   UNL     1      -6.044  -4.145 -35.121  1.00  0.00     0.210 C 
ENDBRANCH  14  17
ENDBRANCH   1  11
BRANCH   8  19
HETATM   19  C   UNL     1      -7.036   2.407 -32.211  1.00  0.00    -0.031 A 
HETATM   20  C   UNL     1      -8.426   2.505 -32.048  1.00  0.00     0.028 A 
HETATM   21  C   UNL     1      -9.279   2.383 -33.146  1.00  0.00     0.011 A 
HETATM   22 BR   UNL     1     -11.147   2.546 -32.903  1.00  0.00    -0.051 Br
HETATM   23  C   UNL     1      -8.768   2.150 -34.421  1.00  0.00     0.019 A 
HETATM   24  C   UNL     1      -7.392   2.041 -34.599  1.00  0.00     0.002 A 
HETATM   25  C   UNL     1      -6.533   2.172 -33.506  1.00  0.00     0.009 A 
ENDBRANCH   8  19
BRANCH   6  26
HETATM   26  N   UNL     1      -2.455   5.200 -32.733  1.00  0.00    -0.229 N 
HETATM   27  H   UNL     1      -2.935   6.057 -32.975  1.00  0.00     0.174 HD
HETATM   28  H   UNL     1      -1.751   4.904 -33.395  1.00  0.00     0.174 HD
ENDBRANCH   6  26
TORSDOF 4
ENDMDL
MODEL 5
REMARK VINA RESULT:      -6.7      4.112      6.415
REMARK  4 active torsions:
REMARK  status: ('A' for Active; 'I' for Inactive)
REMARK    1  A    between atoms: O_2  and  C_3 
REMARK    2  A    between atoms: C_6  and  C_7 
REMARK    3  A    between atoms: C_12  and  N_13 
REMARK    4  A    between atoms: C_15  and  C_16 
ROOT
HETATM    1  C   UNL     1      -6.299   1.503 -30.135  1.00  0.00     0.135 C 
HETATM    2  N   UNL     1      -7.280   0.700 -30.859  1.00  0.00    -0.214 N 
HETATM    3  C   UNL     1      -7.256   0.674 -32.207  1.00  0.00     0.736 A 
HETATM    4  N   UNL     1      -6.147   1.061 -32.908  1.00  0.00    -0.074 N 
HETATM    5  N   UNL     1      -6.330   0.917 -34.233  1.00  0.00     0.037 NA
HETATM    6  C   UNL     1      -7.583   0.467 -34.262  1.00  0.00     0.753 A 
HETATM    7  N   UNL     1      -8.191   0.318 -33.049  1.00  0.00     0.131 NA
HETATM    8  C   UNL     1      -4.897   1.501 -32.303  1.00  0.00     0.164 C 
HETATM    9  C   UNL     1      -4.911   1.266 -30.776  1.00  0.00     0.063 C 
HETATM   10  H   UNL     1      -8.179   0.568 -30.407  1.00  0.00     0.178 HD
ENDROOT
BRANCH   1  11
HETATM   11  C   UNL     1      -6.719   2.960 -29.978  1.00  0.00    -0.035 A 
HETATM   12  C   UNL     1      -5.819   3.977 -29.612  1.00  0.00     0.012 A 
HETATM   13  C   UNL     1      -6.226   5.313 -29.500  1.00  0.00     0.037 A 
HETATM   14  C   UNL     1      -7.545   5.669 -29.765  1.00  0.00     0.068 A 
HETATM   15  C   UNL     1      -8.448   4.677 -30.141  1.00  0.00     0.037 A 
HETATM   16  C   UNL     1      -8.042   3.342 -30.256  1.00  0.00     0.012 A 
BRANCH  14  17
HETATM   17  O   UNL     1      -8.067   6.931 -29.700  1.00  0.00    -0.356 OA
HETATM   18  C   UNL     1      -7.146   8.010 -29.797  1.00  0.00     0.210 C 
ENDBRANCH  14  17
ENDBRANCH   1  11
BRANCH   8  19
HETATM   19  C   UNL     1      -4.494   2.926 -32.665  1.00  0.00    -0.031 A 
HETATM   20  C   UNL     1      -3.201   3.434 -32.470  1.00  0.00     0.028 A 
HETATM   21  C   UNL     1      -2.882   4.734 -32.869  1.00  0.00     0.011 A 
HETATM   22 BR   UNL     1      -1.125   5.384 -32.620  1.00  0.00    -0.051 Br
HETATM   23  C   UNL     1      -3.844   5.552 -33.457  1.00  0.00     0.019 A 
HETATM   24  C   UNL     1      -5.134   5.067 -33.649  1.00  0.00     0.002 A 
HETATM   25  C   UNL     1      -5.456   3.766 -33.261  1.00  0.00     0.009 A 
ENDBRANCH   8  19
BRANCH   6  26
HETATM   26  N   UNL     1      -8.281   0.197 -35.360  1.00  0.00    -0.229 N 
HETATM   27  H   UNL     1      -8.248   0.887 -36.098  1.00  0.00     0.174 HD
HETATM   28  H   UNL     1      -9.182  -0.242 -35.226  1.00  0.00     0.174 HD
ENDBRANCH   6  26
TORSDOF 4
ENDMDL
MODEL 6
REMARK VINA RESULT:      -6.6      3.237      5.004
REMARK  4 active torsions:
REMARK  status: ('A' for Active; 'I' for Inactive)
REMARK    1  A    between atoms: O_2  and  C_3 
REMARK    2  A    between atoms: C_6  and  C_7 
REMARK    3  A    between atoms: C_12  and  N_13 
REMARK    4  A    between atoms: C_15  and  C_16 
ROOT
HETATM    1  C   UNL     1      -8.375   3.316 -33.278  1.00  0.00     0.135 C 
HETATM    2  N   UNL     1      -9.156   3.740 -32.120  1.00  0.00    -0.214 N 
HETATM    3  C   UNL     1      -8.590   4.534 -31.189  1.00  0.00     0.736 A 
HETATM    4  N   UNL     1      -7.457   5.253 -31.458  1.00  0.00    -0.074 N 
HETATM    5  N   UNL     1      -7.092   6.004 -30.404  1.00  0.00     0.037 NA
HETATM    6  C   UNL     1      -8.031   5.666 -29.522  1.00  0.00     0.753 A 
HETATM    7  N   UNL     1      -8.957   4.762 -29.955  1.00  0.00     0.131 NA
HETATM    8  C   UNL     1      -6.772   5.268 -32.743  1.00  0.00     0.164 C 
HETATM    9  C   UNL     1      -7.609   4.544 -33.822  1.00  0.00     0.063 C 
HETATM   10  H   UNL     1      -9.886   3.106 -31.810  1.00  0.00     0.178 HD
ENDROOT
BRANCH   1  11
HETATM   11  C   UNL     1      -7.533   2.073 -33.008  1.00  0.00    -0.035 A 
HETATM   12  C   UNL     1      -7.651   1.316 -31.829  1.00  0.00     0.012 A 
HETATM   13  C   UNL     1      -6.883   0.163 -31.617  1.00  0.00     0.037 A 
HETATM   14  C   UNL     1      -5.986  -0.271 -32.588  1.00  0.00     0.068 A 
HETATM   15  C   UNL     1      -5.865   0.460 -33.769  1.00  0.00     0.037 A 
HETATM   16  C   UNL     1      -6.634   1.611 -33.983  1.00  0.00     0.012 A 
BRANCH  14  17
HETATM   17  O   UNL     1      -5.187  -1.378 -32.510  1.00  0.00    -0.356 OA
HETATM   18  C   UNL     1      -4.324  -1.622 -33.614  1.00  0.00     0.210 C 
ENDBRANCH  14  17
ENDBRANCH   1  11
BRANCH   8  19
HETATM   19  C   UNL     1      -5.335   4.763 -32.692  1.00  0.00    -0.031 A 
HETATM   20  C   UNL     1      -4.354   5.134 -33.625  1.00  0.00     0.028 A 
HETATM   21  C   UNL     1      -3.042   4.677 -33.493  1.00  0.00     0.011 A 
HETATM   22 BR   UNL     1      -1.734   5.214 -34.749  1.00  0.00    -0.051 Br
HETATM   23  C   UNL     1      -2.684   3.835 -32.443  1.00  0.00     0.019 A 
HETATM   24  C   UNL     1      -3.646   3.450 -31.514  1.00  0.00     0.002 A 
HETATM   25  C   UNL     1      -4.958   3.911 -31.635  1.00  0.00     0.009 A 
ENDBRANCH   8  19
BRANCH   6  26
HETATM   26  N   UNL     1      -8.109   6.105 -28.270  1.00  0.00    -0.229 N 
HETATM   27  H   UNL     1      -7.512   5.649 -27.593  1.00  0.00     0.174 HD
HETATM   28  H   UNL     1      -9.031   6.347 -27.932  1.00  0.00     0.174 HD
ENDBRANCH   6  26
TORSDOF 4
ENDMDL
MODEL 7
REMARK VINA RESULT:      -6.6     15.855     17.519
REMARK  4 active torsions:
REMARK  status: ('A' for Active; 'I' for Inactive)
REMARK    1  A    between atoms: O_2  and  C_3 
REMARK    2  A    between atoms: C_6  and  C_7 
REMARK    3  A    between atoms: C_12  and  N_13 
REMARK    4  A    between atoms: C_15  and  C_16 
ROOT
HETATM    1  C   UNL     1      -7.234 -12.265 -39.986  1.00  0.00     0.135 C 
HETATM    2  N   UNL     1      -8.032 -13.040 -40.931  1.00  0.00    -0.214 N 
HETATM    3  C   UNL     1      -8.627 -14.179 -40.524  1.00  0.00     0.736 A 
HETATM    4  N   UNL     1      -8.823 -14.446 -39.197  1.00  0.00    -0.074 N 
HETATM    5  N   UNL     1      -9.468 -15.613 -39.023  1.00  0.00     0.037 NA
HETATM    6  C   UNL     1      -9.603 -16.013 -40.286  1.00  0.00     0.753 A 
HETATM    7  N   UNL     1      -9.092 -15.175 -41.233  1.00  0.00     0.131 NA
HETATM    8  C   UNL     1      -8.453 -13.551 -38.109  1.00  0.00     0.164 C 
HETATM    9  C   UNL     1      -8.014 -12.173 -38.654  1.00  0.00     0.063 C 
HETATM   10  H   UNL     1      -7.762 -12.979 -41.908  1.00  0.00     0.178 HD
ENDROOT
BRANCH   1  11
HETATM   11  C   UNL     1      -5.793 -12.752 -39.881  1.00  0.00    -0.035 A 
HETATM   12  C   UNL     1      -5.192 -13.566 -40.858  1.00  0.00     0.012 A 
HETATM   13  C   UNL     1      -3.856 -13.978 -40.749  1.00  0.00     0.037 A 
HETATM   14  C   UNL     1      -3.084 -13.576 -39.665  1.00  0.00     0.068 A 
HETATM   15  C   UNL     1      -3.660 -12.760 -38.692  1.00  0.00     0.037 A 
HETATM   16  C   UNL     1      -4.992 -12.344 -38.802  1.00  0.00     0.012 A 
BRANCH  14  17
HETATM   17  O   UNL     1      -1.774 -13.900 -39.444  1.00  0.00    -0.356 OA
HETATM   18  C   UNL     1      -1.094 -13.161 -38.437  1.00  0.00     0.210 C 
ENDBRANCH  14  17
ENDBRANCH   1  11
BRANCH   8  19
HETATM   19  C   UNL     1      -7.439 -14.136 -37.134  1.00  0.00    -0.031 A 
HETATM   20  C   UNL     1      -7.133 -13.551 -35.896  1.00  0.00     0.028 A 
HETATM   21  C   UNL     1      -6.230 -14.165 -35.025  1.00  0.00     0.011 A 
HETATM   22 BR   UNL     1      -5.857 -13.369 -33.352  1.00  0.00    -0.051 Br
HETATM   23  C   UNL     1      -5.609 -15.362 -35.374  1.00  0.00     0.019 A 
HETATM   24  C   UNL     1      -5.894 -15.951 -36.602  1.00  0.00     0.002 A 
HETATM   25  C   UNL     1      -6.802 -15.347 -37.473  1.00  0.00     0.009 A 
ENDBRANCH   8  19
BRANCH   6  26
HETATM   26  N   UNL     1     -10.151 -17.158 -40.679  1.00  0.00    -0.229 N 
HETATM   27  H   UNL     1     -10.365 -17.241 -41.664  1.00  0.00     0.174 HD
HETATM   28  H   UNL     1     -10.834 -17.569 -40.058  1.00  0.00     0.174 HD
ENDBRANCH   6  26
TORSDOF 4
ENDMDL
MODEL 8
REMARK VINA RESULT:      -6.6      1.955      2.446
REMARK  4 active torsions:
REMARK  status: ('A' for Active; 'I' for Inactive)
REMARK    1  A    between atoms: O_2  and  C_3 
REMARK    2  A    between atoms: C_6  and  C_7 
REMARK    3  A    between atoms: C_12  and  N_13 
REMARK    4  A    between atoms: C_15  and  C_16 
ROOT
HETATM    1  C   UNL     1      -4.475   2.443 -30.693  1.00  0.00     0.135 C 
HETATM    2  N   UNL     1      -3.298   2.999 -31.353  1.00  0.00    -0.214 N 
HETATM    3  C   UNL     1      -3.438   4.040 -32.199  1.00  0.00     0.736 A 
HETATM    4  N   UNL     1      -4.558   4.826 -32.184  1.00  0.00    -0.074 N 
HETATM    5  N   UNL     1      -4.467   5.825 -33.080  1.00  0.00     0.037 NA
HETATM    6  C   UNL     1      -3.280   5.564 -33.622  1.00  0.00     0.753 A 
HETATM    7  N   UNL     1      -2.624   4.476 -33.125  1.00  0.00     0.131 NA
HETATM    8  C   UNL     1      -5.676   4.655 -31.266  1.00  0.00     0.164 C 
HETATM    9  C   UNL     1      -5.339   3.616 -30.173  1.00  0.00     0.063 C 
HETATM   10  H   UNL     1      -2.531   2.357 -31.529  1.00  0.00     0.178 HD
ENDROOT
BRANCH   1  11
HETATM   11  C   UNL     1      -5.202   1.406 -31.542  1.00  0.00    -0.035 A 
HETATM   12  C   UNL     1      -4.629   0.821 -32.685  1.00  0.00     0.012 A 
HETATM   13  C   UNL     1      -5.309  -0.150 -33.433  1.00  0.00     0.037 A 
HETATM   14  C   UNL     1      -6.578  -0.570 -33.048  1.00  0.00     0.068 A 
HETATM   15  C   UNL     1      -7.158  -0.009 -31.910  1.00  0.00     0.037 A 
HETATM   16  C   UNL     1      -6.477   0.958 -31.160  1.00  0.00     0.012 A 
BRANCH  14  17
HETATM   17  O   UNL     1      -7.343  -1.509 -33.682  1.00  0.00    -0.356 OA
HETATM   18  C   UNL     1      -6.657  -2.437 -34.512  1.00  0.00     0.210 C 
ENDBRANCH  14  17
ENDBRANCH   1  11
BRANCH   8  19
HETATM   19  C   UNL     1      -7.008   4.363 -31.949  1.00  0.00    -0.031 A 
HETATM   20  C   UNL     1      -8.251   4.581 -31.337  1.00  0.00     0.028 A 
HETATM   21  C   UNL     1      -9.436   4.341 -32.035  1.00  0.00     0.011 A 
HETATM   22 BR   UNL     1     -11.099   4.670 -31.197  1.00  0.00    -0.051 Br
HETATM   23  C   UNL     1      -9.406   3.871 -33.346  1.00  0.00     0.019 A 
HETATM   24  C   UNL     1      -8.181   3.640 -33.964  1.00  0.00     0.002 A 
HETATM   25  C   UNL     1      -6.993   3.887 -33.275  1.00  0.00     0.009 A 
ENDBRANCH   8  19
BRANCH   6  26
HETATM   26  N   UNL     1      -2.717   6.246 -34.615  1.00  0.00    -0.229 N 
HETATM   27  H   UNL     1      -3.346   6.709 -35.258  1.00  0.00     0.174 HD
HETATM   28  H   UNL     1      -1.900   5.832 -35.041  1.00  0.00     0.174 HD
ENDBRANCH   6  26
TORSDOF 4
ENDMDL
MODEL 9
REMARK VINA RESULT:      -6.6      3.523      5.935
REMARK  4 active torsions:
REMARK  status: ('A' for Active; 'I' for Inactive)
REMARK    1  A    between atoms: O_2  and  C_3 
REMARK    2  A    between atoms: C_6  and  C_7 
REMARK    3  A    between atoms: C_12  and  N_13 
REMARK    4  A    between atoms: C_15  and  C_16 
ROOT
HETATM    1  C   UNL     1      -3.537   5.872 -33.885  1.00  0.00     0.135 C 
HETATM    2  N   UNL     1      -2.600   6.690 -33.122  1.00  0.00    -0.214 N 
HETATM    3  C   UNL     1      -1.953   6.155 -32.066  1.00  0.00     0.736 A 
HETATM    4  N   UNL     1      -1.854   4.800 -31.904  1.00  0.00    -0.074 N 
HETATM    5  N   UNL     1      -1.136   4.489 -30.810  1.00  0.00     0.037 NA
HETATM    6  C   UNL     1      -0.859   5.705 -30.343  1.00  0.00     0.753 A 
HETATM    7  N   UNL     1      -1.350   6.749 -31.070  1.00  0.00     0.131 NA
HETATM    8  C   UNL     1      -2.388   3.813 -32.833  1.00  0.00     0.164 C 
HETATM    9  C   UNL     1      -2.886   4.490 -34.130  1.00  0.00     0.063 C 
HETATM   10  H   UNL     1      -2.787   7.688 -33.095  1.00  0.00     0.178 HD
ENDROOT
BRANCH   1  11
HETATM   11  C   UNL     1      -4.938   5.850 -33.284  1.00  0.00    -0.035 A 
HETATM   12  C   UNL     1      -5.317   6.673 -32.208  1.00  0.00     0.012 A 
HETATM   13  C   UNL     1      -6.620   6.652 -31.691  1.00  0.00     0.037 A 
HETATM   14  C   UNL     1      -7.582   5.815 -32.247  1.00  0.00     0.068 A 
HETATM   15  C   UNL     1      -7.227   5.000 -33.321  1.00  0.00     0.037 A 
HETATM   16  C   UNL     1      -5.927   5.023 -33.841  1.00  0.00     0.012 A 
BRANCH  14  17
HETATM   17  O   UNL     1      -8.883   5.704 -31.844  1.00  0.00    -0.356 OA
HETATM   18  C   UNL     1      -9.112   5.599 -30.444  1.00  0.00     0.210 C 
ENDBRANCH  14  17
ENDBRANCH   1  11
BRANCH   8  19
HETATM   19  C   UNL     1      -3.434   2.885 -32.227  1.00  0.00    -0.031 A 
HETATM   20  C   UNL     1      -3.666   1.580 -32.688  1.00  0.00     0.028 A 
HETATM   21  C   UNL     1      -4.605   0.762 -32.057  1.00  0.00     0.011 A 
HETATM   22 BR   UNL     1      -4.878  -1.002 -32.681  1.00  0.00    -0.051 Br
HETATM   23  C   UNL     1      -5.336   1.229 -30.967  1.00  0.00     0.019 A 
HETATM   24  C   UNL     1      -5.125   2.523 -30.503  1.00  0.00     0.002 A 
HETATM   25  C   UNL     1      -4.181   3.343 -31.124  1.00  0.00     0.009 A 
ENDBRANCH   8  19
BRANCH   6  26
HETATM   26  N   UNL     1      -0.188   5.969 -29.225  1.00  0.00    -0.229 N 
HETATM   27  H   UNL     1      -0.732   6.300 -28.440  1.00  0.00     0.174 HD
HETATM   28  H   UNL     1       0.716   6.407 -29.334  1.00  0.00     0.174 HD
ENDBRANCH   6  26
TORSDOF 4
ENDMDL
MODEL 10
REMARK VINA RESULT:      -6.6     15.752     17.895
REMARK  4 active torsions:
REMARK  status: ('A' for Active; 'I' for Inactive)
REMARK    1  A    between atoms: O_2  and  C_3 
REMARK    2  A    between atoms: C_6  and  C_7 
REMARK    3  A    between atoms: C_12  and  N_13 
REMARK    4  A    between atoms: C_15  and  C_16 
ROOT
HETATM    1  C   UNL     1      -4.464 -12.467 -38.055  1.00  0.00     0.135 C 
HETATM    2  N   UNL     1      -4.496 -13.286 -36.847  1.00  0.00    -0.214 N 
HETATM    3  C   UNL     1      -4.310 -14.619 -36.941  1.00  0.00     0.736 A 
HETATM    4  N   UNL     1      -3.733 -15.182 -38.047  1.00  0.00    -0.074 N 
HETATM    5  N   UNL     1      -3.610 -16.514 -37.909  1.00  0.00     0.037 NA
HETATM    6  C   UNL     1      -4.161 -16.691 -36.710  1.00  0.00     0.753 A 
HETATM    7  N   UNL     1      -4.614 -15.564 -36.090  1.00  0.00     0.131 NA
HETATM    8  C   UNL     1      -3.243 -14.434 -39.196  1.00  0.00     0.164 C 
HETATM    9  C   UNL     1      -3.258 -12.915 -38.913  1.00  0.00     0.063 C 
HETATM   10  H   UNL     1      -5.079 -12.950 -36.088  1.00  0.00     0.178 HD
ENDROOT
BRANCH   1  11
HETATM   11  C   UNL     1      -5.807 -12.409 -38.774  1.00  0.00    -0.035 A 
HETATM   12  C   UNL     1      -5.927 -12.084 -40.137  1.00  0.00     0.012 A 
HETATM   13  C   UNL     1      -7.172 -12.064 -40.780  1.00  0.00     0.037 A 
HETATM   14  C   UNL     1      -8.330 -12.381 -40.077  1.00  0.00     0.068 A 
HETATM   15  C   UNL     1      -8.229 -12.717 -38.727  1.00  0.00     0.037 A 
HETATM   16  C   UNL     1      -6.985 -12.741 -38.085  1.00  0.00     0.012 A 
BRANCH  14  17
HETATM   17  O   UNL     1      -9.600 -12.406 -40.584  1.00  0.00    -0.356 OA
HETATM   18  C   UNL     1     -10.584 -13.079 -39.809  1.00  0.00     0.210 C 
ENDBRANCH  14  17
ENDBRANCH   1  11
BRANCH   8  19
HETATM   19  C   UNL     1      -3.932 -14.783 -40.511  1.00  0.00    -0.031 A 
HETATM   20  C   UNL     1      -5.147 -15.481 -40.582  1.00  0.00     0.028 A 
HETATM   21  C   UNL     1      -5.752 -15.726 -41.816  1.00  0.00     0.011 A 
HETATM   22 BR   UNL     1      -7.403 -16.645 -41.882  1.00  0.00    -0.051 Br
HETATM   23  C   UNL     1      -5.157 -15.293 -42.998  1.00  0.00     0.019 A 
HETATM   24  C   UNL     1      -3.947 -14.607 -42.946  1.00  0.00     0.002 A 
HETATM   25  C   UNL     1      -3.341 -14.351 -41.715  1.00  0.00     0.009 A 
ENDBRANCH   8  19
BRANCH   6  26
HETATM   26  N   UNL     1      -4.332 -17.862 -36.104  1.00  0.00    -0.229 N 
HETATM   27  H   UNL     1      -3.990 -18.678 -36.593  1.00  0.00     0.174 HD
HETATM   28  H   UNL     1      -5.206 -17.994 -35.614  1.00  0.00     0.174 HD
ENDBRANCH   6  26
TORSDOF 4
ENDMDL
