MODEL 1
REMARK VINA RESULT:      -7.9      0.000      0.000
REMARK  6 active torsions:
REMARK  status: ('A' for Active; 'I' for Inactive)
REMARK    1  A    between atoms: C_2  and  C_3 
REMARK    2  A    between atoms: C_2  and  C_9 
REMARK    3  A    between atoms: C_9  and  N_10 
REMARK       I    between atoms: N_10  and  C_11 
REMARK    4  A    between atoms: C_11  and  C_12 
REMARK    5  A    between atoms: C_13  and  O_14 
REMARK    6  A    between atoms: O_14  and  C_15 
ROOT
HETATM    1  N   UNL     1      -5.461   0.849 -32.227  1.00  0.00    -0.356 N 
HETATM    2  C   UNL     1      -4.520   0.031 -32.809  1.00  0.00     0.254 C 
HETATM    3  O   UNL     1      -3.328   0.319 -32.849  1.00  0.00    -0.268 OA
HETATM    4  H   UNL     1      -6.435   0.571 -32.265  1.00  0.00     0.162 HD
ENDROOT
BRANCH   2   5
HETATM    5  C   UNL     1      -5.000  -1.244 -33.436  1.00  0.00     0.067 A 
HETATM    6  C   UNL     1      -6.284  -1.438 -33.987  1.00  0.00     0.090 A 
HETATM    7  C   UNL     1      -6.599  -2.666 -34.592  1.00  0.00     0.040 A 
HETATM    8  C   UNL     1      -5.673  -3.710 -34.602  1.00  0.00     0.026 A 
HETATM    9  C   UNL     1      -4.422  -3.531 -34.022  1.00  0.00     0.035 A 
HETATM   10 CL   UNL     1      -3.285  -4.822 -34.034  1.00  0.00    -0.084 Cl
HETATM   11  C   UNL     1      -4.083  -2.311 -33.447  1.00  0.00     0.043 A 
BRANCH   6  12
HETATM   12  O   UNL     1      -7.179  -0.398 -33.971  1.00  0.00    -0.289 OA
BRANCH  12  13
HETATM   13  C   UNL     1      -7.783  -0.106 -35.226  1.00  0.00     0.505 C 
HETATM   14  F   UNL     1      -8.919   0.587 -34.964  1.00  0.00    -0.184 F 
HETATM   15  F   UNL     1      -6.969   0.732 -35.914  1.00  0.00    -0.184 F 
ENDBRANCH  12  13
ENDBRANCH   6  12
ENDBRANCH   2   5
BRANCH   1  16
HETATM   16  C   UNL     1      -5.126   2.102 -31.570  1.00  0.00     0.136 C 
BRANCH  16  17
HETATM   17  C   UNL     1      -5.594   3.369 -32.354  1.00  0.00    -0.004 C 
HETATM   18  C   UNL     1      -6.198   4.363 -31.333  1.00  0.00     0.021 C 
HETATM   19  C   UNL     1      -6.739   2.943 -33.303  1.00  0.00     0.021 C 
BRANCH  17  20
HETATM   20  C   UNL     1      -4.474   3.984 -33.212  1.00  0.00    -0.046 A 
HETATM   21  C   UNL     1      -3.118   3.899 -32.867  1.00  0.00     0.027 A 
HETATM   22  C   UNL     1      -2.165   4.498 -33.681  1.00  0.00     0.116 A 
HETATM   23  N   UNL     1      -2.452   5.173 -34.811  1.00  0.00    -0.273 NA
HETATM   24  C   UNL     1      -3.757   5.259 -35.136  1.00  0.00     0.116 A 
HETATM   25  C   UNL     1      -4.780   4.702 -34.380  1.00  0.00     0.027 A 
ENDBRANCH  17  20
ENDBRANCH  16  17
ENDBRANCH   1  16
TORSDOF 6
ENDMDL
MODEL 2
REMARK VINA RESULT:      -7.9      2.088      2.961
REMARK  6 active torsions:
REMARK  status: ('A' for Active; 'I' for Inactive)
REMARK    1  A    between atoms: C_2  and  C_3 
REMARK    2  A    between atoms: C_2  and  C_9 
REMARK    3  A    between atoms: C_9  and  N_10 
REMARK       I    between atoms: N_10  and  C_11 
REMARK    4  A    between atoms: C_11  and  C_12 
REMARK    5  A    between atoms: C_13  and  O_14 
REMARK    6  A    between atoms: O_14  and  C_15 
ROOT
HETATM    1  N   UNL     1      -5.994   1.231 -33.094  1.00  0.00    -0.356 N 
HETATM    2  C   UNL     1      -6.176   0.409 -34.182  1.00  0.00     0.254 C 
HETATM    3  O   UNL     1      -6.826   0.749 -35.166  1.00  0.00    -0.268 OA
HETATM    4  H   UNL     1      -5.480   0.872 -32.296  1.00  0.00     0.162 HD
ENDROOT
BRANCH   2   5
HETATM    5  C   UNL     1      -5.568  -0.961 -34.129  1.00  0.00     0.067 A 
HETATM    6  C   UNL     1      -4.341  -1.275 -33.508  1.00  0.00     0.090 A 
HETATM    7  C   UNL     1      -3.900  -2.608 -33.482  1.00  0.00     0.040 A 
HETATM    8  C   UNL     1      -4.637  -3.612 -34.112  1.00  0.00     0.026 A 
HETATM    9  C   UNL     1      -5.825  -3.294 -34.759  1.00  0.00     0.035 A 
HETATM   10 CL   UNL     1      -6.729  -4.534 -35.538  1.00  0.00    -0.084 Cl
HETATM   11  C   UNL     1      -6.293  -1.984 -34.767  1.00  0.00     0.043 A 
BRANCH   6  12
HETATM   12  O   UNL     1      -3.634  -0.274 -32.890  1.00  0.00    -0.289 OA
BRANCH  12  13
HETATM   13  C   UNL     1      -3.367  -0.493 -31.509  1.00  0.00     0.505 C 
HETATM   14  F   UNL     1      -2.662   0.580 -31.071  1.00  0.00    -0.184 F 
HETATM   15  F   UNL     1      -4.542  -0.485 -30.834  1.00  0.00    -0.184 F 
ENDBRANCH  12  13
ENDBRANCH   6  12
ENDBRANCH   2   5
BRANCH   1  16
HETATM   16  C   UNL     1      -6.515   2.586 -33.027  1.00  0.00     0.136 C 
BRANCH  16  17
HETATM   17  C   UNL     1      -5.569   3.588 -32.292  1.00  0.00    -0.004 C 
HETATM   18  C   UNL     1      -5.041   2.892 -31.014  1.00  0.00     0.021 C 
HETATM   19  C   UNL     1      -6.420   4.794 -31.831  1.00  0.00     0.021 C 
BRANCH  17  20
HETATM   20  C   UNL     1      -4.447   4.122 -33.200  1.00  0.00    -0.046 A 
HETATM   21  C   UNL     1      -3.088   4.005 -32.877  1.00  0.00     0.027 A 
HETATM   22  C   UNL     1      -2.131   4.530 -33.737  1.00  0.00     0.116 A 
HETATM   23  N   UNL     1      -2.418   5.161 -34.892  1.00  0.00    -0.273 NA
HETATM   24  C   UNL     1      -3.726   5.278 -35.196  1.00  0.00     0.116 A 
HETATM   25  C   UNL     1      -4.752   4.794 -34.394  1.00  0.00     0.027 A 
ENDBRANCH  17  20
ENDBRANCH  16  17
ENDBRANCH   1  16
TORSDOF 6
ENDMDL
MODEL 3
REMARK VINA RESULT:      -7.7      3.564      5.556
REMARK  6 active torsions:
REMARK  status: ('A' for Active; 'I' for Inactive)
REMARK    1  A    between atoms: C_2  and  C_3 
REMARK    2  A    between atoms: C_2  and  C_9 
REMARK    3  A    between atoms: C_9  and  N_10 
REMARK       I    between atoms: N_10  and  C_11 
REMARK    4  A    between atoms: C_11  and  C_12 
REMARK    5  A    between atoms: C_13  and  O_14 
REMARK    6  A    between atoms: O_14  and  C_15 
ROOT
HETATM    1  N   UNL     1      -7.432   0.715 -33.430  1.00  0.00    -0.356 N 
HETATM    2  C   UNL     1      -6.845   0.143 -34.535  1.00  0.00     0.254 C 
HETATM    3  O   UNL     1      -7.030   0.562 -35.674  1.00  0.00    -0.268 OA
HETATM    4  H   UNL     1      -7.269   0.294 -32.522  1.00  0.00     0.162 HD
ENDROOT
BRANCH   2   5
HETATM    5  C   UNL     1      -5.969  -1.054 -34.316  1.00  0.00     0.067 A 
HETATM    6  C   UNL     1      -4.788  -1.060 -33.545  1.00  0.00     0.090 A 
HETATM    7  C   UNL     1      -4.079  -2.259 -33.373  1.00  0.00     0.040 A 
HETATM    8  C   UNL     1      -4.502  -3.431 -34.004  1.00  0.00     0.026 A 
HETATM    9  C   UNL     1      -5.643  -3.415 -34.798  1.00  0.00     0.035 A 
HETATM   10 CL   UNL     1      -6.160  -4.859 -35.577  1.00  0.00    -0.084 Cl
HETATM   11  C   UNL     1      -6.375  -2.242 -34.952  1.00  0.00     0.043 A 
BRANCH   6  12
HETATM   12  O   UNL     1      -4.391   0.101 -32.929  1.00  0.00    -0.289 OA
BRANCH  12  13
HETATM   13  C   UNL     1      -4.362   0.046 -31.507  1.00  0.00     0.505 C 
HETATM   14  F   UNL     1      -4.300   1.327 -31.066  1.00  0.00    -0.184 F 
HETATM   15  F   UNL     1      -5.542  -0.456 -31.069  1.00  0.00    -0.184 F 
ENDBRANCH  12  13
ENDBRANCH   6  12
ENDBRANCH   2   5
BRANCH   1  16
HETATM   16  C   UNL     1      -8.286   1.889 -33.504  1.00  0.00     0.136 C 
BRANCH  16  17
HETATM   17  C   UNL     1      -9.664   1.710 -32.790  1.00  0.00    -0.004 C 
HETATM   18  C   UNL     1      -9.712   2.695 -31.598  1.00  0.00     0.021 C 
HETATM   19  C   UNL     1      -9.710   0.281 -32.198  1.00  0.00     0.021 C 
BRANCH  17  20
HETATM   20  C   UNL     1     -10.856   1.860 -33.752  1.00  0.00    -0.046 A 
HETATM   21  C   UNL     1     -10.974   2.926 -34.655  1.00  0.00     0.027 A 
HETATM   22  C   UNL     1     -12.090   3.006 -35.479  1.00  0.00     0.116 A 
HETATM   23  N   UNL     1     -13.097   2.111 -35.477  1.00  0.00    -0.273 NA
HETATM   24  C   UNL     1     -12.983   1.092 -34.602  1.00  0.00     0.116 A 
HETATM   25  C   UNL     1     -11.911   0.934 -33.734  1.00  0.00     0.027 A 
ENDBRANCH  17  20
ENDBRANCH  16  17
ENDBRANCH   1  16
TORSDOF 6
ENDMDL
MODEL 4
REMARK VINA RESULT:      -7.6      3.861      5.897
REMARK  6 active torsions:
REMARK  status: ('A' for Active; 'I' for Inactive)
REMARK    1  A    between atoms: C_2  and  C_3 
REMARK    2  A    between atoms: C_2  and  C_9 
REMARK    3  A    between atoms: C_9  and  N_10 
REMARK       I    between atoms: N_10  and  C_11 
REMARK    4  A    between atoms: C_11  and  C_12 
REMARK    5  A    between atoms: C_13  and  O_14 
REMARK    6  A    between atoms: O_14  and  C_15 
ROOT
HETATM    1  N   UNL     1      -7.619   0.552 -33.570  1.00  0.00    -0.356 N 
HETATM    2  C   UNL     1      -6.737  -0.044 -34.443  1.00  0.00     0.254 C 
HETATM    3  O   UNL     1      -6.842   0.057 -35.661  1.00  0.00    -0.268 OA
HETATM    4  H   UNL     1      -7.497   0.395 -32.576  1.00  0.00     0.162 HD
ENDROOT
BRANCH   2   5
HETATM    5  C   UNL     1      -5.627  -0.864 -33.857  1.00  0.00     0.067 A 
HETATM    6  C   UNL     1      -5.345  -2.203 -34.201  1.00  0.00     0.090 A 
HETATM    7  C   UNL     1      -4.245  -2.850 -33.617  1.00  0.00     0.040 A 
HETATM    8  C   UNL     1      -3.463  -2.200 -32.661  1.00  0.00     0.026 A 
HETATM    9  C   UNL     1      -3.766  -0.894 -32.293  1.00  0.00     0.035 A 
HETATM   10 CL   UNL     1      -2.802  -0.096 -31.112  1.00  0.00    -0.084 Cl
HETATM   11  C   UNL     1      -4.833  -0.227 -32.885  1.00  0.00     0.043 A 
BRANCH   6  12
HETATM   12  O   UNL     1      -6.123  -2.824 -35.146  1.00  0.00    -0.289 OA
BRANCH  12  13
HETATM   13  C   UNL     1      -6.536  -4.144 -34.811  1.00  0.00     0.505 C 
HETATM   14  F   UNL     1      -7.641  -4.024 -34.034  1.00  0.00    -0.184 F 
HETATM   15  F   UNL     1      -6.926  -4.776 -35.944  1.00  0.00    -0.184 F 
ENDBRANCH  12  13
ENDBRANCH   6  12
ENDBRANCH   2   5
BRANCH   1  16
HETATM   16  C   UNL     1      -8.725   1.387 -34.007  1.00  0.00     0.136 C 
BRANCH  16  17
HETATM   17  C   UNL     1      -9.931   1.403 -33.015  1.00  0.00    -0.004 C 
HETATM   18  C   UNL     1      -9.720   2.580 -32.031  1.00  0.00     0.021 C 
HETATM   19  C   UNL     1      -9.878   0.102 -32.181  1.00  0.00     0.021 C 
BRANCH  17  20
HETATM   20  C   UNL     1     -11.292   1.449 -33.732  1.00  0.00    -0.046 A 
HETATM   21  C   UNL     1     -12.254   0.438 -33.600  1.00  0.00     0.027 A 
HETATM   22  C   UNL     1     -13.453   0.538 -34.295  1.00  0.00     0.116 A 
HETATM   23  N   UNL     1     -13.771   1.562 -35.110  1.00  0.00    -0.273 NA
HETATM   24  C   UNL     1     -12.840   2.528 -35.240  1.00  0.00     0.116 A 
HETATM   25  C   UNL     1     -11.612   2.510 -34.593  1.00  0.00     0.027 A 
ENDBRANCH  17  20
ENDBRANCH  16  17
ENDBRANCH   1  16
TORSDOF 6
ENDMDL
MODEL 5
REMARK VINA RESULT:      -7.6      4.855      7.516
REMARK  6 active torsions:
REMARK  status: ('A' for Active; 'I' for Inactive)
REMARK    1  A    between atoms: C_2  and  C_3 
REMARK    2  A    between atoms: C_2  and  C_9 
REMARK    3  A    between atoms: C_9  and  N_10 
REMARK       I    between atoms: N_10  and  C_11 
REMARK    4  A    between atoms: C_11  and  C_12 
REMARK    5  A    between atoms: C_13  and  O_14 
REMARK    6  A    between atoms: O_14  and  C_15 
ROOT
HETATM    1  N   UNL     1      -8.979   0.298 -33.940  1.00  0.00    -0.356 N 
HETATM    2  C   UNL     1      -9.559   1.368 -33.298  1.00  0.00     0.254 C 
HETATM    3  O   UNL     1      -9.330   1.638 -32.123  1.00  0.00    -0.268 OA
HETATM    4  H   UNL     1      -9.243   0.107 -34.900  1.00  0.00     0.162 HD
ENDROOT
BRANCH   2   5
HETATM    5  C   UNL     1     -10.525   2.207 -34.080  1.00  0.00     0.067 A 
HETATM    6  C   UNL     1     -11.821   1.801 -34.461  1.00  0.00     0.090 A 
HETATM    7  C   UNL     1     -12.652   2.698 -35.151  1.00  0.00     0.040 A 
HETATM    8  C   UNL     1     -12.187   3.964 -35.511  1.00  0.00     0.026 A 
HETATM    9  C   UNL     1     -10.895   4.348 -35.172  1.00  0.00     0.035 A 
HETATM   10 CL   UNL     1     -10.324   5.907 -35.620  1.00  0.00    -0.084 Cl
HETATM   11  C   UNL     1     -10.069   3.483 -34.460  1.00  0.00     0.043 A 
BRANCH   6  12
HETATM   12  O   UNL     1     -12.262   0.554 -34.094  1.00  0.00    -0.289 OA
BRANCH  12  13
HETATM   13  C   UNL     1     -13.651   0.473 -33.794  1.00  0.00     0.505 C 
HETATM   14  F   UNL     1     -13.883  -0.788 -33.351  1.00  0.00    -0.184 F 
HETATM   15  F   UNL     1     -13.918   1.302 -32.756  1.00  0.00    -0.184 F 
ENDBRANCH  12  13
ENDBRANCH   6  12
ENDBRANCH   2   5
BRANCH   1  16
HETATM   16  C   UNL     1      -8.013  -0.582 -33.302  1.00  0.00     0.136 C 
BRANCH  16  17
HETATM   17  C   UNL     1      -6.650  -0.674 -34.058  1.00  0.00    -0.004 C 
HETATM   18  C   UNL     1      -5.613   0.165 -33.273  1.00  0.00     0.021 C 
HETATM   19  C   UNL     1      -6.827   0.001 -35.438  1.00  0.00     0.021 C 
BRANCH  17  20
HETATM   20  C   UNL     1      -6.200  -2.126 -34.298  1.00  0.00    -0.046 A 
HETATM   21  C   UNL     1      -7.092  -3.150 -34.648  1.00  0.00     0.027 A 
HETATM   22  C   UNL     1      -6.614  -4.442 -34.829  1.00  0.00     0.116 A 
HETATM   23  N   UNL     1      -5.322  -4.797 -34.690  1.00  0.00    -0.273 NA
HETATM   24  C   UNL     1      -4.470  -3.812 -34.347  1.00  0.00     0.116 A 
HETATM   25  C   UNL     1      -4.855  -2.494 -34.136  1.00  0.00     0.027 A 
ENDBRANCH  17  20
ENDBRANCH  16  17
ENDBRANCH   1  16
TORSDOF 6
ENDMDL
MODEL 6
REMARK VINA RESULT:      -7.6      1.693      1.977
REMARK  6 active torsions:
REMARK  status: ('A' for Active; 'I' for Inactive)
REMARK    1  A    between atoms: C_2  and  C_3 
REMARK    2  A    between atoms: C_2  and  C_9 
REMARK    3  A    between atoms: C_9  and  N_10 
REMARK       I    between atoms: N_10  and  C_11 
REMARK    4  A    between atoms: C_11  and  C_12 
REMARK    5  A    between atoms: C_13  and  O_14 
REMARK    6  A    between atoms: O_14  and  C_15 
ROOT
HETATM    1  N   UNL     1      -3.896   1.624 -32.561  1.00  0.00    -0.356 N 
HETATM    2  C   UNL     1      -3.819   0.321 -32.124  1.00  0.00     0.254 C 
HETATM    3  O   UNL     1      -3.232   0.003 -31.093  1.00  0.00    -0.268 OA
HETATM    4  H   UNL     1      -4.361   1.812 -33.443  1.00  0.00     0.162 HD
ENDROOT
BRANCH   2   5
HETATM    5  C   UNL     1      -4.462  -0.736 -32.971  1.00  0.00     0.067 A 
HETATM    6  C   UNL     1      -5.662  -0.572 -33.693  1.00  0.00     0.090 A 
HETATM    7  C   UNL     1      -6.139  -1.624 -34.491  1.00  0.00     0.040 A 
HETATM    8  C   UNL     1      -5.465  -2.845 -34.533  1.00  0.00     0.026 A 
HETATM    9  C   UNL     1      -4.303  -3.020 -33.789  1.00  0.00     0.035 A 
HETATM   10 CL   UNL     1      -3.478  -4.528 -33.840  1.00  0.00    -0.084 Cl
HETATM   11  C   UNL     1      -3.800  -1.978 -33.017  1.00  0.00     0.043 A 
BRANCH   6  12
HETATM   12  O   UNL     1      -6.308   0.638 -33.642  1.00  0.00    -0.289 OA
BRANCH  12  13
HETATM   13  C   UNL     1      -7.548   0.628 -32.945  1.00  0.00     0.505 C 
HETATM   14  F   UNL     1      -7.347  -0.065 -31.796  1.00  0.00    -0.184 F 
HETATM   15  F   UNL     1      -7.850   1.899 -32.581  1.00  0.00    -0.184 F 
ENDBRANCH  12  13
ENDBRANCH   6  12
ENDBRANCH   2   5
BRANCH   1  16
HETATM   16  C   UNL     1      -3.332   2.743 -31.825  1.00  0.00     0.136 C 
BRANCH  16  17
HETATM   17  C   UNL     1      -3.958   4.123 -32.202  1.00  0.00    -0.004 C 
HETATM   18  C   UNL     1      -4.521   4.758 -30.907  1.00  0.00     0.021 C 
HETATM   19  C   UNL     1      -5.161   3.859 -33.137  1.00  0.00     0.021 C 
BRANCH  17  20
HETATM   20  C   UNL     1      -2.972   5.040 -32.948  1.00  0.00    -0.046 A 
HETATM   21  C   UNL     1      -2.177   4.593 -34.013  1.00  0.00     0.027 A 
HETATM   22  C   UNL     1      -1.295   5.474 -34.626  1.00  0.00     0.116 A 
HETATM   23  N   UNL     1      -1.141   6.763 -34.266  1.00  0.00    -0.273 NA
HETATM   24  C   UNL     1      -1.902   7.186 -33.237  1.00  0.00     0.116 A 
HETATM   25  C   UNL     1      -2.803   6.377 -32.558  1.00  0.00     0.027 A 
ENDBRANCH  17  20
ENDBRANCH  16  17
ENDBRANCH   1  16
TORSDOF 6
ENDMDL
MODEL 7
REMARK VINA RESULT:      -7.5      3.788      7.419
REMARK  6 active torsions:
REMARK  status: ('A' for Active; 'I' for Inactive)
REMARK    1  A    between atoms: C_2  and  C_3 
REMARK    2  A    between atoms: C_2  and  C_9 
REMARK    3  A    between atoms: C_9  and  N_10 
REMARK       I    between atoms: N_10  and  C_11 
REMARK    4  A    between atoms: C_11  and  C_12 
REMARK    5  A    between atoms: C_13  and  O_14 
REMARK    6  A    between atoms: O_14  and  C_15 
ROOT
HETATM    1  N   UNL     1      -4.663   1.132 -32.731  1.00  0.00    -0.356 N 
HETATM    2  C   UNL     1      -3.835   1.608 -31.740  1.00  0.00     0.254 C 
HETATM    3  O   UNL     1      -2.942   0.929 -31.242  1.00  0.00    -0.268 OA
HETATM    4  H   UNL     1      -5.407   1.731 -33.069  1.00  0.00     0.162 HD
ENDROOT
BRANCH   2   5
HETATM    5  C   UNL     1      -4.071   3.005 -31.248  1.00  0.00     0.067 A 
HETATM    6  C   UNL     1      -3.231   4.107 -31.514  1.00  0.00     0.090 A 
HETATM    7  C   UNL     1      -3.587   5.378 -31.038  1.00  0.00     0.040 A 
HETATM    8  C   UNL     1      -4.731   5.550 -30.258  1.00  0.00     0.026 A 
HETATM    9  C   UNL     1      -5.537   4.456 -29.961  1.00  0.00     0.035 A 
HETATM   10 CL   UNL     1      -6.945   4.672 -28.997  1.00  0.00    -0.084 Cl
HETATM   11  C   UNL     1      -5.217   3.195 -30.452  1.00  0.00     0.043 A 
BRANCH   6  12
HETATM   12  O   UNL     1      -2.113   3.918 -32.287  1.00  0.00    -0.289 OA
BRANCH  12  13
HETATM   13  C   UNL     1      -1.838   4.964 -33.211  1.00  0.00     0.505 C 
HETATM   14  F   UNL     1      -0.598   5.430 -32.919  1.00  0.00    -0.184 F 
HETATM   15  F   UNL     1      -1.769   4.434 -34.457  1.00  0.00    -0.184 F 
ENDBRANCH  12  13
ENDBRANCH   6  12
ENDBRANCH   2   5
BRANCH   1  16
HETATM   16  C   UNL     1      -4.529  -0.196 -33.307  1.00  0.00     0.136 C 
BRANCH  16  17
HETATM   17  C   UNL     1      -5.888  -0.835 -33.736  1.00  0.00    -0.004 C 
HETATM   18  C   UNL     1      -6.494   0.045 -34.856  1.00  0.00     0.021 C 
HETATM   19  C   UNL     1      -6.851  -0.758 -32.529  1.00  0.00     0.021 C 
BRANCH  17  20
HETATM   20  C   UNL     1      -5.749  -2.315 -34.135  1.00  0.00    -0.046 A 
HETATM   21  C   UNL     1      -6.815  -3.065 -34.651  1.00  0.00     0.027 A 
HETATM   22  C   UNL     1      -6.619  -4.404 -34.970  1.00  0.00     0.116 A 
HETATM   23  N   UNL     1      -5.450  -5.054 -34.818  1.00  0.00    -0.273 NA
HETATM   24  C   UNL     1      -4.430  -4.331 -34.314  1.00  0.00     0.116 A 
HETATM   25  C   UNL     1      -4.533  -2.993 -33.958  1.00  0.00     0.027 A 
ENDBRANCH  17  20
ENDBRANCH  16  17
ENDBRANCH   1  16
TORSDOF 6
ENDMDL
MODEL 8
REMARK VINA RESULT:      -7.4      3.066      3.734
REMARK  6 active torsions:
REMARK  status: ('A' for Active; 'I' for Inactive)
REMARK    1  A    between atoms: C_2  and  C_3 
REMARK    2  A    between atoms: C_2  and  C_9 
REMARK    3  A    between atoms: C_9  and  N_10 
REMARK       I    between atoms: N_10  and  C_11 
REMARK    4  A    between atoms: C_11  and  C_12 
REMARK    5  A    between atoms: C_13  and  O_14 
REMARK    6  A    between atoms: O_14  and  C_15 
ROOT
HETATM    1  N   UNL     1      -3.789   1.792 -32.586  1.00  0.00    -0.356 N 
HETATM    2  C   UNL     1      -4.064   0.533 -32.105  1.00  0.00     0.254 C 
HETATM    3  O   UNL     1      -3.767   0.180 -30.968  1.00  0.00    -0.268 OA
HETATM    4  H   UNL     1      -4.025   2.005 -33.549  1.00  0.00     0.162 HD
ENDROOT
BRANCH   2   5
HETATM    5  C   UNL     1      -4.731  -0.436 -33.035  1.00  0.00     0.067 A 
HETATM    6  C   UNL     1      -4.313  -1.766 -33.251  1.00  0.00     0.090 A 
HETATM    7  C   UNL     1      -5.052  -2.593 -34.112  1.00  0.00     0.040 A 
HETATM    8  C   UNL     1      -6.162  -2.094 -34.796  1.00  0.00     0.026 A 
HETATM    9  C   UNL     1      -6.549  -0.772 -34.613  1.00  0.00     0.035 A 
HETATM   10 CL   UNL     1      -7.916  -0.160 -35.461  1.00  0.00    -0.084 Cl
HETATM   11  C   UNL     1      -5.847   0.052 -33.740  1.00  0.00     0.043 A 
BRANCH   6  12
HETATM   12  O   UNL     1      -3.221  -2.238 -32.565  1.00  0.00    -0.289 OA
BRANCH  12  13
HETATM   13  C   UNL     1      -3.332  -3.584 -32.115  1.00  0.00     0.505 C 
HETATM   14  F   UNL     1      -2.835  -4.370 -33.103  1.00  0.00    -0.184 F 
HETATM   15  F   UNL     1      -2.519  -3.750 -31.043  1.00  0.00    -0.184 F 
ENDBRANCH  12  13
ENDBRANCH   6  12
ENDBRANCH   2   5
BRANCH   1  16
HETATM   16  C   UNL     1      -3.162   2.829 -31.783  1.00  0.00     0.136 C 
BRANCH  16  17
HETATM   17  C   UNL     1      -3.754   4.254 -32.023  1.00  0.00    -0.004 C 
HETATM   18  C   UNL     1      -4.150   4.842 -30.647  1.00  0.00     0.021 C 
HETATM   19  C   UNL     1      -5.059   4.095 -32.839  1.00  0.00     0.021 C 
BRANCH  17  20
HETATM   20  C   UNL     1      -2.806   5.165 -32.823  1.00  0.00    -0.046 A 
HETATM   21  C   UNL     1      -2.098   4.723 -33.949  1.00  0.00     0.027 A 
HETATM   22  C   UNL     1      -1.244   5.599 -34.609  1.00  0.00     0.116 A 
HETATM   23  N   UNL     1      -1.038   6.877 -34.238  1.00  0.00    -0.273 NA
HETATM   24  C   UNL     1      -1.715   7.296 -33.150  1.00  0.00     0.116 A 
HETATM   25  C   UNL     1      -2.582   6.492 -32.422  1.00  0.00     0.027 A 
ENDBRANCH  17  20
ENDBRANCH  16  17
ENDBRANCH   1  16
TORSDOF 6
ENDMDL
MODEL 9
REMARK VINA RESULT:      -7.0      1.350      1.633
REMARK  6 active torsions:
REMARK  status: ('A' for Active; 'I' for Inactive)
REMARK    1  A    between atoms: C_2  and  C_3 
REMARK    2  A    between atoms: C_2  and  C_9 
REMARK    3  A    between atoms: C_9  and  N_10 
REMARK       I    between atoms: N_10  and  C_11 
REMARK    4  A    between atoms: C_11  and  C_12 
REMARK    5  A    between atoms: C_13  and  O_14 
REMARK    6  A    between atoms: O_14  and  C_15 
ROOT
HETATM    1  N   UNL     1      -4.172   0.656 -32.736  1.00  0.00    -0.356 N 
HETATM    2  C   UNL     1      -4.144  -0.683 -32.421  1.00  0.00     0.254 C 
HETATM    3  O   UNL     1      -3.487  -1.128 -31.484  1.00  0.00    -0.268 OA
HETATM    4  H   UNL     1      -4.703   0.952 -33.547  1.00  0.00     0.162 HD
ENDROOT
BRANCH   2   5
HETATM    5  C   UNL     1      -4.934  -1.618 -33.287  1.00  0.00     0.067 A 
HETATM    6  C   UNL     1      -6.172  -1.309 -33.887  1.00  0.00     0.090 A 
HETATM    7  C   UNL     1      -6.792  -2.255 -34.719  1.00  0.00     0.040 A 
HETATM    8  C   UNL     1      -6.222  -3.514 -34.913  1.00  0.00     0.026 A 
HETATM    9  C   UNL     1      -5.021  -3.832 -34.288  1.00  0.00     0.035 A 
HETATM   10 CL   UNL     1      -4.322  -5.386 -34.526  1.00  0.00    -0.084 Cl
HETATM   11  C   UNL     1      -4.377  -2.896 -33.486  1.00  0.00     0.043 A 
BRANCH   6  12
HETATM   12  O   UNL     1      -6.715  -0.065 -33.688  1.00  0.00    -0.289 OA
BRANCH  12  13
HETATM   13  C   UNL     1      -7.604   0.372 -34.710  1.00  0.00     0.505 C 
HETATM   14  F   UNL     1      -8.362   1.361 -34.174  1.00  0.00    -0.184 F 
HETATM   15  F   UNL     1      -6.877   0.938 -35.704  1.00  0.00    -0.184 F 
ENDBRANCH  12  13
ENDBRANCH   6  12
ENDBRANCH   2   5
BRANCH   1  16
HETATM   16  C   UNL     1      -3.467   1.668 -31.966  1.00  0.00     0.136 C 
BRANCH  16  17
HETATM   17  C   UNL     1      -4.197   3.048 -31.922  1.00  0.00    -0.004 C 
HETATM   18  C   UNL     1      -5.006   3.114 -30.604  1.00  0.00     0.021 C 
HETATM   19  C   UNL     1      -5.219   3.081 -33.082  1.00  0.00     0.021 C 
BRANCH  17  20
HETATM   20  C   UNL     1      -3.236   4.235 -32.105  1.00  0.00    -0.046 A 
HETATM   21  C   UNL     1      -3.243   5.355 -31.261  1.00  0.00     0.027 A 
HETATM   22  C   UNL     1      -2.358   6.400 -31.501  1.00  0.00     0.116 A 
HETATM   23  N   UNL     1      -1.467   6.419 -32.511  1.00  0.00    -0.273 NA
HETATM   24  C   UNL     1      -1.469   5.344 -33.324  1.00  0.00     0.116 A 
HETATM   25  C   UNL     1      -2.320   4.258 -33.169  1.00  0.00     0.027 A 
ENDBRANCH  17  20
ENDBRANCH  16  17
ENDBRANCH   1  16
TORSDOF 6
ENDMDL
MODEL 10
REMARK VINA RESULT:      -7.0      1.550      3.144
REMARK  6 active torsions:
REMARK  status: ('A' for Active; 'I' for Inactive)
REMARK    1  A    between atoms: C_2  and  C_3 
REMARK    2  A    between atoms: C_2  and  C_9 
REMARK    3  A    between atoms: C_9  and  N_10 
REMARK       I    between atoms: N_10  and  C_11 
REMARK    4  A    between atoms: C_11  and  C_12 
REMARK    5  A    between atoms: C_13  and  O_14 
REMARK    6  A    between atoms: O_14  and  C_15 
ROOT
HETATM    1  N   UNL     1      -4.146   1.365 -32.665  1.00  0.00    -0.356 N 
HETATM    2  C   UNL     1      -4.377   0.129 -32.105  1.00  0.00     0.254 C 
HETATM    3  O   UNL     1      -4.145  -0.117 -30.925  1.00  0.00    -0.268 OA
HETATM    4  H   UNL     1      -4.321   1.489 -33.655  1.00  0.00     0.162 HD
ENDROOT
BRANCH   2   5
HETATM    5  C   UNL     1      -4.909  -0.950 -33.000  1.00  0.00     0.067 A 
HETATM    6  C   UNL     1      -6.132  -0.889 -33.699  1.00  0.00     0.090 A 
HETATM    7  C   UNL     1      -6.498  -1.946 -34.547  1.00  0.00     0.040 A 
HETATM    8  C   UNL     1      -5.690  -3.078 -34.661  1.00  0.00     0.026 A 
HETATM    9  C   UNL     1      -4.504  -3.156 -33.939  1.00  0.00     0.035 A 
HETATM   10 CL   UNL     1      -3.511  -4.554 -34.079  1.00  0.00    -0.084 Cl
HETATM   11  C   UNL     1      -4.110  -2.103 -33.119  1.00  0.00     0.043 A 
BRANCH   6  12
HETATM   12  O   UNL     1      -6.911   0.235 -33.578  1.00  0.00    -0.289 OA
BRANCH  12  13
HETATM   13  C   UNL     1      -7.241   0.871 -34.807  1.00  0.00     0.505 C 
HETATM   14  F   UNL     1      -8.474   1.415 -34.648  1.00  0.00    -0.184 F 
HETATM   15  F   UNL     1      -6.385   1.904 -35.002  1.00  0.00    -0.184 F 
ENDBRANCH  12  13
ENDBRANCH   6  12
ENDBRANCH   2   5
BRANCH   1  16
HETATM   16  C   UNL     1      -3.650   2.500 -31.904  1.00  0.00     0.136 C 
BRANCH  16  17
HETATM   17  C   UNL     1      -4.537   3.779 -32.032  1.00  0.00    -0.004 C 
HETATM   18  C   UNL     1      -4.468   4.258 -33.502  1.00  0.00     0.021 C 
HETATM   19  C   UNL     1      -3.897   4.889 -31.165  1.00  0.00     0.021 C 
BRANCH  17  20
HETATM   20  C   UNL     1      -5.975   3.559 -31.531  1.00  0.00    -0.046 A 
HETATM   21  C   UNL     1      -7.098   3.704 -32.358  1.00  0.00     0.027 A 
HETATM   22  C   UNL     1      -8.368   3.508 -31.829  1.00  0.00     0.116 A 
HETATM   23  N   UNL     1      -8.610   3.180 -30.546  1.00  0.00    -0.273 NA
HETATM   24  C   UNL     1      -7.528   3.049 -29.753  1.00  0.00     0.116 A 
HETATM   25  C   UNL     1      -6.223   3.233 -30.188  1.00  0.00     0.027 A 
ENDBRANCH  17  20
ENDBRANCH  16  17
ENDBRANCH   1  16
TORSDOF 6
ENDMDL
