MODEL 1
REMARK VINA RESULT:      -8.4      0.000      0.000
REMARK  3 active torsions:
REMARK  status: ('A' for Active; 'I' for Inactive)
REMARK    1  A    between atoms: C_2  and  O_3 
REMARK    2  A    between atoms: O_3  and  C_4 
REMARK    3  A    between atoms: C_7  and  N_8 
REMARK       I    between atoms: N_8  and  C_9 
REMARK       I    between atoms: C_9  and  N_10 
ROOT
HETATM    1  N   UNL     1      -3.630   5.099 -32.292  1.00  0.00    -0.309 N 
HETATM    2  C   UNL     1      -2.471   4.614 -31.730  1.00  0.00     0.323 C 
HETATM    3  N   UNL     1      -1.492   5.564 -31.463  1.00  0.00    -0.328 N 
HETATM    4  C   UNL     1      -0.323   5.117 -30.687  1.00  0.00     0.185 C 
HETATM    5  C   UNL     1      -0.060   6.140 -29.632  1.00  0.00     0.035 A 
HETATM    6  C   UNL     1      -0.598   7.410 -29.553  1.00  0.00    -0.020 A 
HETATM    7  C   UNL     1      -1.568   7.900 -30.575  1.00  0.00     0.061 C 
HETATM    8  C   UNL     1      -1.486   7.001 -31.828  1.00  0.00     0.132 C 
HETATM    9  N   UNL     1       0.767   5.963 -28.559  1.00  0.00    -0.357 N 
HETATM   10  H   UNL     1       1.288   5.121 -28.348  1.00  0.00     0.166 HD
HETATM   11  C   UNL     1       0.778   7.102 -27.782  1.00  0.00     0.043 A 
HETATM   12  C   UNL     1      -0.078   8.029 -28.385  1.00  0.00    -0.001 A 
HETATM   13  C   UNL     1       1.468   7.376 -26.596  1.00  0.00     0.030 A 
HETATM   14  C   UNL     1       1.278   8.630 -26.008  1.00  0.00     0.002 A 
HETATM   15  C   UNL     1       0.430   9.573 -26.586  1.00  0.00     0.001 A 
HETATM   16  C   UNL     1      -0.254   9.286 -27.774  1.00  0.00     0.014 A 
HETATM   17  O   UNL     1      -2.283   3.430 -31.458  1.00  0.00    -0.247 OA
HETATM   18  H   UNL     1      -3.675   6.082 -32.476  1.00  0.00     0.170 HD
ENDROOT
BRANCH   1  19
HETATM   19  C   UNL     1      -4.816   4.389 -32.587  1.00  0.00     0.036 A 
HETATM   20  C   UNL     1      -5.223   4.037 -33.874  1.00  0.00     0.032 A 
HETATM   21  C   UNL     1      -6.389   3.290 -34.070  1.00  0.00     0.039 A 
HETATM   22  C   UNL     1      -7.146   2.878 -32.978  1.00  0.00     0.070 A 
HETATM   23  C   UNL     1      -6.784   3.265 -31.693  1.00  0.00     0.039 A 
HETATM   24  C   UNL     1      -5.614   4.005 -31.499  1.00  0.00     0.032 A 
BRANCH  22  25
HETATM   25  O   UNL     1      -8.280   2.165 -33.219  1.00  0.00    -0.341 OA
BRANCH  25  26
HETATM   26  C   UNL     1      -8.175   0.724 -33.231  1.00  0.00     0.057 C 
HETATM   27  C   UNL     1      -9.454   0.151 -32.608  1.00  0.00     0.045 C 
HETATM   28  C   UNL     1      -6.934   0.114 -32.552  1.00  0.00     0.045 C 
HETATM   29  C   UNL     1      -8.138   0.342 -34.720  1.00  0.00     0.045 C 
ENDBRANCH  25  26
ENDBRANCH  22  25
ENDBRANCH   1  19
TORSDOF 3
ENDMDL
MODEL 2
REMARK VINA RESULT:      -7.9      7.129      9.922
REMARK  3 active torsions:
REMARK  status: ('A' for Active; 'I' for Inactive)
REMARK    1  A    between atoms: C_2  and  O_3 
REMARK    2  A    between atoms: O_3  and  C_4 
REMARK    3  A    between atoms: C_7  and  N_8 
REMARK       I    between atoms: N_8  and  C_9 
REMARK       I    between atoms: C_9  and  N_10 
ROOT
HETATM    1  N   UNL     1      -9.882   3.569 -33.260  1.00  0.00    -0.309 N 
HETATM    2  C   UNL     1      -8.631   3.350 -32.730  1.00  0.00     0.323 C 
HETATM    3  N   UNL     1      -8.363   2.040 -32.350  1.00  0.00    -0.328 N 
HETATM    4  C   UNL     1      -6.976   1.728 -31.965  1.00  0.00     0.185 C 
HETATM    5  C   UNL     1      -6.590   0.457 -32.645  1.00  0.00     0.035 A 
HETATM    6  C   UNL     1      -7.433  -0.435 -33.280  1.00  0.00    -0.020 A 
HETATM    7  C   UNL     1      -8.900  -0.182 -33.363  1.00  0.00     0.061 C 
HETATM    8  C   UNL     1      -9.293   0.887 -32.319  1.00  0.00     0.132 C 
HETATM    9  N   UNL     1      -5.314  -0.020 -32.748  1.00  0.00    -0.357 N 
HETATM   10  H   UNL     1      -4.484   0.432 -32.387  1.00  0.00     0.166 HD
HETATM   11  C   UNL     1      -5.314  -1.213 -33.440  1.00  0.00     0.043 A 
HETATM   12  C   UNL     1      -6.637  -1.496 -33.790  1.00  0.00    -0.001 A 
HETATM   13  C   UNL     1      -4.248  -2.051 -33.786  1.00  0.00     0.030 A 
HETATM   14  C   UNL     1      -4.542  -3.210 -34.512  1.00  0.00     0.002 A 
HETATM   15  C   UNL     1      -5.852  -3.516 -34.877  1.00  0.00     0.001 A 
HETATM   16  C   UNL     1      -6.908  -2.668 -34.522  1.00  0.00     0.014 A 
HETATM   17  O   UNL     1      -7.778   4.226 -32.599  1.00  0.00    -0.247 OA
HETATM   18  H   UNL     1     -10.501   2.784 -33.318  1.00  0.00     0.170 HD
ENDROOT
BRANCH   1  19
HETATM   19  C   UNL     1     -10.397   4.766 -33.806  1.00  0.00     0.036 A 
HETATM   20  C   UNL     1      -9.965   5.335 -35.006  1.00  0.00     0.032 A 
HETATM   21  C   UNL     1     -10.566   6.498 -35.497  1.00  0.00     0.039 A 
HETATM   22  C   UNL     1     -11.613   7.091 -34.799  1.00  0.00     0.070 A 
HETATM   23  C   UNL     1     -12.020   6.569 -33.577  1.00  0.00     0.039 A 
HETATM   24  C   UNL     1     -11.423   5.402 -33.091  1.00  0.00     0.032 A 
BRANCH  22  25
HETATM   25  O   UNL     1     -12.156   8.230 -35.309  1.00  0.00    -0.341 OA
BRANCH  25  26
HETATM   26  C   UNL     1     -13.263   8.090 -36.228  1.00  0.00     0.057 C 
HETATM   27  C   UNL     1     -14.383   9.031 -35.767  1.00  0.00     0.045 C 
HETATM   28  C   UNL     1     -13.815   6.667 -36.436  1.00  0.00     0.045 C 
HETATM   29  C   UNL     1     -12.722   8.592 -37.577  1.00  0.00     0.045 C 
ENDBRANCH  25  26
ENDBRANCH  22  25
ENDBRANCH   1  19
TORSDOF 3
ENDMDL
MODEL 3
REMARK VINA RESULT:      -7.8      2.459      9.983
REMARK  3 active torsions:
REMARK  status: ('A' for Active; 'I' for Inactive)
REMARK    1  A    between atoms: C_2  and  O_3 
REMARK    2  A    between atoms: O_3  and  C_4 
REMARK    3  A    between atoms: C_7  and  N_8 
REMARK       I    between atoms: N_8  and  C_9 
REMARK       I    between atoms: C_9  and  N_10 
ROOT
HETATM    1  N   UNL     1      -1.083   6.107 -29.802  1.00  0.00    -0.309 N 
HETATM    2  C   UNL     1      -2.384   6.384 -30.156  1.00  0.00     0.323 C 
HETATM    3  N   UNL     1      -2.944   5.527 -31.096  1.00  0.00    -0.328 N 
HETATM    4  C   UNL     1      -4.387   5.670 -31.352  1.00  0.00     0.185 C 
HETATM    5  C   UNL     1      -4.987   4.303 -31.355  1.00  0.00     0.035 A 
HETATM    6  C   UNL     1      -4.309   3.099 -31.408  1.00  0.00    -0.020 A 
HETATM    7  C   UNL     1      -2.820   3.056 -31.451  1.00  0.00     0.061 C 
HETATM    8  C   UNL     1      -2.280   4.444 -31.859  1.00  0.00     0.132 C 
HETATM    9  N   UNL     1      -6.325   4.034 -31.299  1.00  0.00    -0.357 N 
HETATM   10  H   UNL     1      -7.063   4.723 -31.240  1.00  0.00     0.166 HD
HETATM   11  C   UNL     1      -6.530   2.671 -31.317  1.00  0.00     0.043 A 
HETATM   12  C   UNL     1      -5.275   2.058 -31.382  1.00  0.00    -0.001 A 
HETATM   13  C   UNL     1      -7.723   1.940 -31.272  1.00  0.00     0.030 A 
HETATM   14  C   UNL     1      -7.631   0.545 -31.292  1.00  0.00     0.002 A 
HETATM   15  C   UNL     1      -6.393  -0.093 -31.354  1.00  0.00     0.001 A 
HETATM   16  C   UNL     1      -5.209   0.651 -31.399  1.00  0.00     0.014 A 
HETATM   17  O   UNL     1      -3.041   7.310 -29.683  1.00  0.00    -0.247 OA
HETATM   18  H   UNL     1      -0.640   5.330 -30.252  1.00  0.00     0.170 HD
ENDROOT
BRANCH   1  19
HETATM   19  C   UNL     1      -0.295   6.746 -28.819  1.00  0.00     0.036 A 
HETATM   20  C   UNL     1       0.648   7.739 -29.087  1.00  0.00     0.032 A 
HETATM   21  C   UNL     1       1.350   8.352 -28.044  1.00  0.00     0.039 A 
HETATM   22  C   UNL     1       1.101   7.987 -26.726  1.00  0.00     0.070 A 
HETATM   23  C   UNL     1       0.205   6.963 -26.443  1.00  0.00     0.039 A 
HETATM   24  C   UNL     1      -0.502   6.356 -27.487  1.00  0.00     0.032 A 
BRANCH  22  25
HETATM   25  O   UNL     1       1.818   8.601 -25.746  1.00  0.00    -0.341 OA
BRANCH  25  26
HETATM   26  C   UNL     1       1.358   9.892 -25.288  1.00  0.00     0.057 C 
HETATM   27  C   UNL     1       0.123   9.669 -24.407  1.00  0.00     0.045 C 
HETATM   28  C   UNL     1       1.054  10.944 -26.373  1.00  0.00     0.045 C 
HETATM   29  C   UNL     1       2.499  10.431 -24.410  1.00  0.00     0.045 C 
ENDBRANCH  25  26
ENDBRANCH  22  25
ENDBRANCH   1  19
TORSDOF 3
ENDMDL
MODEL 4
REMARK VINA RESULT:      -7.8      1.663      2.020
REMARK  3 active torsions:
REMARK  status: ('A' for Active; 'I' for Inactive)
REMARK    1  A    between atoms: C_2  and  O_3 
REMARK    2  A    between atoms: O_3  and  C_4 
REMARK    3  A    between atoms: C_7  and  N_8 
REMARK       I    between atoms: N_8  and  C_9 
REMARK       I    between atoms: C_9  and  N_10 
ROOT
HETATM    1  N   UNL     1      -3.762   4.615 -31.071  1.00  0.00    -0.309 N 
HETATM    2  C   UNL     1      -2.484   5.069 -31.303  1.00  0.00     0.323 C 
HETATM    3  N   UNL     1      -2.190   6.324 -30.783  1.00  0.00    -0.328 N 
HETATM    4  C   UNL     1      -0.784   6.758 -30.839  1.00  0.00     0.185 C 
HETATM    5  C   UNL     1      -0.429   7.324 -29.505  1.00  0.00     0.035 A 
HETATM    6  C   UNL     1      -1.300   7.665 -28.488  1.00  0.00    -0.020 A 
HETATM    7  C   UNL     1      -2.771   7.467 -28.636  1.00  0.00     0.061 C 
HETATM    8  C   UNL     1      -3.113   7.283 -30.131  1.00  0.00     0.132 C 
HETATM    9  N   UNL     1       0.842   7.591 -29.081  1.00  0.00    -0.357 N 
HETATM   10  H   UNL     1       1.688   7.428 -29.612  1.00  0.00     0.166 HD
HETATM   11  C   UNL     1       0.811   8.103 -27.801  1.00  0.00     0.043 A 
HETATM   12  C   UNL     1      -0.528   8.156 -27.402  1.00  0.00    -0.001 A 
HETATM   13  C   UNL     1       1.861   8.510 -26.970  1.00  0.00     0.030 A 
HETATM   14  C   UNL     1       1.534   8.984 -25.696  1.00  0.00     0.002 A 
HETATM   15  C   UNL     1       0.208   9.047 -25.271  1.00  0.00     0.001 A 
HETATM   16  C   UNL     1      -0.832   8.636 -26.113  1.00  0.00     0.014 A 
HETATM   17  O   UNL     1      -1.629   4.431 -31.915  1.00  0.00    -0.247 OA
HETATM   18  H   UNL     1      -4.380   5.219 -30.565  1.00  0.00     0.170 HD
ENDROOT
BRANCH   1  19
HETATM   19  C   UNL     1      -4.309   3.354 -31.401  1.00  0.00     0.036 A 
HETATM   20  C   UNL     1      -3.558   2.252 -31.812  1.00  0.00     0.032 A 
HETATM   21  C   UNL     1      -4.180   1.026 -32.072  1.00  0.00     0.039 A 
HETATM   22  C   UNL     1      -5.555   0.892 -31.906  1.00  0.00     0.070 A 
HETATM   23  C   UNL     1      -6.325   1.993 -31.550  1.00  0.00     0.039 A 
HETATM   24  C   UNL     1      -5.700   3.216 -31.283  1.00  0.00     0.032 A 
BRANCH  22  25
HETATM   25  O   UNL     1      -6.117  -0.315 -32.185  1.00  0.00    -0.341 OA
BRANCH  25  26
HETATM   26  C   UNL     1      -6.776  -0.469 -33.462  1.00  0.00     0.057 C 
HETATM   27  C   UNL     1      -6.413  -1.850 -34.019  1.00  0.00     0.045 C 
HETATM   28  C   UNL     1      -6.501   0.619 -34.518  1.00  0.00     0.045 C 
HETATM   29  C   UNL     1      -8.278  -0.448 -33.137  1.00  0.00     0.045 C 
ENDBRANCH  25  26
ENDBRANCH  22  25
ENDBRANCH   1  19
TORSDOF 3
ENDMDL
MODEL 5
REMARK VINA RESULT:      -7.6      2.093      9.825
REMARK  3 active torsions:
REMARK  status: ('A' for Active; 'I' for Inactive)
REMARK    1  A    between atoms: C_2  and  O_3 
REMARK    2  A    between atoms: O_3  and  C_4 
REMARK    3  A    between atoms: C_7  and  N_8 
REMARK       I    between atoms: N_8  and  C_9 
REMARK       I    between atoms: C_9  and  N_10 
ROOT
HETATM    1  N   UNL     1      -2.319   5.134 -31.094  1.00  0.00    -0.309 N 
HETATM    2  C   UNL     1      -3.126   5.273 -32.200  1.00  0.00     0.323 C 
HETATM    3  N   UNL     1      -3.683   4.096 -32.687  1.00  0.00    -0.328 N 
HETATM    4  C   UNL     1      -4.702   4.227 -33.741  1.00  0.00     0.185 C 
HETATM    5  C   UNL     1      -5.844   3.336 -33.383  1.00  0.00     0.035 A 
HETATM    6  C   UNL     1      -5.855   2.346 -32.418  1.00  0.00    -0.020 A 
HETATM    7  C   UNL     1      -4.651   2.074 -31.582  1.00  0.00     0.061 C 
HETATM    8  C   UNL     1      -3.411   2.706 -32.251  1.00  0.00     0.132 C 
HETATM    9  N   UNL     1      -7.079   3.372 -33.966  1.00  0.00    -0.357 N 
HETATM   10  H   UNL     1      -7.368   4.009 -34.697  1.00  0.00     0.166 HD
HETATM   11  C   UNL     1      -7.895   2.418 -33.396  1.00  0.00     0.043 A 
HETATM   12  C   UNL     1      -7.149   1.759 -32.415  1.00  0.00    -0.001 A 
HETATM   13  C   UNL     1      -9.230   2.098 -33.668  1.00  0.00     0.030 A 
HETATM   14  C   UNL     1      -9.820   1.078 -32.915  1.00  0.00     0.002 A 
HETATM   15  C   UNL     1      -9.100   0.405 -31.929  1.00  0.00     0.001 A 
HETATM   16  C   UNL     1      -7.765   0.736 -31.669  1.00  0.00     0.014 A 
HETATM   17  O   UNL     1      -3.371   6.351 -32.740  1.00  0.00    -0.247 OA
HETATM   18  H   UNL     1      -2.183   4.208 -30.737  1.00  0.00     0.170 HD
ENDROOT
BRANCH   1  19
HETATM   19  C   UNL     1      -1.696   6.153 -30.339  1.00  0.00     0.036 A 
HETATM   20  C   UNL     1      -2.377   7.199 -29.714  1.00  0.00     0.032 A 
HETATM   21  C   UNL     1      -1.684   8.139 -28.944  1.00  0.00     0.039 A 
HETATM   22  C   UNL     1      -0.307   8.028 -28.782  1.00  0.00     0.070 A 
HETATM   23  C   UNL     1       0.394   7.025 -29.441  1.00  0.00     0.039 A 
HETATM   24  C   UNL     1      -0.301   6.082 -30.204  1.00  0.00     0.032 A 
BRANCH  22  25
HETATM   25  O   UNL     1       0.326   8.974 -28.036  1.00  0.00    -0.341 OA
BRANCH  25  26
HETATM   26  C   UNL     1       0.462   8.728 -26.619  1.00  0.00     0.057 C 
HETATM   27  C   UNL     1       1.911   8.305 -26.349  1.00  0.00     0.045 C 
HETATM   28  C   UNL     1      -0.514   7.712 -25.996  1.00  0.00     0.045 C 
HETATM   29  C   UNL     1       0.215  10.093 -25.955  1.00  0.00     0.045 C 
ENDBRANCH  25  26
ENDBRANCH  22  25
ENDBRANCH   1  19
TORSDOF 3
ENDMDL
MODEL 6
REMARK VINA RESULT:      -7.3     19.510     21.428
REMARK  3 active torsions:
REMARK  status: ('A' for Active; 'I' for Inactive)
REMARK    1  A    between atoms: C_2  and  O_3 
REMARK    2  A    between atoms: O_3  and  C_4 
REMARK    3  A    between atoms: C_7  and  N_8 
REMARK       I    between atoms: N_8  and  C_9 
REMARK       I    between atoms: C_9  and  N_10 
ROOT
HETATM    1  N   UNL     1      -7.019 -13.503 -38.575  1.00  0.00    -0.309 N 
HETATM    2  C   UNL     1      -5.963 -12.747 -39.031  1.00  0.00     0.323 C 
HETATM    3  N   UNL     1      -4.846 -12.717 -38.204  1.00  0.00    -0.328 N 
HETATM    4  C   UNL     1      -3.632 -12.085 -38.746  1.00  0.00     0.185 C 
HETATM    5  C   UNL     1      -2.478 -12.983 -38.445  1.00  0.00     0.035 A 
HETATM    6  C   UNL     1      -2.466 -14.056 -37.575  1.00  0.00    -0.020 A 
HETATM    7  C   UNL     1      -3.691 -14.451 -36.822  1.00  0.00     0.061 C 
HETATM    8  C   UNL     1      -4.700 -13.282 -36.842  1.00  0.00     0.132 C 
HETATM    9  N   UNL     1      -1.236 -12.876 -39.004  1.00  0.00    -0.357 N 
HETATM   10  H   UNL     1      -0.955 -12.188 -39.690  1.00  0.00     0.166 HD
HETATM   11  C   UNL     1      -0.413 -13.865 -38.508  1.00  0.00     0.043 A 
HETATM   12  C   UNL     1      -1.165 -14.625 -37.608  1.00  0.00    -0.001 A 
HETATM   13  C   UNL     1       0.928 -14.146 -38.794  1.00  0.00     0.030 A 
HETATM   14  C   UNL     1       1.517 -15.235 -38.144  1.00  0.00     0.002 A 
HETATM   15  C   UNL     1       0.790 -16.012 -37.243  1.00  0.00     0.001 A 
HETATM   16  C   UNL     1      -0.550 -15.718 -36.966  1.00  0.00     0.014 A 
HETATM   17  O   UNL     1      -5.967 -12.137 -40.099  1.00  0.00    -0.247 OA
HETATM   18  H   UNL     1      -6.911 -13.956 -37.688  1.00  0.00     0.170 HD
ENDROOT
BRANCH   1  19
HETATM   19  C   UNL     1      -8.235 -13.786 -39.236  1.00  0.00     0.036 A 
HETATM   20  C   UNL     1      -9.453 -13.171 -38.942  1.00  0.00     0.032 A 
HETATM   21  C   UNL     1     -10.600 -13.477 -39.682  1.00  0.00     0.039 A 
HETATM   22  C   UNL     1     -10.532 -14.388 -40.731  1.00  0.00     0.070 A 
HETATM   23  C   UNL     1      -9.340 -15.049 -41.003  1.00  0.00     0.039 A 
HETATM   24  C   UNL     1      -8.192 -14.736 -40.267  1.00  0.00     0.032 A 
BRANCH  22  25
HETATM   25  O   UNL     1     -11.676 -14.664 -41.412  1.00  0.00    -0.341 OA
BRANCH  25  26
HETATM   26  C   UNL     1     -11.794 -15.969 -42.022  1.00  0.00     0.057 C 
HETATM   27  C   UNL     1     -11.592 -17.023 -40.927  1.00  0.00     0.045 C 
HETATM   28  C   UNL     1     -10.867 -16.261 -43.218  1.00  0.00     0.045 C 
HETATM   29  C   UNL     1     -13.247 -16.045 -42.518  1.00  0.00     0.045 C 
ENDBRANCH  25  26
ENDBRANCH  22  25
ENDBRANCH   1  19
TORSDOF 3
ENDMDL
MODEL 7
REMARK VINA RESULT:      -7.3      2.092      9.839
REMARK  3 active torsions:
REMARK  status: ('A' for Active; 'I' for Inactive)
REMARK    1  A    between atoms: C_2  and  O_3 
REMARK    2  A    between atoms: O_3  and  C_4 
REMARK    3  A    between atoms: C_7  and  N_8 
REMARK       I    between atoms: N_8  and  C_9 
REMARK       I    between atoms: C_9  and  N_10 
ROOT
HETATM    1  N   UNL     1      -3.844   6.326 -31.614  1.00  0.00    -0.309 N 
HETATM    2  C   UNL     1      -4.983   5.775 -31.071  1.00  0.00     0.323 C 
HETATM    3  N   UNL     1      -5.897   5.267 -31.986  1.00  0.00    -0.328 N 
HETATM    4  C   UNL     1      -7.028   4.498 -31.441  1.00  0.00     0.185 C 
HETATM    5  C   UNL     1      -7.172   3.258 -32.259  1.00  0.00     0.035 A 
HETATM    6  C   UNL     1      -6.573   2.991 -33.476  1.00  0.00    -0.020 A 
HETATM    7  C   UNL     1      -5.655   3.978 -34.114  1.00  0.00     0.061 C 
HETATM    8  C   UNL     1      -5.863   5.363 -33.464  1.00  0.00     0.132 C 
HETATM    9  N   UNL     1      -7.930   2.175 -31.914  1.00  0.00    -0.357 N 
HETATM   10  H   UNL     1      -8.472   2.081 -31.065  1.00  0.00     0.166 HD
HETATM   11  C   UNL     1      -7.835   1.206 -32.891  1.00  0.00     0.043 A 
HETATM   12  C   UNL     1      -6.983   1.694 -33.885  1.00  0.00    -0.001 A 
HETATM   13  C   UNL     1      -8.429  -0.059 -32.963  1.00  0.00     0.030 A 
HETATM   14  C   UNL     1      -8.143  -0.848 -34.081  1.00  0.00     0.002 A 
HETATM   15  C   UNL     1      -7.295  -0.388 -35.087  1.00  0.00     0.001 A 
HETATM   16  C   UNL     1      -6.709   0.880 -35.001  1.00  0.00     0.014 A 
HETATM   17  O   UNL     1      -5.204   5.709 -29.863  1.00  0.00    -0.247 OA
HETATM   18  H   UNL     1      -3.768   6.332 -32.613  1.00  0.00     0.170 HD
ENDROOT
BRANCH   1  19
HETATM   19  C   UNL     1      -2.715   6.834 -30.934  1.00  0.00     0.036 A 
HETATM   20  C   UNL     1      -2.587   8.153 -30.494  1.00  0.00     0.032 A 
HETATM   21  C   UNL     1      -1.452   8.558 -29.784  1.00  0.00     0.039 A 
HETATM   22  C   UNL     1      -0.446   7.642 -29.496  1.00  0.00     0.070 A 
HETATM   23  C   UNL     1      -0.531   6.339 -29.972  1.00  0.00     0.039 A 
HETATM   24  C   UNL     1      -1.670   5.934 -30.675  1.00  0.00     0.032 A 
BRANCH  22  25
HETATM   25  O   UNL     1       0.646   8.086 -28.815  1.00  0.00    -0.341 OA
BRANCH  25  26
HETATM   26  C   UNL     1       0.561   8.137 -27.373  1.00  0.00     0.057 C 
HETATM   27  C   UNL     1       0.429   6.699 -26.856  1.00  0.00     0.045 C 
HETATM   28  C   UNL     1      -0.551   9.021 -26.777  1.00  0.00     0.045 C 
HETATM   29  C   UNL     1       1.915   8.703 -26.917  1.00  0.00     0.045 C 
ENDBRANCH  25  26
ENDBRANCH  22  25
ENDBRANCH   1  19
TORSDOF 3
ENDMDL
MODEL 8
REMARK VINA RESULT:      -7.2      3.608      5.755
REMARK  3 active torsions:
REMARK  status: ('A' for Active; 'I' for Inactive)
REMARK    1  A    between atoms: C_2  and  O_3 
REMARK    2  A    between atoms: O_3  and  C_4 
REMARK    3  A    between atoms: C_7  and  N_8 
REMARK       I    between atoms: N_8  and  C_9 
REMARK       I    between atoms: C_9  and  N_10 
ROOT
HETATM    1  N   UNL     1      -8.106   3.754 -33.759  1.00  0.00    -0.309 N 
HETATM    2  C   UNL     1      -7.217   3.105 -32.934  1.00  0.00     0.323 C 
HETATM    3  N   UNL     1      -5.881   3.189 -33.310  1.00  0.00    -0.328 N 
HETATM    4  C   UNL     1      -4.886   2.678 -32.352  1.00  0.00     0.185 C 
HETATM    5  C   UNL     1      -3.790   3.687 -32.253  1.00  0.00     0.035 A 
HETATM    6  C   UNL     1      -3.570   4.760 -33.096  1.00  0.00    -0.020 A 
HETATM    7  C   UNL     1      -4.478   5.033 -34.247  1.00  0.00     0.061 C 
HETATM    8  C   UNL     1      -5.313   3.770 -34.549  1.00  0.00     0.132 C 
HETATM    9  N   UNL     1      -2.825   3.702 -31.286  1.00  0.00    -0.357 N 
HETATM   10  H   UNL     1      -2.743   3.043 -30.523  1.00  0.00     0.166 HD
HETATM   11  C   UNL     1      -1.976   4.770 -31.489  1.00  0.00     0.043 A 
HETATM   12  C   UNL     1      -2.426   5.455 -32.622  1.00  0.00    -0.001 A 
HETATM   13  C   UNL     1      -0.858   5.182 -30.755  1.00  0.00     0.030 A 
HETATM   14  C   UNL     1      -0.181   6.326 -31.189  1.00  0.00     0.002 A 
HETATM   15  C   UNL     1      -0.608   7.030 -32.313  1.00  0.00     0.001 A 
HETATM   16  C   UNL     1      -1.728   6.606 -33.038  1.00  0.00     0.014 A 
HETATM   17  O   UNL     1      -7.543   2.493 -31.918  1.00  0.00    -0.247 OA
HETATM   18  H   UNL     1      -7.733   4.219 -34.564  1.00  0.00     0.170 HD
ENDROOT
BRANCH   1  19
HETATM   19  C   UNL     1      -9.500   3.912 -33.582  1.00  0.00     0.036 A 
HETATM   20  C   UNL     1     -10.442   2.910 -33.818  1.00  0.00     0.032 A 
HETATM   21  C   UNL     1     -11.800   3.139 -33.569  1.00  0.00     0.039 A 
HETATM   22  C   UNL     1     -12.219   4.367 -33.067  1.00  0.00     0.070 A 
HETATM   23  C   UNL     1     -11.301   5.393 -32.877  1.00  0.00     0.039 A 
HETATM   24  C   UNL     1      -9.944   5.160 -33.119  1.00  0.00     0.032 A 
BRANCH  22  25
HETATM   25  O   UNL     1     -13.551   4.548 -32.854  1.00  0.00    -0.341 OA
BRANCH  25  26
HETATM   26  C   UNL     1     -14.074   4.202 -31.552  1.00  0.00     0.057 C 
HETATM   27  C   UNL     1     -15.193   5.194 -31.213  1.00  0.00     0.045 C 
HETATM   28  C   UNL     1     -13.059   4.130 -30.395  1.00  0.00     0.045 C 
HETATM   29  C   UNL     1     -14.690   2.805 -31.732  1.00  0.00     0.045 C 
ENDBRANCH  25  26
ENDBRANCH  22  25
ENDBRANCH   1  19
TORSDOF 3
ENDMDL
MODEL 9
REMARK VINA RESULT:      -7.1      2.986     10.006
REMARK  3 active torsions:
REMARK  status: ('A' for Active; 'I' for Inactive)
REMARK    1  A    between atoms: C_2  and  O_3 
REMARK    2  A    between atoms: O_3  and  C_4 
REMARK    3  A    between atoms: C_7  and  N_8 
REMARK       I    between atoms: N_8  and  C_9 
REMARK       I    between atoms: C_9  and  N_10 
ROOT
HETATM    1  N   UNL     1      -2.721   7.369 -29.384  1.00  0.00    -0.309 N 
HETATM    2  C   UNL     1      -3.813   6.720 -28.856  1.00  0.00     0.323 C 
HETATM    3  N   UNL     1      -4.598   6.026 -29.770  1.00  0.00    -0.328 N 
HETATM    4  C   UNL     1      -5.656   5.162 -29.221  1.00  0.00     0.185 C 
HETATM    5  C   UNL     1      -5.592   3.853 -29.935  1.00  0.00     0.035 A 
HETATM    6  C   UNL     1      -4.889   3.572 -31.091  1.00  0.00    -0.020 A 
HETATM    7  C   UNL     1      -4.063   4.615 -31.764  1.00  0.00     0.061 C 
HETATM    8  C   UNL     1      -4.483   6.009 -31.248  1.00  0.00     0.132 C 
HETATM    9  N   UNL     1      -6.229   2.712 -29.538  1.00  0.00    -0.357 N 
HETATM   10  H   UNL     1      -6.807   2.616 -28.714  1.00  0.00     0.166 HD
HETATM   11  C   UNL     1      -5.952   1.689 -30.421  1.00  0.00     0.043 A 
HETATM   12  C   UNL     1      -5.107   2.204 -31.408  1.00  0.00    -0.001 A 
HETATM   13  C   UNL     1      -6.378   0.356 -30.414  1.00  0.00     0.030 A 
HETATM   14  C   UNL     1      -5.926  -0.475 -31.444  1.00  0.00     0.002 A 
HETATM   15  C   UNL     1      -5.080   0.011 -32.440  1.00  0.00     0.001 A 
HETATM   16  C   UNL     1      -4.664   1.347 -32.434  1.00  0.00     0.014 A 
HETATM   17  O   UNL     1      -4.100   6.721 -27.660  1.00  0.00    -0.247 OA
HETATM   18  H   UNL     1      -2.583   7.306 -30.374  1.00  0.00     0.170 HD
ENDROOT
BRANCH   1  19
HETATM   19  C   UNL     1      -1.708   8.071 -28.692  1.00  0.00     0.036 A 
HETATM   20  C   UNL     1      -0.434   7.565 -28.432  1.00  0.00     0.032 A 
HETATM   21  C   UNL     1       0.523   8.350 -27.782  1.00  0.00     0.039 A 
HETATM   22  C   UNL     1       0.216   9.652 -27.402  1.00  0.00     0.070 A 
HETATM   23  C   UNL     1      -1.064  10.154 -27.604  1.00  0.00     0.039 A 
HETATM   24  C   UNL     1      -2.017   9.370 -28.261  1.00  0.00     0.032 A 
BRANCH  22  25
HETATM   25  O   UNL     1       1.175  10.373 -26.759  1.00  0.00    -0.341 OA
BRANCH  25  26
HETATM   26  C   UNL     1       1.363  10.128 -25.347  1.00  0.00     0.057 C 
HETATM   27  C   UNL     1       2.433   9.041 -25.195  1.00  0.00     0.045 C 
HETATM   28  C   UNL     1       0.108   9.756 -24.536  1.00  0.00     0.045 C 
HETATM   29  C   UNL     1       1.918  11.448 -24.787  1.00  0.00     0.045 C 
ENDBRANCH  25  26
ENDBRANCH  22  25
ENDBRANCH   1  19
TORSDOF 3
ENDMDL
MODEL 10
REMARK VINA RESULT:      -7.1      1.191      1.821
REMARK  3 active torsions:
REMARK  status: ('A' for Active; 'I' for Inactive)
REMARK    1  A    between atoms: C_2  and  O_3 
REMARK    2  A    between atoms: O_3  and  C_4 
REMARK    3  A    between atoms: C_7  and  N_8 
REMARK       I    between atoms: N_8  and  C_9 
REMARK       I    between atoms: C_9  and  N_10 
ROOT
HETATM    1  N   UNL     1      -3.613   5.156 -32.119  1.00  0.00    -0.309 N 
HETATM    2  C   UNL     1      -2.454   4.664 -31.564  1.00  0.00     0.323 C 
HETATM    3  N   UNL     1      -1.459   5.605 -31.322  1.00  0.00    -0.328 N 
HETATM    4  C   UNL     1      -0.288   5.153 -30.553  1.00  0.00     0.185 C 
HETATM    5  C   UNL     1       0.001   6.187 -29.515  1.00  0.00     0.035 A 
HETATM    6  C   UNL     1      -0.520   7.465 -29.449  1.00  0.00    -0.020 A 
HETATM    7  C   UNL     1      -1.495   7.953 -30.466  1.00  0.00     0.061 C 
HETATM    8  C   UNL     1      -1.439   7.036 -31.707  1.00  0.00     0.132 C 
HETATM    9  N   UNL     1       0.838   6.014 -28.449  1.00  0.00    -0.357 N 
HETATM   10  H   UNL     1       1.350   5.169 -28.232  1.00  0.00     0.166 HD
HETATM   11  C   UNL     1       0.872   7.165 -27.689  1.00  0.00     0.043 A 
HETATM   12  C   UNL     1       0.022   8.094 -28.296  1.00  0.00    -0.001 A 
HETATM   13  C   UNL     1       1.579   7.446 -26.515  1.00  0.00     0.030 A 
HETATM   14  C   UNL     1       1.413   8.711 -25.943  1.00  0.00     0.002 A 
HETATM   15  C   UNL     1       0.570   9.656 -26.525  1.00  0.00     0.001 A 
HETATM   16  C   UNL     1      -0.131   9.361 -27.700  1.00  0.00     0.014 A 
HETATM   17  O   UNL     1      -2.279   3.481 -31.277  1.00  0.00    -0.247 OA
HETATM   18  H   UNL     1      -3.647   6.137 -32.318  1.00  0.00     0.170 HD
ENDROOT
BRANCH   1  19
HETATM   19  C   UNL     1      -4.811   4.458 -32.391  1.00  0.00     0.036 A 
HETATM   20  C   UNL     1      -5.472   3.640 -31.473  1.00  0.00     0.032 A 
HETATM   21  C   UNL     1      -6.681   3.025 -31.812  1.00  0.00     0.039 A 
HETATM   22  C   UNL     1      -7.245   3.238 -33.066  1.00  0.00     0.070 A 
HETATM   23  C   UNL     1      -6.575   4.005 -34.010  1.00  0.00     0.039 A 
HETATM   24  C   UNL     1      -5.369   4.626 -33.667  1.00  0.00     0.032 A 
BRANCH  22  25
HETATM   25  O   UNL     1      -8.415   2.607 -33.355  1.00  0.00    -0.341 OA
BRANCH  25  26
HETATM   26  C   UNL     1      -9.639   3.359 -33.196  1.00  0.00     0.057 C 
HETATM   27  C   UNL     1      -9.441   4.343 -32.037  1.00  0.00     0.045 C 
HETATM   28  C   UNL     1     -10.930   2.545 -32.987  1.00  0.00     0.045 C 
HETATM   29  C   UNL     1      -9.786   4.157 -34.501  1.00  0.00     0.045 C 
ENDBRANCH  25  26
ENDBRANCH  22  25
ENDBRANCH   1  19
TORSDOF 3
ENDMDL
