MODEL 1
REMARK VINA RESULT:      -9.6      0.000      0.000
REMARK  5 active torsions:
REMARK  status: ('A' for Active; 'I' for Inactive)
REMARK    1  A    between atoms: C_5  and  C_6 
REMARK    2  A    between atoms: C_11  and  C_12 
REMARK    3  A    between atoms: C_12  and  N_13 
REMARK    4  A    between atoms: N_13  and  C_15 
REMARK    5  A    between atoms: N_18  and  C_19 
ROOT
HETATM    1  N   UNL     1      -6.732   1.540 -31.214  1.00  0.00    -0.067 N 
HETATM    2  H   UNL     1      -6.167   1.173 -30.435  1.00  0.00     0.280 HD
HETATM    3  C   UNL     1      -7.670   2.522 -30.581  1.00  0.00     0.270 C 
ENDROOT
BRANCH   1   4
HETATM    4  C   UNL     1      -7.471   0.289 -31.708  1.00  0.00     0.277 C 
BRANCH   4   5
HETATM    5  C   UNL     1      -7.827   0.371 -33.151  1.00  0.00     0.016 A 
HETATM    6  C   UNL     1      -7.334  -0.451 -34.214  1.00  0.00     0.096 A 
HETATM    7  N   UNL     1      -7.909  -0.126 -35.375  1.00  0.00    -0.174 NA
HETATM    8  N   UNL     1      -8.764   0.855 -35.088  1.00  0.00    -0.288 N 
HETATM    9  H   UNL     1      -9.334   1.232 -35.842  1.00  0.00     0.188 HD
HETATM   10  C   UNL     1      -8.745   1.205 -33.766  1.00  0.00     0.120 A 
BRANCH   6  11
HETATM   11  C   UNL     1      -6.367  -1.541 -34.157  1.00  0.00    -0.005 A 
HETATM   12  C   UNL     1      -5.085  -1.340 -33.634  1.00  0.00     0.014 A 
HETATM   13  C   UNL     1      -4.166  -2.395 -33.604  1.00  0.00     0.007 A 
HETATM   14  C   UNL     1      -4.512  -3.653 -34.111  1.00  0.00    -0.062 A 
HETATM   15  C   UNL     1      -3.529  -4.788 -34.086  1.00  0.00     0.048 C 
HETATM   16  C   UNL     1      -5.799  -3.852 -34.625  1.00  0.00     0.007 A 
HETATM   17  C   UNL     1      -6.717  -2.801 -34.656  1.00  0.00     0.014 A 
ENDBRANCH   6  11
ENDBRANCH   4   5
ENDBRANCH   1   4
BRANCH   1  18
HETATM   18  C   UNL     1      -5.736   2.096 -32.240  1.00  0.00     0.190 C 
HETATM   19  C   UNL     1      -5.913   3.596 -32.514  1.00  0.00     0.048 C 
HETATM   20  C   UNL     1      -4.950   4.503 -31.754  1.00  0.00     0.099 C 
HETATM   21  N   UNL     1      -3.595   3.962 -31.882  1.00  0.00    -0.268 NA
HETATM   22  C   UNL     1      -3.428   2.662 -31.225  1.00  0.00     0.099 C 
HETATM   23  C   UNL     1      -4.304   1.635 -31.936  1.00  0.00     0.048 C 
BRANCH  21  24
HETATM   24  C   UNL     1      -2.569   4.884 -31.619  1.00  0.00     0.109 A 
HETATM   25  N   UNL     1      -1.342   4.446 -31.286  1.00  0.00    -0.224 NA
HETATM   26  C   UNL     1      -0.360   5.367 -31.117  1.00  0.00     0.102 A 
HETATM   27  C   UNL     1       1.017   4.894 -30.770  1.00  0.00     0.091 C 
HETATM   28  N   UNL     1      -0.552   6.684 -31.273  1.00  0.00    -0.348 N 
HETATM   29  H   UNL     1       0.234   7.321 -31.147  1.00  0.00     0.167 HD
HETATM   30  C   UNL     1      -1.765   7.152 -31.606  1.00  0.00     0.009 A 
HETATM   31  C   UNL     1      -1.950   8.622 -31.802  1.00  0.00     0.068 C 
HETATM   32  C   UNL     1      -2.810   6.244 -31.786  1.00  0.00     0.069 A 
ENDBRANCH  21  24
ENDBRANCH   1  18
TORSDOF 5
ENDMDL
MODEL 2
REMARK VINA RESULT:      -9.0      1.666      2.429
REMARK  5 active torsions:
REMARK  status: ('A' for Active; 'I' for Inactive)
REMARK    1  A    between atoms: C_5  and  C_6 
REMARK    2  A    between atoms: C_11  and  C_12 
REMARK    3  A    between atoms: C_12  and  N_13 
REMARK    4  A    between atoms: N_13  and  C_15 
REMARK    5  A    between atoms: N_18  and  C_19 
ROOT
HETATM    1  N   UNL     1      -6.868   4.023 -33.237  1.00  0.00    -0.067 N 
HETATM    2  H   UNL     1      -6.970   3.895 -32.220  1.00  0.00     0.280 HD
HETATM    3  C   UNL     1      -7.481   5.361 -33.522  1.00  0.00     0.270 C 
ENDROOT
BRANCH   1   4
HETATM    4  C   UNL     1      -7.719   2.878 -33.804  1.00  0.00     0.277 C 
BRANCH   4   5
HETATM    5  C   UNL     1      -8.389   2.086 -32.736  1.00  0.00     0.016 A 
HETATM    6  C   UNL     1      -8.142   0.721 -32.384  1.00  0.00     0.096 A 
HETATM    7  N   UNL     1      -8.893   0.352 -31.343  1.00  0.00    -0.174 NA
HETATM    8  N   UNL     1      -9.592   1.436 -31.006  1.00  0.00    -0.288 N 
HETATM    9  H   UNL     1     -10.215   1.376 -30.203  1.00  0.00     0.188 HD
HETATM   10  C   UNL     1      -9.339   2.505 -31.820  1.00  0.00     0.120 A 
BRANCH   6  11
HETATM   11  C   UNL     1      -7.205  -0.224 -32.980  1.00  0.00    -0.005 A 
HETATM   12  C   UNL     1      -7.545  -0.949 -34.127  1.00  0.00     0.014 A 
HETATM   13  C   UNL     1      -6.639  -1.863 -34.674  1.00  0.00     0.007 A 
HETATM   14  C   UNL     1      -5.393  -2.075 -34.072  1.00  0.00    -0.062 A 
HETATM   15  C   UNL     1      -4.418  -3.059 -34.651  1.00  0.00     0.048 C 
HETATM   16  C   UNL     1      -5.054  -1.342 -32.929  1.00  0.00     0.007 A 
HETATM   17  C   UNL     1      -5.957  -0.429 -32.382  1.00  0.00     0.014 A 
ENDBRANCH   6  11
ENDBRANCH   4   5
ENDBRANCH   1   4
BRANCH   1  18
HETATM   18  C   UNL     1      -5.372   3.868 -33.540  1.00  0.00     0.190 C 
HETATM   19  C   UNL     1      -4.680   5.192 -33.894  1.00  0.00     0.048 C 
HETATM   20  C   UNL     1      -3.923   5.847 -32.743  1.00  0.00     0.099 C 
HETATM   21  N   UNL     1      -3.104   4.828 -32.080  1.00  0.00    -0.268 NA
HETATM   22  C   UNL     1      -3.900   3.791 -31.417  1.00  0.00     0.099 C 
HETATM   23  C   UNL     1      -4.672   3.010 -32.477  1.00  0.00     0.048 C 
BRANCH  21  24
HETATM   24  C   UNL     1      -2.050   5.338 -31.305  1.00  0.00     0.109 A 
HETATM   25  N   UNL     1      -0.842   4.748 -31.343  1.00  0.00    -0.224 NA
HETATM   26  C   UNL     1       0.169   5.319 -30.641  1.00  0.00     0.102 A 
HETATM   27  C   UNL     1       1.525   4.688 -30.694  1.00  0.00     0.091 C 
HETATM   28  N   UNL     1       0.024   6.439 -29.921  1.00  0.00    -0.348 N 
HETATM   29  H   UNL     1       0.830   6.824 -29.431  1.00  0.00     0.167 HD
HETATM   30  C   UNL     1      -1.169   7.051 -29.864  1.00  0.00     0.009 A 
HETATM   31  C   UNL     1      -1.301   8.315 -29.077  1.00  0.00     0.068 C 
HETATM   32  C   UNL     1      -2.242   6.500 -30.566  1.00  0.00     0.069 A 
ENDBRANCH  21  24
ENDBRANCH   1  18
TORSDOF 5
ENDMDL
MODEL 3
REMARK VINA RESULT:      -8.8      1.577      2.629
REMARK  5 active torsions:
REMARK  status: ('A' for Active; 'I' for Inactive)
REMARK    1  A    between atoms: C_5  and  C_6 
REMARK    2  A    between atoms: C_11  and  C_12 
REMARK    3  A    between atoms: C_12  and  N_13 
REMARK    4  A    between atoms: N_13  and  C_15 
REMARK    5  A    between atoms: N_18  and  C_19 
ROOT
HETATM    1  N   UNL     1      -7.417   3.203 -32.909  1.00  0.00    -0.067 N 
HETATM    2  H   UNL     1      -7.429   2.271 -32.472  1.00  0.00     0.280 HD
HETATM    3  C   UNL     1      -7.770   4.152 -31.804  1.00  0.00     0.270 C 
ENDROOT
BRANCH   1   4
HETATM    4  C   UNL     1      -8.545   3.099 -33.946  1.00  0.00     0.277 C 
BRANCH   4   5
HETATM    5  C   UNL     1      -9.534   2.039 -33.605  1.00  0.00     0.016 A 
HETATM    6  C   UNL     1      -9.273   0.650 -33.378  1.00  0.00     0.096 A 
HETATM    7  N   UNL     1     -10.392   0.002 -33.045  1.00  0.00    -0.174 NA
HETATM    8  N   UNL     1     -11.350   0.929 -33.029  1.00  0.00    -0.288 N 
HETATM    9  H   UNL     1     -12.290   0.644 -32.764  1.00  0.00     0.188 HD
HETATM   10  C   UNL     1     -10.892   2.171 -33.372  1.00  0.00     0.120 A 
BRANCH   6  11
HETATM   11  C   UNL     1      -8.005  -0.066 -33.441  1.00  0.00    -0.005 A 
HETATM   12  C   UNL     1      -7.193  -0.195 -32.309  1.00  0.00     0.014 A 
HETATM   13  C   UNL     1      -5.972  -0.872 -32.394  1.00  0.00     0.007 A 
HETATM   14  C   UNL     1      -5.541  -1.411 -33.613  1.00  0.00    -0.062 A 
HETATM   15  C   UNL     1      -4.229  -2.134 -33.713  1.00  0.00     0.048 C 
HETATM   16  C   UNL     1      -6.360  -1.286 -34.741  1.00  0.00     0.007 A 
HETATM   17  C   UNL     1      -7.579  -0.611 -34.658  1.00  0.00     0.014 A 
ENDBRANCH   6  11
ENDBRANCH   4   5
ENDBRANCH   1   4
BRANCH   1  18
HETATM   18  C   UNL     1      -6.030   3.362 -33.543  1.00  0.00     0.190 C 
HETATM   19  C   UNL     1      -5.763   4.773 -34.086  1.00  0.00     0.048 C 
HETATM   20  C   UNL     1      -4.952   5.673 -33.160  1.00  0.00     0.099 C 
HETATM   21  N   UNL     1      -3.792   4.922 -32.672  1.00  0.00    -0.268 NA
HETATM   22  C   UNL     1      -4.157   3.791 -31.813  1.00  0.00     0.099 C 
HETATM   23  C   UNL     1      -4.933   2.773 -32.644  1.00  0.00     0.048 C 
BRANCH  21  24
HETATM   24  C   UNL     1      -2.746   5.716 -32.176  1.00  0.00     0.109 A 
HETATM   25  N   UNL     1      -2.946   7.026 -31.949  1.00  0.00    -0.224 NA
HETATM   26  C   UNL     1      -1.934   7.740 -31.395  1.00  0.00     0.102 A 
HETATM   27  C   UNL     1      -2.150   9.193 -31.114  1.00  0.00     0.091 C 
HETATM   28  N   UNL     1      -0.753   7.203 -31.059  1.00  0.00    -0.348 N 
HETATM   29  H   UNL     1      -0.041   7.793 -30.631  1.00  0.00     0.167 HD
HETATM   30  C   UNL     1      -0.523   5.899 -31.273  1.00  0.00     0.009 A 
HETATM   31  C   UNL     1       0.791   5.315 -30.865  1.00  0.00     0.068 C 
HETATM   32  C   UNL     1      -1.532   5.122 -31.845  1.00  0.00     0.069 A 
ENDBRANCH  21  24
ENDBRANCH   1  18
TORSDOF 5
ENDMDL
MODEL 4
REMARK VINA RESULT:      -8.8      2.122      3.729
REMARK  5 active torsions:
REMARK  status: ('A' for Active; 'I' for Inactive)
REMARK    1  A    between atoms: C_5  and  C_6 
REMARK    2  A    between atoms: C_11  and  C_12 
REMARK    3  A    between atoms: C_12  and  N_13 
REMARK    4  A    between atoms: N_13  and  C_15 
REMARK    5  A    between atoms: N_18  and  C_19 
ROOT
HETATM    1  N   UNL     1      -4.890   3.686 -32.955  1.00  0.00    -0.067 N 
HETATM    2  H   UNL     1      -5.401   4.030 -32.129  1.00  0.00     0.280 HD
HETATM    3  C   UNL     1      -5.937   3.512 -34.012  1.00  0.00     0.270 C 
ENDROOT
BRANCH   1   4
HETATM    4  C   UNL     1      -4.346   2.335 -32.469  1.00  0.00     0.277 C 
BRANCH   4   5
HETATM    5  C   UNL     1      -5.188   1.735 -31.398  1.00  0.00     0.016 A 
HETATM    6  C   UNL     1      -5.813   0.448 -31.405  1.00  0.00     0.096 A 
HETATM    7  N   UNL     1      -6.452   0.220 -30.254  1.00  0.00    -0.174 NA
HETATM    8  N   UNL     1      -6.238   1.304 -29.508  1.00  0.00    -0.288 N 
HETATM    9  H   UNL     1      -6.621   1.321 -28.565  1.00  0.00     0.188 HD
HETATM   10  C   UNL     1      -5.495   2.254 -30.151  1.00  0.00     0.120 A 
BRANCH   6  11
HETATM   11  C   UNL     1      -5.800  -0.572 -32.447  1.00  0.00    -0.005 A 
HETATM   12  C   UNL     1      -6.935  -0.819 -33.228  1.00  0.00     0.014 A 
HETATM   13  C   UNL     1      -6.907  -1.813 -34.211  1.00  0.00     0.007 A 
HETATM   14  C   UNL     1      -5.754  -2.581 -34.413  1.00  0.00    -0.062 A 
HETATM   15  C   UNL     1      -5.719  -3.653 -35.464  1.00  0.00     0.048 C 
HETATM   16  C   UNL     1      -4.619  -2.325 -33.636  1.00  0.00     0.007 A 
HETATM   17  C   UNL     1      -4.644  -1.333 -32.654  1.00  0.00     0.014 A 
ENDBRANCH   6  11
ENDBRANCH   4   5
ENDBRANCH   1   4
BRANCH   1  18
HETATM   18  C   UNL     1      -3.786   4.714 -33.234  1.00  0.00     0.190 C 
HETATM   19  C   UNL     1      -4.236   6.166 -33.023  1.00  0.00     0.048 C 
HETATM   20  C   UNL     1      -3.840   6.771 -31.679  1.00  0.00     0.099 C 
HETATM   21  N   UNL     1      -2.428   6.472 -31.428  1.00  0.00    -0.268 NA
HETATM   22  C   UNL     1      -2.164   5.041 -31.248  1.00  0.00     0.099 C 
HETATM   23  C   UNL     1      -2.467   4.317 -32.557  1.00  0.00     0.048 C 
BRANCH  21  24
HETATM   24  C   UNL     1      -1.814   7.301 -30.476  1.00  0.00     0.109 A 
HETATM   25  N   UNL     1      -2.300   8.533 -30.244  1.00  0.00    -0.224 NA
HETATM   26  C   UNL     1      -1.726   9.271 -29.261  1.00  0.00     0.102 A 
HETATM   27  C   UNL     1      -2.273  10.635 -28.975  1.00  0.00     0.091 C 
HETATM   28  N   UNL     1      -0.709   8.831 -28.509  1.00  0.00    -0.348 N 
HETATM   29  H   UNL     1      -0.335   9.431 -27.775  1.00  0.00     0.167 HD
HETATM   30  C   UNL     1      -0.202   7.605 -28.715  1.00  0.00     0.009 A 
HETATM   31  C   UNL     1       0.915   7.124 -27.846  1.00  0.00     0.068 C 
HETATM   32  C   UNL     1      -0.755   6.809 -29.720  1.00  0.00     0.069 A 
ENDBRANCH  21  24
ENDBRANCH   1  18
TORSDOF 5
ENDMDL
MODEL 5
REMARK VINA RESULT:      -8.8      3.561      8.026
REMARK  5 active torsions:
REMARK  status: ('A' for Active; 'I' for Inactive)
REMARK    1  A    between atoms: C_5  and  C_6 
REMARK    2  A    between atoms: C_11  and  C_12 
REMARK    3  A    between atoms: C_12  and  N_13 
REMARK    4  A    between atoms: N_13  and  C_15 
REMARK    5  A    between atoms: N_18  and  C_19 
ROOT
HETATM    1  N   UNL     1      -7.063   2.446 -32.201  1.00  0.00    -0.067 N 
HETATM    2  H   UNL     1      -6.539   3.112 -31.616  1.00  0.00     0.280 HD
HETATM    3  C   UNL     1      -7.590   1.421 -31.242  1.00  0.00     0.270 C 
ENDROOT
BRANCH   1   4
HETATM    4  C   UNL     1      -5.966   1.863 -33.105  1.00  0.00     0.277 C 
BRANCH   4   5
HETATM    5  C   UNL     1      -4.885   1.197 -32.328  1.00  0.00     0.016 A 
HETATM    6  C   UNL     1      -4.489  -0.177 -32.395  1.00  0.00     0.096 A 
HETATM    7  N   UNL     1      -3.448  -0.414 -31.592  1.00  0.00    -0.174 NA
HETATM    8  N   UNL     1      -3.153   0.761 -31.036  1.00  0.00    -0.288 N 
HETATM    9  H   UNL     1      -2.357   0.806 -30.402  1.00  0.00     0.188 HD
HETATM   10  C   UNL     1      -3.994   1.763 -31.432  1.00  0.00     0.120 A 
BRANCH   6  11
HETATM   11  C   UNL     1      -5.045  -1.252 -33.208  1.00  0.00    -0.005 A 
HETATM   12  C   UNL     1      -6.414  -1.307 -33.492  1.00  0.00     0.014 A 
HETATM   13  C   UNL     1      -6.930  -2.356 -34.260  1.00  0.00     0.007 A 
HETATM   14  C   UNL     1      -6.088  -3.369 -34.736  1.00  0.00    -0.062 A 
HETATM   15  C   UNL     1      -6.636  -4.501 -35.557  1.00  0.00     0.048 C 
HETATM   16  C   UNL     1      -4.718  -3.306 -34.456  1.00  0.00     0.007 A 
HETATM   17  C   UNL     1      -4.202  -2.259 -33.690  1.00  0.00     0.014 A 
ENDBRANCH   6  11
ENDBRANCH   4   5
ENDBRANCH   1   4
BRANCH   1  18
HETATM   18  C   UNL     1      -8.100   3.274 -32.970  1.00  0.00     0.190 C 
HETATM   19  C   UNL     1      -8.859   2.469 -34.034  1.00  0.00     0.048 C 
HETATM   20  C   UNL     1     -10.235   1.972 -33.601  1.00  0.00     0.099 C 
HETATM   21  N   UNL     1     -10.956   3.080 -32.970  1.00  0.00    -0.268 NA
HETATM   22  C   UNL     1     -10.345   3.526 -31.713  1.00  0.00     0.099 C 
HETATM   23  C   UNL     1      -8.967   4.108 -32.017  1.00  0.00     0.048 C 
BRANCH  21  24
HETATM   24  C   UNL     1     -12.349   2.914 -32.912  1.00  0.00     0.109 A 
HETATM   25  N   UNL     1     -13.109   3.827 -32.281  1.00  0.00    -0.224 NA
HETATM   26  C   UNL     1     -14.456   3.671 -32.317  1.00  0.00     0.102 A 
HETATM   27  C   UNL     1     -15.316   4.691 -31.641  1.00  0.00     0.091 C 
HETATM   28  N   UNL     1     -15.063   2.659 -32.954  1.00  0.00    -0.348 N 
HETATM   29  H   UNL     1     -16.081   2.611 -32.955  1.00  0.00     0.167 HD
HETATM   30  C   UNL     1     -14.332   1.733 -33.593  1.00  0.00     0.009 A 
HETATM   31  C   UNL     1     -15.030   0.629 -34.319  1.00  0.00     0.068 C 
HETATM   32  C   UNL     1     -12.941   1.847 -33.581  1.00  0.00     0.069 A 
ENDBRANCH  21  24
ENDBRANCH   1  18
TORSDOF 5
ENDMDL
MODEL 6
REMARK VINA RESULT:      -8.8      2.224      8.376
REMARK  5 active torsions:
REMARK  status: ('A' for Active; 'I' for Inactive)
REMARK    1  A    between atoms: C_5  and  C_6 
REMARK    2  A    between atoms: C_11  and  C_12 
REMARK    3  A    between atoms: C_12  and  N_13 
REMARK    4  A    between atoms: N_13  and  C_15 
REMARK    5  A    between atoms: N_18  and  C_19 
ROOT
HETATM    1  N   UNL     1      -5.494   4.666 -32.687  1.00  0.00    -0.067 N 
HETATM    2  H   UNL     1      -5.209   4.334 -33.620  1.00  0.00     0.280 HD
HETATM    3  C   UNL     1      -6.758   5.436 -32.921  1.00  0.00     0.270 C 
ENDROOT
BRANCH   1   4
HETATM    4  C   UNL     1      -4.332   5.590 -32.295  1.00  0.00     0.277 C 
BRANCH   4   5
HETATM    5  C   UNL     1      -3.216   5.550 -33.279  1.00  0.00     0.016 A 
HETATM    6  C   UNL     1      -1.828   5.787 -33.026  1.00  0.00     0.096 A 
HETATM    7  N   UNL     1      -1.103   5.617 -34.136  1.00  0.00    -0.174 NA
HETATM    8  N   UNL     1      -1.975   5.258 -35.078  1.00  0.00    -0.288 N 
HETATM    9  H   UNL     1      -1.618   5.048 -36.008  1.00  0.00     0.188 HD
HETATM   10  C   UNL     1      -3.263   5.216 -34.622  1.00  0.00     0.120 A 
BRANCH   6  11
HETATM   11  C   UNL     1      -1.172   6.140 -31.773  1.00  0.00    -0.005 A 
HETATM   12  C   UNL     1      -1.451   7.351 -31.129  1.00  0.00     0.014 A 
HETATM   13  C   UNL     1      -0.798   7.678 -29.936  1.00  0.00     0.007 A 
HETATM   14  C   UNL     1       0.151   6.809 -29.384  1.00  0.00    -0.062 A 
HETATM   15  C   UNL     1       0.859   7.157 -28.106  1.00  0.00     0.048 C 
HETATM   16  C   UNL     1       0.421   5.596 -30.026  1.00  0.00     0.007 A 
HETATM   17  C   UNL     1      -0.229   5.267 -31.217  1.00  0.00     0.014 A 
ENDBRANCH   6  11
ENDBRANCH   4   5
ENDBRANCH   1   4
BRANCH   1  18
HETATM   18  C   UNL     1      -5.596   3.418 -31.802  1.00  0.00     0.190 C 
HETATM   19  C   UNL     1      -6.655   2.415 -32.279  1.00  0.00     0.048 C 
HETATM   20  C   UNL     1      -6.109   1.245 -33.092  1.00  0.00     0.099 C 
HETATM   21  N   UNL     1      -4.941   0.696 -32.398  1.00  0.00    -0.268 NA
HETATM   22  C   UNL     1      -3.811   1.629 -32.343  1.00  0.00     0.099 C 
HETATM   23  C   UNL     1      -4.210   2.834 -31.496  1.00  0.00     0.048 C 
BRANCH  21  24
HETATM   24  C   UNL     1      -4.598  -0.613 -32.775  1.00  0.00     0.109 A 
HETATM   25  N   UNL     1      -3.737  -1.323 -32.027  1.00  0.00    -0.224 NA
HETATM   26  C   UNL     1      -3.494  -2.610 -32.382  1.00  0.00     0.102 A 
HETATM   27  C   UNL     1      -2.556  -3.422 -31.544  1.00  0.00     0.091 C 
HETATM   28  N   UNL     1      -4.072  -3.205 -33.434  1.00  0.00    -0.348 N 
HETATM   29  H   UNL     1      -3.858  -4.180 -33.636  1.00  0.00     0.167 HD
HETATM   30  C   UNL     1      -4.937  -2.522 -34.200  1.00  0.00     0.009 A 
HETATM   31  C   UNL     1      -5.592  -3.213 -35.352  1.00  0.00     0.068 C 
HETATM   32  C   UNL     1      -5.217  -1.192 -33.878  1.00  0.00     0.069 A 
ENDBRANCH  21  24
ENDBRANCH   1  18
TORSDOF 5
ENDMDL
MODEL 7
REMARK VINA RESULT:      -8.6      2.257      8.915
REMARK  5 active torsions:
REMARK  status: ('A' for Active; 'I' for Inactive)
REMARK    1  A    between atoms: C_5  and  C_6 
REMARK    2  A    between atoms: C_11  and  C_12 
REMARK    3  A    between atoms: C_12  and  N_13 
REMARK    4  A    between atoms: N_13  and  C_15 
REMARK    5  A    between atoms: N_18  and  C_19 
ROOT
HETATM    1  N   UNL     1      -4.752   5.506 -31.024  1.00  0.00    -0.067 N 
HETATM    2  H   UNL     1      -5.000   6.260 -31.681  1.00  0.00     0.280 HD
HETATM    3  C   UNL     1      -4.664   6.174 -29.685  1.00  0.00     0.270 C 
ENDROOT
BRANCH   1   4
HETATM    4  C   UNL     1      -3.370   5.068 -31.529  1.00  0.00     0.277 C 
BRANCH   4   5
HETATM    5  C   UNL     1      -2.794   6.025 -32.512  1.00  0.00     0.016 A 
HETATM    6  C   UNL     1      -1.819   7.043 -32.262  1.00  0.00     0.096 A 
HETATM    7  N   UNL     1      -1.496   7.683 -33.389  1.00  0.00    -0.174 NA
HETATM    8  N   UNL     1      -2.212   7.097 -34.349  1.00  0.00    -0.288 N 
HETATM    9  H   UNL     1      -2.090   7.422 -35.306  1.00  0.00     0.188 HD
HETATM   10  C   UNL     1      -3.021   6.102 -33.876  1.00  0.00     0.120 A 
BRANCH   6  11
HETATM   11  C   UNL     1      -1.171   7.403 -31.007  1.00  0.00    -0.005 A 
HETATM   12  C   UNL     1      -1.736   8.356 -30.152  1.00  0.00     0.014 A 
HETATM   13  C   UNL     1      -1.090   8.701 -28.960  1.00  0.00     0.007 A 
HETATM   14  C   UNL     1       0.133   8.110 -28.618  1.00  0.00    -0.062 A 
HETATM   15  C   UNL     1       0.834   8.479 -27.343  1.00  0.00     0.048 C 
HETATM   16  C   UNL     1       0.690   7.152 -29.472  1.00  0.00     0.007 A 
HETATM   17  C   UNL     1       0.047   6.807 -30.662  1.00  0.00     0.014 A 
ENDBRANCH   6  11
ENDBRANCH   4   5
ENDBRANCH   1   4
BRANCH   1  18
HETATM   18  C   UNL     1      -5.825   4.424 -31.190  1.00  0.00     0.190 C 
HETATM   19  C   UNL     1      -6.033   3.987 -32.647  1.00  0.00     0.048 C 
HETATM   20  C   UNL     1      -5.312   2.702 -33.040  1.00  0.00     0.099 C 
HETATM   21  N   UNL     1      -5.554   1.693 -32.006  1.00  0.00    -0.268 NA
HETATM   22  C   UNL     1      -4.955   2.037 -30.712  1.00  0.00     0.099 C 
HETATM   23  C   UNL     1      -5.639   3.290 -30.172  1.00  0.00     0.048 C 
BRANCH  21  24
HETATM   24  C   UNL     1      -5.331   0.368 -32.416  1.00  0.00     0.109 A 
HETATM   25  N   UNL     1      -6.101  -0.176 -33.374  1.00  0.00    -0.224 NA
HETATM   26  C   UNL     1      -5.802  -1.431 -33.797  1.00  0.00     0.102 A 
HETATM   27  C   UNL     1      -6.635  -2.041 -34.880  1.00  0.00     0.091 C 
HETATM   28  N   UNL     1      -4.778  -2.146 -33.312  1.00  0.00    -0.348 N 
HETATM   29  H   UNL     1      -4.599  -3.076 -33.686  1.00  0.00     0.167 HD
HETATM   30  C   UNL     1      -3.991  -1.629 -32.356  1.00  0.00     0.009 A 
HETATM   31  C   UNL     1      -2.838  -2.433 -31.849  1.00  0.00     0.068 C 
HETATM   32  C   UNL     1      -4.261  -0.343 -31.884  1.00  0.00     0.069 A 
ENDBRANCH  21  24
ENDBRANCH   1  18
TORSDOF 5
ENDMDL
MODEL 8
REMARK VINA RESULT:      -8.2      4.498      8.071
REMARK  5 active torsions:
REMARK  status: ('A' for Active; 'I' for Inactive)
REMARK    1  A    between atoms: C_5  and  C_6 
REMARK    2  A    between atoms: C_11  and  C_12 
REMARK    3  A    between atoms: C_12  and  N_13 
REMARK    4  A    between atoms: N_13  and  C_15 
REMARK    5  A    between atoms: N_18  and  C_19 
ROOT
HETATM    1  N   UNL     1      -9.352   3.366 -32.479  1.00  0.00    -0.067 N 
HETATM    2  H   UNL     1     -10.266   3.722 -32.166  1.00  0.00     0.280 HD
HETATM    3  C   UNL     1      -8.406   3.697 -31.364  1.00  0.00     0.270 C 
ENDROOT
BRANCH   1   4
HETATM    4  C   UNL     1      -9.074   4.214 -33.727  1.00  0.00     0.277 C 
BRANCH   4   5
HETATM    5  C   UNL     1     -10.070   5.306 -33.907  1.00  0.00     0.016 A 
HETATM    6  C   UNL     1     -11.486   5.169 -34.066  1.00  0.00     0.096 A 
HETATM    7  N   UNL     1     -12.075   6.365 -34.152  1.00  0.00    -0.174 NA
HETATM    8  N   UNL     1     -11.091   7.256 -34.031  1.00  0.00    -0.288 N 
HETATM    9  H   UNL     1     -11.334   8.245 -34.040  1.00  0.00     0.188 HD
HETATM   10  C   UNL     1      -9.861   6.674 -33.895  1.00  0.00     0.120 A 
BRANCH   6  11
HETATM   11  C   UNL     1     -12.290   3.954 -34.112  1.00  0.00    -0.005 A 
HETATM   12  C   UNL     1     -12.298   3.137 -35.247  1.00  0.00     0.014 A 
HETATM   13  C   UNL     1     -13.090   1.984 -35.277  1.00  0.00     0.007 A 
HETATM   14  C   UNL     1     -13.894   1.646 -34.182  1.00  0.00    -0.062 A 
HETATM   15  C   UNL     1     -14.750   0.413 -34.209  1.00  0.00     0.048 C 
HETATM   16  C   UNL     1     -13.878   2.462 -33.045  1.00  0.00     0.007 A 
HETATM   17  C   UNL     1     -13.088   3.613 -33.013  1.00  0.00     0.014 A 
ENDBRANCH   6  11
ENDBRANCH   4   5
ENDBRANCH   1   4
BRANCH   1  18
HETATM   18  C   UNL     1      -9.557   1.879 -32.795  1.00  0.00     0.190 C 
HETATM   19  C   UNL     1      -9.150   1.496 -34.224  1.00  0.00     0.048 C 
HETATM   20  C   UNL     1      -7.764   0.872 -34.350  1.00  0.00     0.099 C 
HETATM   21  N   UNL     1      -7.619  -0.161 -33.321  1.00  0.00    -0.268 NA
HETATM   22  C   UNL     1      -7.627   0.378 -31.957  1.00  0.00     0.099 C 
HETATM   23  C   UNL     1      -8.998   0.987 -31.677  1.00  0.00     0.048 C 
BRANCH  21  24
HETATM   24  C   UNL     1      -6.603  -1.098 -33.570  1.00  0.00     0.109 A 
HETATM   25  N   UNL     1      -5.422  -0.993 -32.937  1.00  0.00    -0.224 NA
HETATM   26  C   UNL     1      -4.497  -1.964 -33.147  1.00  0.00     0.102 A 
HETATM   27  C   UNL     1      -3.187  -1.874 -32.430  1.00  0.00     0.091 C 
HETATM   28  N   UNL     1      -4.706  -3.019 -33.946  1.00  0.00    -0.348 N 
HETATM   29  H   UNL     1      -3.974  -3.721 -34.046  1.00  0.00     0.167 HD
HETATM   30  C   UNL     1      -5.875  -3.152 -34.591  1.00  0.00     0.009 A 
HETATM   31  C   UNL     1      -6.097  -4.351 -35.455  1.00  0.00     0.068 C 
HETATM   32  C   UNL     1      -6.858  -2.177 -34.411  1.00  0.00     0.069 A 
ENDBRANCH  21  24
ENDBRANCH   1  18
TORSDOF 5
ENDMDL
MODEL 9
REMARK VINA RESULT:      -8.1      3.078      8.392
REMARK  5 active torsions:
REMARK  status: ('A' for Active; 'I' for Inactive)
REMARK    1  A    between atoms: C_5  and  C_6 
REMARK    2  A    between atoms: C_11  and  C_12 
REMARK    3  A    between atoms: C_12  and  N_13 
REMARK    4  A    between atoms: N_13  and  C_15 
REMARK    5  A    between atoms: N_18  and  C_19 
ROOT
HETATM    1  N   UNL     1      -6.273   0.734 -33.053  1.00  0.00    -0.067 N 
HETATM    2  H   UNL     1      -5.779   1.457 -32.510  1.00  0.00     0.280 HD
HETATM    3  C   UNL     1      -7.088  -0.018 -32.044  1.00  0.00     0.270 C 
ENDROOT
BRANCH   1   4
HETATM    4  C   UNL     1      -5.118  -0.119 -33.597  1.00  0.00     0.277 C 
BRANCH   4   5
HETATM    5  C   UNL     1      -4.005  -0.259 -32.618  1.00  0.00     0.016 A 
HETATM    6  C   UNL     1      -3.431   0.770 -31.805  1.00  0.00     0.096 A 
HETATM    7  N   UNL     1      -2.482   0.274 -31.006  1.00  0.00    -0.174 NA
HETATM    8  N   UNL     1      -2.447  -1.034 -31.264  1.00  0.00    -0.288 N 
HETATM    9  H   UNL     1      -1.800  -1.611 -30.731  1.00  0.00     0.188 HD
HETATM   10  C   UNL     1      -3.332  -1.407 -32.236  1.00  0.00     0.120 A 
BRANCH   6  11
HETATM   11  C   UNL     1      -3.770   2.186 -31.745  1.00  0.00    -0.005 A 
HETATM   12  C   UNL     1      -3.210   3.101 -32.643  1.00  0.00     0.014 A 
HETATM   13  C   UNL     1      -3.535   4.458 -32.558  1.00  0.00     0.007 A 
HETATM   14  C   UNL     1      -4.408   4.919 -31.564  1.00  0.00    -0.062 A 
HETATM   15  C   UNL     1      -4.757   6.375 -31.464  1.00  0.00     0.048 C 
HETATM   16  C   UNL     1      -4.972   3.999 -30.673  1.00  0.00     0.007 A 
HETATM   17  C   UNL     1      -4.649   2.644 -30.757  1.00  0.00     0.014 A 
ENDBRANCH   6  11
ENDBRANCH   4   5
ENDBRANCH   1   4
BRANCH   1  18
HETATM   18  C   UNL     1      -7.043   1.475 -34.152  1.00  0.00     0.190 C 
HETATM   19  C   UNL     1      -8.111   0.612 -34.839  1.00  0.00     0.048 C 
HETATM   20  C   UNL     1      -9.532   0.820 -34.324  1.00  0.00     0.099 C 
HETATM   21  N   UNL     1      -9.796   2.259 -34.243  1.00  0.00    -0.268 NA
HETATM   22  C   UNL     1      -8.969   2.941 -33.243  1.00  0.00     0.099 C 
HETATM   23  C   UNL     1      -7.507   2.859 -33.675  1.00  0.00     0.048 C 
BRANCH  21  24
HETATM   24  C   UNL     1     -11.157   2.603 -34.206  1.00  0.00     0.109 A 
HETATM   25  N   UNL     1     -12.095   1.648 -34.324  1.00  0.00    -0.224 NA
HETATM   26  C   UNL     1     -13.396   2.013 -34.204  1.00  0.00     0.102 A 
HETATM   27  C   UNL     1     -14.451   0.957 -34.309  1.00  0.00     0.091 C 
HETATM   28  N   UNL     1     -13.788   3.273 -33.967  1.00  0.00    -0.348 N 
HETATM   29  H   UNL     1     -14.782   3.475 -33.871  1.00  0.00     0.167 HD
HETATM   30  C   UNL     1     -12.875   4.248 -33.843  1.00  0.00     0.009 A 
HETATM   31  C   UNL     1     -13.333   5.641 -33.552  1.00  0.00     0.068 C 
HETATM   32  C   UNL     1     -11.523   3.924 -33.964  1.00  0.00     0.069 A 
ENDBRANCH  21  24
ENDBRANCH   1  18
TORSDOF 5
ENDMDL
MODEL 10
REMARK VINA RESULT:      -8.1      3.341      9.152
REMARK  5 active torsions:
REMARK  status: ('A' for Active; 'I' for Inactive)
REMARK    1  A    between atoms: C_5  and  C_6 
REMARK    2  A    between atoms: C_11  and  C_12 
REMARK    3  A    between atoms: C_12  and  N_13 
REMARK    4  A    between atoms: N_13  and  C_15 
REMARK    5  A    between atoms: N_18  and  C_19 
ROOT
HETATM    1  N   UNL     1      -4.422   4.063 -32.134  1.00  0.00    -0.067 N 
HETATM    2  H   UNL     1      -4.570   5.001 -32.531  1.00  0.00     0.280 HD
HETATM    3  C   UNL     1      -4.723   4.209 -30.673  1.00  0.00     0.270 C 
ENDROOT
BRANCH   1   4
HETATM    4  C   UNL     1      -2.924   3.831 -32.382  1.00  0.00     0.277 C 
BRANCH   4   5
HETATM    5  C   UNL     1      -2.329   4.865 -33.271  1.00  0.00     0.016 A 
HETATM    6  C   UNL     1      -1.408   5.898 -32.904  1.00  0.00     0.096 A 
HETATM    7  N   UNL     1      -1.046   6.617 -33.971  1.00  0.00    -0.174 NA
HETATM    8  N   UNL     1      -1.683   6.066 -35.004  1.00  0.00    -0.288 N 
HETATM    9  H   UNL     1      -1.518   6.452 -35.931  1.00  0.00     0.188 HD
HETATM   10  C   UNL     1      -2.480   5.017 -34.639  1.00  0.00     0.120 A 
BRANCH   6  11
HETATM   11  C   UNL     1      -0.848   6.204 -31.593  1.00  0.00    -0.005 A 
HETATM   12  C   UNL     1      -1.211   7.368 -30.908  1.00  0.00     0.014 A 
HETATM   13  C   UNL     1      -0.649   7.651 -29.658  1.00  0.00     0.007 A 
HETATM   14  C   UNL     1       0.293   6.785 -29.090  1.00  0.00    -0.062 A 
HETATM   15  C   UNL     1       0.903   7.085 -27.752  1.00  0.00     0.048 C 
HETATM   16  C   UNL     1       0.647   5.617 -29.776  1.00  0.00     0.007 A 
HETATM   17  C   UNL     1       0.087   5.333 -31.023  1.00  0.00     0.014 A 
ENDBRANCH   6  11
ENDBRANCH   4   5
ENDBRANCH   1   4
BRANCH   1  18
HETATM   18  C   UNL     1      -5.319   3.112 -32.935  1.00  0.00     0.190 C 
HETATM   19  C   UNL     1      -6.040   2.072 -32.065  1.00  0.00     0.048 C 
HETATM   20  C   UNL     1      -7.483   2.421 -31.713  1.00  0.00     0.099 C 
HETATM   21  N   UNL     1      -8.171   2.855 -32.931  1.00  0.00    -0.268 NA
HETATM   22  C   UNL     1      -7.642   4.109 -33.477  1.00  0.00     0.099 C 
HETATM   23  C   UNL     1      -6.202   3.880 -33.929  1.00  0.00     0.048 C 
BRANCH  21  24
HETATM   24  C   UNL     1      -9.572   2.794 -32.866  1.00  0.00     0.109 A 
HETATM   25  N   UNL     1     -10.233   3.504 -31.935  1.00  0.00    -0.224 NA
HETATM   26  C   UNL     1     -11.589   3.479 -31.957  1.00  0.00     0.102 A 
HETATM   27  C   UNL     1     -12.339   4.284 -30.942  1.00  0.00     0.091 C 
HETATM   28  N   UNL     1     -12.298   2.789 -32.861  1.00  0.00    -0.348 N 
HETATM   29  H   UNL     1     -13.316   2.827 -32.831  1.00  0.00     0.167 HD
HETATM   30  C   UNL     1     -11.667   2.072 -33.803  1.00  0.00     0.009 A 
HETATM   31  C   UNL     1     -12.478   1.333 -34.819  1.00  0.00     0.068 C 
HETATM   32  C   UNL     1     -10.271   2.062 -33.820  1.00  0.00     0.069 A 
ENDBRANCH  21  24
ENDBRANCH   1  18
TORSDOF 5
ENDMDL
