MODEL 1
REMARK VINA RESULT:      -8.9      0.000      0.000
REMARK  10 active torsions:
REMARK  status: ('A' for Active; 'I' for Inactive)
REMARK    1  A    between atoms: C_4  and  C_5 
REMARK    2  A    between atoms: C_5  and  N_6 
REMARK    3  A    between atoms: C_7  and  S_8 
REMARK    4  A    between atoms: S_8  and  C_9 
REMARK    5  A    between atoms: C_9  and  C_10 
REMARK       I    between atoms: C_10  and  N_11 
REMARK    6  A    between atoms: N_11  and  C_12 
REMARK    7  A    between atoms: C_12  and  C_13 
REMARK       I    between atoms: C_13  and  N_14 
REMARK    8  A    between atoms: N_14  and  C_15 
REMARK    9  A    between atoms: C_26  and  C_27 
REMARK   10  A    between atoms: C_27  and  N_28 
ROOT
HETATM    1  N   UNL     1      -4.921   4.446 -32.577  1.00  0.00    -0.306 N 
HETATM    2  C   UNL     1      -6.198   4.698 -33.006  1.00  0.00     0.192 A 
HETATM    3  N   UNL     1      -6.162   5.242 -34.199  1.00  0.00    -0.123 NA
HETATM    4  N   UNL     1      -4.854   5.305 -34.593  1.00  0.00    -0.132 NA
HETATM    5  C   UNL     1      -4.108   4.768 -33.648  1.00  0.00     0.157 A 
ENDROOT
BRANCH   2   6
HETATM    6  S   UNL     1      -7.615   4.273 -32.119  1.00  0.00    -0.081 SA
BRANCH   6   7
HETATM    7  C   UNL     1      -8.927   4.672 -33.308  1.00  0.00     0.185 C 
BRANCH   7   8
HETATM    8  C   UNL     1      -9.368   3.441 -34.081  1.00  0.00     0.227 C 
HETATM    9  N   UNL     1      -8.644   2.300 -33.805  1.00  0.00    -0.352 N 
HETATM   10  H   UNL     1      -7.758   2.366 -33.322  1.00  0.00     0.162 HD
HETATM   11  O   UNL     1     -10.309   3.422 -34.872  1.00  0.00    -0.273 OA
BRANCH   9  12
HETATM   12  C   UNL     1      -9.032   0.998 -34.330  1.00  0.00     0.225 C 
BRANCH  12  13
HETATM   13  C   UNL     1      -7.840   0.161 -34.815  1.00  0.00     0.239 C 
HETATM   14  N   UNL     1      -7.642  -0.975 -34.050  1.00  0.00    -0.326 N 
HETATM   15  H   UNL     1      -8.349  -1.148 -33.332  1.00  0.00     0.169 HD
HETATM   16  O   UNL     1      -7.159   0.530 -35.767  1.00  0.00    -0.271 OA
BRANCH  14  17
HETATM   17  C   UNL     1      -6.616  -1.928 -34.163  1.00  0.00     0.035 A 
HETATM   18  C   UNL     1      -6.793  -3.201 -34.713  1.00  0.00     0.032 A 
HETATM   19  C   UNL     1      -5.716  -4.088 -34.800  1.00  0.00     0.044 A 
HETATM   20  C   UNL     1      -4.468  -3.701 -34.330  1.00  0.00     0.116 A 
HETATM   21  F   UNL     1      -3.440  -4.555 -34.401  1.00  0.00    -0.206 F 
HETATM   22  C   UNL     1      -4.272  -2.440 -33.784  1.00  0.00     0.044 A 
HETATM   23  C   UNL     1      -5.345  -1.551 -33.705  1.00  0.00     0.032 A 
ENDBRANCH  14  17
ENDBRANCH  12  13
ENDBRANCH   9  12
ENDBRANCH   7   8
ENDBRANCH   6   7
ENDBRANCH   2   6
BRANCH   1  24
HETATM   24  C   UNL     1      -4.499   4.048 -31.242  1.00  0.00     0.171 C 
BRANCH  24  25
HETATM   25  C   UNL     1      -4.441   2.552 -31.071  1.00  0.00    -0.040 A 
HETATM   26  C   UNL     1      -3.327   1.824 -31.517  1.00  0.00     0.009 A 
HETATM   27  C   UNL     1      -3.253   0.444 -31.315  1.00  0.00     0.001 A 
HETATM   28  C   UNL     1      -4.283  -0.220 -30.652  1.00  0.00     0.000 A 
HETATM   29  C   UNL     1      -5.385   0.492 -30.190  1.00  0.00     0.001 A 
HETATM   30  C   UNL     1      -5.466   1.869 -30.399  1.00  0.00     0.009 A 
ENDBRANCH  24  25
ENDBRANCH   1  24
BRANCH   5  31
HETATM   31  C   UNL     1      -2.643   4.509 -33.735  1.00  0.00     0.315 C 
BRANCH  31  32
HETATM   32  N   UNL     1      -1.764   5.572 -33.080  1.00  0.00    -0.064 N 
HETATM   33  H   UNL     1      -1.002   5.750 -33.749  1.00  0.00     0.280 HD
HETATM   34  C   UNL     1      -2.538   6.851 -32.861  1.00  0.00     0.235 C 
HETATM   35  C   UNL     1      -1.617   7.942 -32.335  1.00  0.00     0.028 C 
HETATM   36  C   UNL     1      -0.883   7.505 -31.074  1.00  0.00     0.003 C 
HETATM   37  C   UNL     1      -0.156   6.185 -31.295  1.00  0.00     0.028 C 
HETATM   38  C   UNL     1      -1.101   5.100 -31.801  1.00  0.00     0.235 C 
ENDBRANCH  31  32
ENDBRANCH   5  31
TORSDOF 10
ENDMDL
MODEL 2
REMARK VINA RESULT:      -8.8      4.215      9.308
REMARK  10 active torsions:
REMARK  status: ('A' for Active; 'I' for Inactive)
REMARK    1  A    between atoms: C_4  and  C_5 
REMARK    2  A    between atoms: C_5  and  N_6 
REMARK    3  A    between atoms: C_7  and  S_8 
REMARK    4  A    between atoms: S_8  and  C_9 
REMARK    5  A    between atoms: C_9  and  C_10 
REMARK       I    between atoms: C_10  and  N_11 
REMARK    6  A    between atoms: N_11  and  C_12 
REMARK    7  A    between atoms: C_12  and  C_13 
REMARK       I    between atoms: C_13  and  N_14 
REMARK    8  A    between atoms: N_14  and  C_15 
REMARK    9  A    between atoms: C_26  and  C_27 
REMARK   10  A    between atoms: C_27  and  N_28 
ROOT
HETATM    1  N   UNL     1      -7.141   1.337 -32.611  1.00  0.00    -0.306 N 
HETATM    2  C   UNL     1      -6.910   1.648 -31.296  1.00  0.00     0.192 A 
HETATM    3  N   UNL     1      -8.052   1.865 -30.689  1.00  0.00    -0.123 NA
HETATM    4  N   UNL     1      -9.057   1.644 -31.590  1.00  0.00    -0.132 NA
HETATM    5  C   UNL     1      -8.517   1.263 -32.730  1.00  0.00     0.157 A 
ENDROOT
BRANCH   2   6
HETATM    6  S   UNL     1      -5.346   1.662 -30.569  1.00  0.00    -0.081 SA
BRANCH   6   7
HETATM    7  C   UNL     1      -4.849   3.392 -30.798  1.00  0.00     0.185 C 
BRANCH   7   8
HETATM    8  C   UNL     1      -3.490   3.494 -31.469  1.00  0.00     0.227 C 
HETATM    9  N   UNL     1      -2.801   4.656 -31.196  1.00  0.00    -0.352 N 
HETATM   10  H   UNL     1      -3.281   5.448 -30.790  1.00  0.00     0.162 HD
HETATM   11  O   UNL     1      -3.002   2.617 -32.180  1.00  0.00    -0.273 OA
BRANCH   9  12
HETATM   12  C   UNL     1      -1.421   4.850 -31.621  1.00  0.00     0.225 C 
BRANCH  12  13
HETATM   13  C   UNL     1      -0.457   5.104 -30.454  1.00  0.00     0.239 C 
HETATM   14  N   UNL     1      -0.784   6.238 -29.732  1.00  0.00    -0.326 N 
HETATM   15  H   UNL     1      -1.653   6.699 -30.012  1.00  0.00     0.169 HD
HETATM   16  O   UNL     1       0.498   4.360 -30.254  1.00  0.00    -0.271 OA
BRANCH  14  17
HETATM   17  C   UNL     1      -0.094   6.806 -28.648  1.00  0.00     0.035 A 
HETATM   18  C   UNL     1       0.847   7.832 -28.776  1.00  0.00     0.032 A 
HETATM   19  C   UNL     1       1.481   8.352 -27.644  1.00  0.00     0.044 A 
HETATM   20  C   UNL     1       1.178   7.839 -26.390  1.00  0.00     0.116 A 
HETATM   21  F   UNL     1       1.796   8.328 -25.307  1.00  0.00    -0.206 F 
HETATM   22  C   UNL     1       0.244   6.823 -26.242  1.00  0.00     0.044 A 
HETATM   23  C   UNL     1      -0.396   6.310 -27.372  1.00  0.00     0.032 A 
ENDBRANCH  14  17
ENDBRANCH  12  13
ENDBRANCH   9  12
ENDBRANCH   7   8
ENDBRANCH   6   7
ENDBRANCH   2   6
BRANCH   1  24
HETATM   24  C   UNL     1      -6.160   1.232 -33.681  1.00  0.00     0.171 C 
BRANCH  24  25
HETATM   25  C   UNL     1      -5.717  -0.187 -33.928  1.00  0.00    -0.040 A 
HETATM   26  C   UNL     1      -4.584  -0.706 -33.279  1.00  0.00     0.009 A 
HETATM   27  C   UNL     1      -4.203  -2.035 -33.471  1.00  0.00     0.001 A 
HETATM   28  C   UNL     1      -4.956  -2.865 -34.299  1.00  0.00     0.000 A 
HETATM   29  C   UNL     1      -6.089  -2.369 -34.935  1.00  0.00     0.001 A 
HETATM   30  C   UNL     1      -6.467  -1.038 -34.753  1.00  0.00     0.009 A 
ENDBRANCH  24  25
ENDBRANCH   1  24
BRANCH   5  31
HETATM   31  C   UNL     1      -9.260   0.789 -33.932  1.00  0.00     0.315 C 
BRANCH  31  32
HETATM   32  N   UNL     1     -10.081   1.862 -34.643  1.00  0.00    -0.064 N 
HETATM   33  H   UNL     1      -9.853   1.766 -35.642  1.00  0.00     0.280 HD
HETATM   34  C   UNL     1     -11.559   1.628 -34.448  1.00  0.00     0.235 C 
HETATM   35  C   UNL     1     -12.365   2.621 -35.271  1.00  0.00     0.028 C 
HETATM   36  C   UNL     1     -11.978   4.061 -34.959  1.00  0.00     0.003 C 
HETATM   37  C   UNL     1     -10.476   4.265 -35.106  1.00  0.00     0.028 C 
HETATM   38  C   UNL     1      -9.687   3.274 -34.256  1.00  0.00     0.235 C 
ENDBRANCH  31  32
ENDBRANCH   5  31
TORSDOF 10
ENDMDL
MODEL 3
REMARK VINA RESULT:      -8.7      4.161      9.061
REMARK  10 active torsions:
REMARK  status: ('A' for Active; 'I' for Inactive)
REMARK    1  A    between atoms: C_4  and  C_5 
REMARK    2  A    between atoms: C_5  and  N_6 
REMARK    3  A    between atoms: C_7  and  S_8 
REMARK    4  A    between atoms: S_8  and  C_9 
REMARK    5  A    between atoms: C_9  and  C_10 
REMARK       I    between atoms: C_10  and  N_11 
REMARK    6  A    between atoms: N_11  and  C_12 
REMARK    7  A    between atoms: C_12  and  C_13 
REMARK       I    between atoms: C_13  and  N_14 
REMARK    8  A    between atoms: N_14  and  C_15 
REMARK    9  A    between atoms: C_26  and  C_27 
REMARK   10  A    between atoms: C_27  and  N_28 
ROOT
HETATM    1  N   UNL     1      -6.550   1.331 -32.811  1.00  0.00    -0.306 N 
HETATM    2  C   UNL     1      -5.736   2.300 -32.284  1.00  0.00     0.192 A 
HETATM    3  N   UNL     1      -5.581   3.267 -33.157  1.00  0.00    -0.123 NA
HETATM    4  N   UNL     1      -6.341   2.969 -34.254  1.00  0.00    -0.132 NA
HETATM    5  C   UNL     1      -6.977   1.837 -34.025  1.00  0.00     0.157 A 
ENDROOT
BRANCH   2   6
HETATM    6  S   UNL     1      -5.097   2.257 -30.682  1.00  0.00    -0.081 SA
BRANCH   6   7
HETATM    7  C   UNL     1      -5.410   3.952 -30.115  1.00  0.00     0.185 C 
BRANCH   7   8
HETATM    8  C   UNL     1      -4.286   4.889 -30.522  1.00  0.00     0.227 C 
HETATM    9  N   UNL     1      -3.165   4.259 -31.020  1.00  0.00    -0.352 N 
HETATM   10  H   UNL     1      -3.039   3.264 -30.883  1.00  0.00     0.162 HD
HETATM   11  O   UNL     1      -4.348   6.115 -30.454  1.00  0.00    -0.273 OA
BRANCH   9  12
HETATM   12  C   UNL     1      -2.060   5.004 -31.608  1.00  0.00     0.225 C 
BRANCH  12  13
HETATM   13  C   UNL     1      -0.902   5.241 -30.630  1.00  0.00     0.239 C 
HETATM   14  N   UNL     1      -1.156   6.272 -29.743  1.00  0.00    -0.326 N 
HETATM   15  H   UNL     1      -2.094   6.675 -29.799  1.00  0.00     0.169 HD
HETATM   16  O   UNL     1       0.126   4.573 -30.699  1.00  0.00    -0.271 OA
BRANCH  14  17
HETATM   17  C   UNL     1      -0.303   6.803 -28.762  1.00  0.00     0.035 A 
HETATM   18  C   UNL     1       0.639   7.805 -29.008  1.00  0.00     0.032 A 
HETATM   19  C   UNL     1       1.442   8.289 -27.971  1.00  0.00     0.044 A 
HETATM   20  C   UNL     1       1.304   7.763 -26.693  1.00  0.00     0.116 A 
HETATM   21  F   UNL     1       2.082   8.217 -25.702  1.00  0.00    -0.206 F 
HETATM   22  C   UNL     1       0.371   6.770 -26.428  1.00  0.00     0.044 A 
HETATM   23  C   UNL     1      -0.436   6.293 -27.461  1.00  0.00     0.032 A 
ENDBRANCH  14  17
ENDBRANCH  12  13
ENDBRANCH   9  12
ENDBRANCH   7   8
ENDBRANCH   6   7
ENDBRANCH   2   6
BRANCH   1  24
HETATM   24  C   UNL     1      -6.810   0.005 -32.272  1.00  0.00     0.171 C 
BRANCH  24  25
HETATM   25  C   UNL     1      -6.187  -1.091 -33.098  1.00  0.00    -0.040 A 
HETATM   26  C   UNL     1      -6.976  -1.887 -33.943  1.00  0.00     0.009 A 
HETATM   27  C   UNL     1      -6.391  -2.869 -34.744  1.00  0.00     0.001 A 
HETATM   28  C   UNL     1      -5.011  -3.058 -34.722  1.00  0.00     0.000 A 
HETATM   29  C   UNL     1      -4.214  -2.266 -33.901  1.00  0.00     0.001 A 
HETATM   30  C   UNL     1      -4.797  -1.289 -33.092  1.00  0.00     0.009 A 
ENDBRANCH  24  25
ENDBRANCH   1  24
BRANCH   5  31
HETATM   31  C   UNL     1      -8.015   1.227 -34.903  1.00  0.00     0.315 C 
BRANCH  31  32
HETATM   32  N   UNL     1      -9.437   1.724 -34.656  1.00  0.00    -0.064 N 
HETATM   33  H   UNL     1      -9.903   1.693 -35.574  1.00  0.00     0.280 HD
HETATM   34  C   UNL     1     -10.169   0.813 -33.700  1.00  0.00     0.235 C 
HETATM   35  C   UNL     1     -11.623   1.241 -33.569  1.00  0.00     0.028 C 
HETATM   36  C   UNL     1     -11.748   2.702 -33.159  1.00  0.00     0.003 C 
HETATM   37  C   UNL     1     -10.958   3.602 -34.101  1.00  0.00     0.028 C 
HETATM   38  C   UNL     1      -9.499   3.169 -34.201  1.00  0.00     0.235 C 
ENDBRANCH  31  32
ENDBRANCH   5  31
TORSDOF 10
ENDMDL
MODEL 4
REMARK VINA RESULT:      -8.7      3.471      8.117
REMARK  10 active torsions:
REMARK  status: ('A' for Active; 'I' for Inactive)
REMARK    1  A    between atoms: C_4  and  C_5 
REMARK    2  A    between atoms: C_5  and  N_6 
REMARK    3  A    between atoms: C_7  and  S_8 
REMARK    4  A    between atoms: S_8  and  C_9 
REMARK    5  A    between atoms: C_9  and  C_10 
REMARK       I    between atoms: C_10  and  N_11 
REMARK    6  A    between atoms: N_11  and  C_12 
REMARK    7  A    between atoms: C_12  and  C_13 
REMARK       I    between atoms: C_13  and  N_14 
REMARK    8  A    between atoms: N_14  and  C_15 
REMARK    9  A    between atoms: C_26  and  C_27 
REMARK   10  A    between atoms: C_27  and  N_28 
ROOT
HETATM    1  N   UNL     1      -5.645   2.149 -31.330  1.00  0.00    -0.306 N 
HETATM    2  C   UNL     1      -4.996   3.330 -31.583  1.00  0.00     0.192 A 
HETATM    3  N   UNL     1      -3.723   3.096 -31.796  1.00  0.00    -0.123 NA
HETATM    4  N   UNL     1      -3.529   1.743 -31.738  1.00  0.00    -0.132 NA
HETATM    5  C   UNL     1      -4.693   1.164 -31.523  1.00  0.00     0.157 A 
ENDROOT
BRANCH   2   6
HETATM    6  S   UNL     1      -5.784   4.861 -31.680  1.00  0.00    -0.081 SA
BRANCH   6   7
HETATM    7  C   UNL     1      -6.100   5.001 -33.461  1.00  0.00     0.185 C 
BRANCH   7   8
HETATM    8  C   UNL     1      -4.813   5.222 -34.237  1.00  0.00     0.227 C 
HETATM    9  N   UNL     1      -3.853   5.945 -33.562  1.00  0.00    -0.352 N 
HETATM   10  H   UNL     1      -4.102   6.473 -32.736  1.00  0.00     0.162 HD
HETATM   11  O   UNL     1      -4.602   4.781 -35.366  1.00  0.00    -0.273 OA
BRANCH   9  12
HETATM   12  C   UNL     1      -2.504   6.112 -34.088  1.00  0.00     0.225 C 
BRANCH  12  13
HETATM   13  C   UNL     1      -1.468   6.439 -33.005  1.00  0.00     0.239 C 
HETATM   14  N   UNL     1      -1.745   5.820 -31.799  1.00  0.00    -0.326 N 
HETATM   15  H   UNL     1      -2.538   5.174 -31.811  1.00  0.00     0.169 HD
HETATM   16  O   UNL     1      -0.533   7.199 -33.238  1.00  0.00    -0.271 OA
BRANCH  14  17
HETATM   17  C   UNL     1      -1.056   5.943 -30.581  1.00  0.00     0.035 A 
HETATM   18  C   UNL     1       0.073   5.190 -30.245  1.00  0.00     0.032 A 
HETATM   19  C   UNL     1       0.709   5.383 -29.016  1.00  0.00     0.044 A 
HETATM   20  C   UNL     1       0.210   6.324 -28.124  1.00  0.00     0.116 A 
HETATM   21  F   UNL     1       0.812   6.499 -26.941  1.00  0.00    -0.206 F 
HETATM   22  C   UNL     1      -0.907   7.084 -28.441  1.00  0.00     0.044 A 
HETATM   23  C   UNL     1      -1.537   6.898 -29.672  1.00  0.00     0.032 A 
ENDBRANCH  14  17
ENDBRANCH  12  13
ENDBRANCH   9  12
ENDBRANCH   7   8
ENDBRANCH   6   7
ENDBRANCH   2   6
BRANCH   1  24
HETATM   24  C   UNL     1      -7.004   1.974 -30.840  1.00  0.00     0.171 C 
BRANCH  24  25
HETATM   25  C   UNL     1      -7.969   1.583 -31.930  1.00  0.00    -0.040 A 
HETATM   26  C   UNL     1      -7.812   2.075 -33.235  1.00  0.00     0.009 A 
HETATM   27  C   UNL     1      -8.678   1.674 -34.254  1.00  0.00     0.001 A 
HETATM   28  C   UNL     1      -9.700   0.767 -33.985  1.00  0.00     0.000 A 
HETATM   29  C   UNL     1      -9.858   0.260 -32.699  1.00  0.00     0.001 A 
HETATM   30  C   UNL     1      -9.000   0.665 -31.677  1.00  0.00     0.009 A 
ENDBRANCH  24  25
ENDBRANCH   1  24
BRANCH   5  31
HETATM   31  C   UNL     1      -4.952  -0.303 -31.529  1.00  0.00     0.315 C 
BRANCH  31  32
HETATM   32  N   UNL     1      -5.086  -0.924 -32.918  1.00  0.00    -0.064 N 
HETATM   33  H   UNL     1      -4.784  -0.193 -33.577  1.00  0.00     0.280 HD
HETATM   34  C   UNL     1      -4.182  -2.124 -33.061  1.00  0.00     0.235 C 
HETATM   35  C   UNL     1      -4.223  -2.649 -34.489  1.00  0.00     0.028 C 
HETATM   36  C   UNL     1      -5.646  -2.960 -34.937  1.00  0.00     0.003 C 
HETATM   37  C   UNL     1      -6.557  -1.756 -34.732  1.00  0.00     0.028 C 
HETATM   38  C   UNL     1      -6.517  -1.260 -33.290  1.00  0.00     0.235 C 
ENDBRANCH  31  32
ENDBRANCH   5  31
TORSDOF 10
ENDMDL
MODEL 5
REMARK VINA RESULT:      -8.6      4.139      9.388
REMARK  10 active torsions:
REMARK  status: ('A' for Active; 'I' for Inactive)
REMARK    1  A    between atoms: C_4  and  C_5 
REMARK    2  A    between atoms: C_5  and  N_6 
REMARK    3  A    between atoms: C_7  and  S_8 
REMARK    4  A    between atoms: S_8  and  C_9 
REMARK    5  A    between atoms: C_9  and  C_10 
REMARK       I    between atoms: C_10  and  N_11 
REMARK    6  A    between atoms: N_11  and  C_12 
REMARK    7  A    between atoms: C_12  and  C_13 
REMARK       I    between atoms: C_13  and  N_14 
REMARK    8  A    between atoms: N_14  and  C_15 
REMARK    9  A    between atoms: C_26  and  C_27 
REMARK   10  A    between atoms: C_27  and  N_28 
ROOT
HETATM    1  N   UNL     1      -7.308   1.624 -32.905  1.00  0.00    -0.306 N 
HETATM    2  C   UNL     1      -6.632   2.510 -32.106  1.00  0.00     0.192 A 
HETATM    3  N   UNL     1      -7.395   2.865 -31.100  1.00  0.00    -0.123 NA
HETATM    4  N   UNL     1      -8.570   2.171 -31.197  1.00  0.00    -0.132 NA
HETATM    5  C   UNL     1      -8.497   1.374 -32.245  1.00  0.00     0.157 A 
ENDROOT
BRANCH   2   6
HETATM    6  S   UNL     1      -4.999   2.996 -32.372  1.00  0.00    -0.081 SA
BRANCH   6   7
HETATM    7  C   UNL     1      -5.216   4.449 -33.437  1.00  0.00     0.185 C 
BRANCH   7   8
HETATM    8  C   UNL     1      -3.939   5.268 -33.525  1.00  0.00     0.227 C 
HETATM    9  N   UNL     1      -3.090   5.125 -32.448  1.00  0.00    -0.352 N 
HETATM   10  H   UNL     1      -3.425   4.706 -31.590  1.00  0.00     0.162 HD
HETATM   11  O   UNL     1      -3.642   5.985 -34.478  1.00  0.00    -0.273 OA
BRANCH   9  12
HETATM   12  C   UNL     1      -1.754   5.705 -32.439  1.00  0.00     0.225 C 
BRANCH  12  13
HETATM   13  C   UNL     1      -1.077   5.647 -31.064  1.00  0.00     0.239 C 
HETATM   14  N   UNL     1      -1.241   6.816 -30.341  1.00  0.00    -0.326 N 
HETATM   15  H   UNL     1      -1.848   7.516 -30.773  1.00  0.00     0.169 HD
HETATM   16  O   UNL     1      -0.449   4.653 -30.713  1.00  0.00    -0.271 OA
BRANCH  14  17
HETATM   17  C   UNL     1      -0.708   7.140 -29.082  1.00  0.00     0.035 A 
HETATM   18  C   UNL     1      -1.400   6.977 -27.879  1.00  0.00     0.032 A 
HETATM   19  C   UNL     1      -0.792   7.313 -26.665  1.00  0.00     0.044 A 
HETATM   20  C   UNL     1       0.502   7.815 -26.661  1.00  0.00     0.116 A 
HETATM   21  F   UNL     1       1.080   8.149 -25.500  1.00  0.00    -0.206 F 
HETATM   22  C   UNL     1       1.207   7.980 -27.846  1.00  0.00     0.044 A 
HETATM   23  C   UNL     1       0.603   7.637 -29.056  1.00  0.00     0.032 A 
ENDBRANCH  14  17
ENDBRANCH  12  13
ENDBRANCH   9  12
ENDBRANCH   7   8
ENDBRANCH   6   7
ENDBRANCH   2   6
BRANCH   1  24
HETATM   24  C   UNL     1      -6.919   1.148 -34.224  1.00  0.00     0.171 C 
BRANCH  24  25
HETATM   25  C   UNL     1      -6.325  -0.237 -34.190  1.00  0.00    -0.040 A 
HETATM   26  C   UNL     1      -6.964  -1.305 -34.840  1.00  0.00     0.009 A 
HETATM   27  C   UNL     1      -6.388  -2.577 -34.849  1.00  0.00     0.001 A 
HETATM   28  C   UNL     1      -5.162  -2.793 -34.224  1.00  0.00     0.000 A 
HETATM   29  C   UNL     1      -4.510  -1.740 -33.591  1.00  0.00     0.001 A 
HETATM   30  C   UNL     1      -5.087  -0.470 -33.572  1.00  0.00     0.009 A 
ENDBRANCH  24  25
ENDBRANCH   1  24
BRANCH   5  31
HETATM   31  C   UNL     1      -9.504   0.345 -32.630  1.00  0.00     0.315 C 
BRANCH  31  32
HETATM   32  N   UNL     1     -10.843   0.905 -33.104  1.00  0.00    -0.064 N 
HETATM   33  H   UNL     1     -11.186   1.492 -32.330  1.00  0.00     0.280 HD
HETATM   34  C   UNL     1     -10.663   1.763 -34.334  1.00  0.00     0.235 C 
HETATM   35  C   UNL     1     -11.980   2.423 -34.714  1.00  0.00     0.028 C 
HETATM   36  C   UNL     1     -13.094   1.401 -34.900  1.00  0.00     0.003 C 
HETATM   37  C   UNL     1     -13.223   0.507 -33.673  1.00  0.00     0.028 C 
HETATM   38  C   UNL     1     -11.898  -0.162 -33.322  1.00  0.00     0.235 C 
ENDBRANCH  31  32
ENDBRANCH   5  31
TORSDOF 10
ENDMDL
MODEL 6
REMARK VINA RESULT:      -8.5      4.322      9.430
REMARK  10 active torsions:
REMARK  status: ('A' for Active; 'I' for Inactive)
REMARK    1  A    between atoms: C_4  and  C_5 
REMARK    2  A    between atoms: C_5  and  N_6 
REMARK    3  A    between atoms: C_7  and  S_8 
REMARK    4  A    between atoms: S_8  and  C_9 
REMARK    5  A    between atoms: C_9  and  C_10 
REMARK       I    between atoms: C_10  and  N_11 
REMARK    6  A    between atoms: N_11  and  C_12 
REMARK    7  A    between atoms: C_12  and  C_13 
REMARK       I    between atoms: C_13  and  N_14 
REMARK    8  A    between atoms: N_14  and  C_15 
REMARK    9  A    between atoms: C_26  and  C_27 
REMARK   10  A    between atoms: C_27  and  N_28 
ROOT
HETATM    1  N   UNL     1      -7.515   3.499 -32.922  1.00  0.00    -0.306 N 
HETATM    2  C   UNL     1      -7.394   3.808 -31.592  1.00  0.00     0.192 A 
HETATM    3  N   UNL     1      -8.434   4.510 -31.207  1.00  0.00    -0.123 NA
HETATM    4  N   UNL     1      -9.282   4.625 -32.275  1.00  0.00    -0.132 NA
HETATM    5  C   UNL     1      -8.764   3.963 -33.291  1.00  0.00     0.157 A 
ENDROOT
BRANCH   2   6
HETATM    6  S   UNL     1      -6.099   3.268 -30.590  1.00  0.00    -0.081 SA
BRANCH   6   7
HETATM    7  C   UNL     1      -4.922   4.641 -30.738  1.00  0.00     0.185 C 
BRANCH   7   8
HETATM    8  C   UNL     1      -3.585   4.169 -31.283  1.00  0.00     0.227 C 
HETATM    9  N   UNL     1      -2.577   5.108 -31.226  1.00  0.00    -0.352 N 
HETATM   10  H   UNL     1      -2.800   6.082 -31.064  1.00  0.00     0.162 HD
HETATM   11  O   UNL     1      -3.376   3.038 -31.719  1.00  0.00    -0.273 OA
BRANCH   9  12
HETATM   12  C   UNL     1      -1.197   4.777 -31.552  1.00  0.00     0.225 C 
BRANCH  12  13
HETATM   13  C   UNL     1      -0.209   5.122 -30.430  1.00  0.00     0.239 C 
HETATM   14  N   UNL     1      -0.670   6.137 -29.610  1.00  0.00    -0.326 N 
HETATM   15  H   UNL     1      -1.621   6.458 -29.804  1.00  0.00     0.169 HD
HETATM   16  O   UNL     1       0.869   4.542 -30.340  1.00  0.00    -0.271 OA
BRANCH  14  17
HETATM   17  C   UNL     1      -0.009   6.749 -28.532  1.00  0.00     0.035 A 
HETATM   18  C   UNL     1      -0.119   6.321 -27.206  1.00  0.00     0.032 A 
HETATM   19  C   UNL     1       0.583   6.978 -26.192  1.00  0.00     0.044 A 
HETATM   20  C   UNL     1       1.387   8.065 -26.507  1.00  0.00     0.116 A 
HETATM   21  F   UNL     1       2.049   8.704 -25.533  1.00  0.00    -0.206 F 
HETATM   22  C   UNL     1       1.513   8.503 -27.818  1.00  0.00     0.044 A 
HETATM   23  C   UNL     1       0.818   7.841 -28.832  1.00  0.00     0.032 A 
ENDBRANCH  14  17
ENDBRANCH  12  13
ENDBRANCH   9  12
ENDBRANCH   7   8
ENDBRANCH   6   7
ENDBRANCH   2   6
BRANCH   1  24
HETATM   24  C   UNL     1      -6.500   2.922 -33.792  1.00  0.00     0.171 C 
BRANCH  24  25
HETATM   25  C   UNL     1      -6.647   1.431 -33.948  1.00  0.00    -0.040 A 
HETATM   26  C   UNL     1      -6.352   0.567 -32.881  1.00  0.00     0.009 A 
HETATM   27  C   UNL     1      -6.534  -0.811 -33.011  1.00  0.00     0.001 A 
HETATM   28  C   UNL     1      -7.027  -1.340 -34.202  1.00  0.00     0.000 A 
HETATM   29  C   UNL     1      -7.339  -0.495 -35.262  1.00  0.00     0.001 A 
HETATM   30  C   UNL     1      -7.149   0.882 -35.138  1.00  0.00     0.009 A 
ENDBRANCH  24  25
ENDBRANCH   1  24
BRANCH   5  31
HETATM   31  C   UNL     1      -9.430   3.717 -34.601  1.00  0.00     0.315 C 
BRANCH  31  32
HETATM   32  N   UNL     1     -10.351   2.500 -34.633  1.00  0.00    -0.064 N 
HETATM   33  H   UNL     1      -9.993   1.904 -35.393  1.00  0.00     0.280 HD
HETATM   34  C   UNL     1     -10.284   1.738 -33.332  1.00  0.00     0.235 C 
HETATM   35  C   UNL     1     -11.099   0.457 -33.427  1.00  0.00     0.028 C 
HETATM   36  C   UNL     1     -12.538   0.731 -33.844  1.00  0.00     0.003 C 
HETATM   37  C   UNL     1     -12.587   1.549 -35.128  1.00  0.00     0.028 C 
HETATM   38  C   UNL     1     -11.782   2.839 -35.004  1.00  0.00     0.235 C 
ENDBRANCH  31  32
ENDBRANCH   5  31
TORSDOF 10
ENDMDL
MODEL 7
REMARK VINA RESULT:      -8.4      4.317      9.122
REMARK  10 active torsions:
REMARK  status: ('A' for Active; 'I' for Inactive)
REMARK    1  A    between atoms: C_4  and  C_5 
REMARK    2  A    between atoms: C_5  and  N_6 
REMARK    3  A    between atoms: C_7  and  S_8 
REMARK    4  A    between atoms: S_8  and  C_9 
REMARK    5  A    between atoms: C_9  and  C_10 
REMARK       I    between atoms: C_10  and  N_11 
REMARK    6  A    between atoms: N_11  and  C_12 
REMARK    7  A    between atoms: C_12  and  C_13 
REMARK       I    between atoms: C_13  and  N_14 
REMARK    8  A    between atoms: N_14  and  C_15 
REMARK    9  A    between atoms: C_26  and  C_27 
REMARK   10  A    between atoms: C_27  and  N_28 
ROOT
HETATM    1  N   UNL     1      -5.998   1.629 -32.062  1.00  0.00    -0.306 N 
HETATM    2  C   UNL     1      -5.029   2.168 -31.256  1.00  0.00     0.192 A 
HETATM    3  N   UNL     1      -5.545   2.464 -30.086  1.00  0.00    -0.123 NA
HETATM    4  N   UNL     1      -6.855   2.070 -30.092  1.00  0.00    -0.132 NA
HETATM    5  C   UNL     1      -7.115   1.508 -31.255  1.00  0.00     0.157 A 
ENDROOT
BRANCH   2   6
HETATM    6  S   UNL     1      -3.377   2.339 -31.717  1.00  0.00    -0.081 SA
BRANCH   6   7
HETATM    7  C   UNL     1      -3.395   3.943 -32.566  1.00  0.00     0.185 C 
BRANCH   7   8
HETATM    8  C   UNL     1      -4.259   4.951 -31.827  1.00  0.00     0.227 C 
HETATM    9  N   UNL     1      -3.756   5.355 -30.610  1.00  0.00    -0.352 N 
HETATM   10  H   UNL     1      -3.012   4.830 -30.168  1.00  0.00     0.162 HD
HETATM   11  O   UNL     1      -5.312   5.411 -32.265  1.00  0.00    -0.273 OA
BRANCH   9  12
HETATM   12  C   UNL     1      -4.367   6.434 -29.844  1.00  0.00     0.225 C 
BRANCH  12  13
HETATM   13  C   UNL     1      -3.388   7.129 -28.889  1.00  0.00     0.239 C 
HETATM   14  N   UNL     1      -2.094   6.656 -29.017  1.00  0.00    -0.326 N 
HETATM   15  H   UNL     1      -1.947   5.982 -29.772  1.00  0.00     0.169 HD
HETATM   16  O   UNL     1      -3.779   7.984 -28.100  1.00  0.00    -0.271 OA
BRANCH  14  17
HETATM   17  C   UNL     1      -0.961   7.013 -28.266  1.00  0.00     0.035 A 
HETATM   18  C   UNL     1      -0.741   6.604 -26.947  1.00  0.00     0.032 A 
HETATM   19  C   UNL     1       0.421   6.993 -26.274  1.00  0.00     0.044 A 
HETATM   20  C   UNL     1       1.354   7.794 -26.919  1.00  0.00     0.116 A 
HETATM   21  F   UNL     1       2.460   8.178 -26.270  1.00  0.00    -0.206 F 
HETATM   22  C   UNL     1       1.155   8.206 -28.230  1.00  0.00     0.044 A 
HETATM   23  C   UNL     1      -0.001   7.811 -28.905  1.00  0.00     0.032 A 
ENDBRANCH  14  17
ENDBRANCH  12  13
ENDBRANCH   9  12
ENDBRANCH   7   8
ENDBRANCH   6   7
ENDBRANCH   2   6
BRANCH   1  24
HETATM   24  C   UNL     1      -5.913   1.360 -33.489  1.00  0.00     0.171 C 
BRANCH  24  25
HETATM   25  C   UNL     1      -5.767  -0.108 -33.798  1.00  0.00    -0.040 A 
HETATM   26  C   UNL     1      -6.755  -0.787 -34.529  1.00  0.00     0.009 A 
HETATM   27  C   UNL     1      -6.597  -2.135 -34.856  1.00  0.00     0.001 A 
HETATM   28  C   UNL     1      -5.444  -2.815 -34.470  1.00  0.00     0.000 A 
HETATM   29  C   UNL     1      -4.450  -2.151 -33.759  1.00  0.00     0.001 A 
HETATM   30  C   UNL     1      -4.610  -0.807 -33.423  1.00  0.00     0.009 A 
ENDBRANCH  24  25
ENDBRANCH   1  24
BRANCH   5  31
HETATM   31  C   UNL     1      -8.383   0.818 -31.626  1.00  0.00     0.315 C 
BRANCH  31  32
HETATM   32  N   UNL     1      -9.258   1.576 -32.621  1.00  0.00    -0.064 N 
HETATM   33  H   UNL     1      -8.621   1.880 -33.371  1.00  0.00     0.280 HD
HETATM   34  C   UNL     1     -10.316   0.672 -33.207  1.00  0.00     0.235 C 
HETATM   35  C   UNL     1     -11.091   1.401 -34.294  1.00  0.00     0.028 C 
HETATM   36  C   UNL     1     -11.686   2.708 -33.787  1.00  0.00     0.003 C 
HETATM   37  C   UNL     1     -10.615   3.583 -33.148  1.00  0.00     0.028 C 
HETATM   38  C   UNL     1      -9.865   2.840 -32.046  1.00  0.00     0.235 C 
ENDBRANCH  31  32
ENDBRANCH   5  31
TORSDOF 10
ENDMDL
MODEL 8
REMARK VINA RESULT:      -8.4      4.305      9.244
REMARK  10 active torsions:
REMARK  status: ('A' for Active; 'I' for Inactive)
REMARK    1  A    between atoms: C_4  and  C_5 
REMARK    2  A    between atoms: C_5  and  N_6 
REMARK    3  A    between atoms: C_7  and  S_8 
REMARK    4  A    between atoms: S_8  and  C_9 
REMARK    5  A    between atoms: C_9  and  C_10 
REMARK       I    between atoms: C_10  and  N_11 
REMARK    6  A    between atoms: N_11  and  C_12 
REMARK    7  A    between atoms: C_12  and  C_13 
REMARK       I    between atoms: C_13  and  N_14 
REMARK    8  A    between atoms: N_14  and  C_15 
REMARK    9  A    between atoms: C_26  and  C_27 
REMARK   10  A    between atoms: C_27  and  N_28 
ROOT
HETATM    1  N   UNL     1      -5.500   0.793 -31.847  1.00  0.00    -0.306 N 
HETATM    2  C   UNL     1      -4.656   1.761 -31.366  1.00  0.00     0.192 A 
HETATM    3  N   UNL     1      -3.481   1.643 -31.937  1.00  0.00    -0.123 NA
HETATM    4  N   UNL     1      -3.555   0.623 -32.845  1.00  0.00    -0.132 NA
HETATM    5  C   UNL     1      -4.787   0.151 -32.842  1.00  0.00     0.157 A 
ENDROOT
BRANCH   2   6
HETATM    6  S   UNL     1      -5.129   2.981 -30.243  1.00  0.00    -0.081 SA
BRANCH   6   7
HETATM    7  C   UNL     1      -5.225   4.446 -31.310  1.00  0.00     0.185 C 
BRANCH   7   8
HETATM    8  C   UNL     1      -3.940   5.254 -31.259  1.00  0.00     0.227 C 
HETATM    9  N   UNL     1      -2.826   4.590 -31.725  1.00  0.00    -0.352 N 
HETATM   10  H   UNL     1      -2.847   3.586 -31.848  1.00  0.00     0.162 HD
HETATM   11  O   UNL     1      -3.870   6.418 -30.868  1.00  0.00    -0.273 OA
BRANCH   9  12
HETATM   12  C   UNL     1      -1.546   5.264 -31.902  1.00  0.00     0.225 C 
BRANCH  12  13
HETATM   13  C   UNL     1      -0.697   5.296 -30.624  1.00  0.00     0.239 C 
HETATM   14  N   UNL     1      -0.827   6.485 -29.929  1.00  0.00    -0.326 N 
HETATM   15  H   UNL     1      -1.520   7.138 -30.304  1.00  0.00     0.169 HD
HETATM   16  O   UNL     1       0.021   4.348 -30.322  1.00  0.00    -0.271 OA
BRANCH  14  17
HETATM   17  C   UNL     1      -0.156   6.887 -28.762  1.00  0.00     0.035 A 
HETATM   18  C   UNL     1      -0.370   6.316 -27.504  1.00  0.00     0.032 A 
HETATM   19  C   UNL     1       0.350   6.766 -26.394  1.00  0.00     0.044 A 
HETATM   20  C   UNL     1       1.277   7.788 -26.544  1.00  0.00     0.116 A 
HETATM   21  F   UNL     1       1.957   8.228 -25.478  1.00  0.00    -0.206 F 
HETATM   22  C   UNL     1       1.507   8.365 -27.786  1.00  0.00     0.044 A 
HETATM   23  C   UNL     1       0.794   7.911 -28.896  1.00  0.00     0.032 A 
ENDBRANCH  14  17
ENDBRANCH  12  13
ENDBRANCH   9  12
ENDBRANCH   7   8
ENDBRANCH   6   7
ENDBRANCH   2   6
BRANCH   1  24
HETATM   24  C   UNL     1      -6.815   0.433 -31.337  1.00  0.00     0.171 C 
BRANCH  24  25
HETATM   25  C   UNL     1      -7.934   0.892 -32.237  1.00  0.00    -0.040 A 
HETATM   26  C   UNL     1      -7.825   2.090 -32.960  1.00  0.00     0.009 A 
HETATM   27  C   UNL     1      -8.841   2.489 -33.830  1.00  0.00     0.001 A 
HETATM   28  C   UNL     1      -9.969   1.690 -34.000  1.00  0.00     0.000 A 
HETATM   29  C   UNL     1     -10.083   0.492 -33.301  1.00  0.00     0.001 A 
HETATM   30  C   UNL     1      -9.074   0.095 -32.424  1.00  0.00     0.009 A 
ENDBRANCH  24  25
ENDBRANCH   1  24
BRANCH   5  31
HETATM   31  C   UNL     1      -5.332  -0.870 -33.780  1.00  0.00     0.315 C 
BRANCH  31  32
HETATM   32  N   UNL     1      -4.933  -2.309 -33.464  1.00  0.00    -0.064 N 
HETATM   33  H   UNL     1      -5.647  -2.655 -32.808  1.00  0.00     0.280 HD
HETATM   34  C   UNL     1      -4.951  -3.161 -34.710  1.00  0.00     0.235 C 
HETATM   35  C   UNL     1      -4.686  -4.617 -34.360  1.00  0.00     0.028 C 
HETATM   36  C   UNL     1      -3.386  -4.785 -33.583  1.00  0.00     0.003 C 
HETATM   37  C   UNL     1      -3.361  -3.877 -32.360  1.00  0.00     0.028 C 
HETATM   38  C   UNL     1      -3.607  -2.420 -32.736  1.00  0.00     0.235 C 
ENDBRANCH  31  32
ENDBRANCH   5  31
TORSDOF 10
ENDMDL
MODEL 9
REMARK VINA RESULT:      -8.3      3.065      7.460
REMARK  10 active torsions:
REMARK  status: ('A' for Active; 'I' for Inactive)
REMARK    1  A    between atoms: C_4  and  C_5 
REMARK    2  A    between atoms: C_5  and  N_6 
REMARK    3  A    between atoms: C_7  and  S_8 
REMARK    4  A    between atoms: S_8  and  C_9 
REMARK    5  A    between atoms: C_9  and  C_10 
REMARK       I    between atoms: C_10  and  N_11 
REMARK    6  A    between atoms: N_11  and  C_12 
REMARK    7  A    between atoms: C_12  and  C_13 
REMARK       I    between atoms: C_13  and  N_14 
REMARK    8  A    between atoms: N_14  and  C_15 
REMARK    9  A    between atoms: C_26  and  C_27 
REMARK   10  A    between atoms: C_27  and  N_28 
ROOT
HETATM    1  N   UNL     1      -9.392   2.821 -33.223  1.00  0.00    -0.306 N 
HETATM    2  C   UNL     1      -8.928   4.111 -33.207  1.00  0.00     0.192 A 
HETATM    3  N   UNL     1      -9.504   4.797 -34.166  1.00  0.00    -0.123 NA
HETATM    4  N   UNL     1     -10.398   3.974 -34.793  1.00  0.00    -0.132 NA
HETATM    5  C   UNL     1     -10.382   2.803 -34.188  1.00  0.00     0.157 A 
ENDROOT
BRANCH   2   6
HETATM    6  S   UNL     1      -7.819   4.723 -32.037  1.00  0.00    -0.081 SA
BRANCH   6   7
HETATM    7  C   UNL     1      -7.028   6.075 -32.951  1.00  0.00     0.185 C 
BRANCH   7   8
HETATM    8  C   UNL     1      -5.513   5.992 -32.864  1.00  0.00     0.227 C 
HETATM    9  N   UNL     1      -5.015   5.934 -31.580  1.00  0.00    -0.352 N 
HETATM   10  H   UNL     1      -5.605   6.177 -30.795  1.00  0.00     0.162 HD
HETATM   11  O   UNL     1      -4.766   5.948 -33.839  1.00  0.00    -0.273 OA
BRANCH   9  12
HETATM   12  C   UNL     1      -3.604   5.688 -31.312  1.00  0.00     0.225 C 
BRANCH  12  13
HETATM   13  C   UNL     1      -3.205   4.215 -31.471  1.00  0.00     0.239 C 
HETATM   14  N   UNL     1      -4.294   3.391 -31.694  1.00  0.00    -0.326 N 
HETATM   15  H   UNL     1      -5.190   3.870 -31.806  1.00  0.00     0.169 HD
HETATM   16  O   UNL     1      -2.033   3.866 -31.371  1.00  0.00    -0.271 OA
BRANCH  14  17
HETATM   17  C   UNL     1      -4.312   1.992 -31.820  1.00  0.00     0.035 A 
HETATM   18  C   UNL     1      -3.502   1.279 -32.709  1.00  0.00     0.032 A 
HETATM   19  C   UNL     1      -3.572  -0.116 -32.764  1.00  0.00     0.044 A 
HETATM   20  C   UNL     1      -4.456  -0.792 -31.934  1.00  0.00     0.116 A 
HETATM   21  F   UNL     1      -4.533  -2.128 -31.996  1.00  0.00    -0.206 F 
HETATM   22  C   UNL     1      -5.266  -0.103 -31.041  1.00  0.00     0.044 A 
HETATM   23  C   UNL     1      -5.190   1.290 -30.981  1.00  0.00     0.032 A 
ENDBRANCH  14  17
ENDBRANCH  12  13
ENDBRANCH   9  12
ENDBRANCH   7   8
ENDBRANCH   6   7
ENDBRANCH   2   6
BRANCH   1  24
HETATM   24  C   UNL     1      -8.870   1.684 -32.478  1.00  0.00     0.171 C 
BRANCH  24  25
HETATM   25  C   UNL     1      -8.097   0.725 -33.346  1.00  0.00    -0.040 A 
HETATM   26  C   UNL     1      -7.187   1.201 -34.304  1.00  0.00     0.009 A 
HETATM   27  C   UNL     1      -6.436   0.311 -35.073  1.00  0.00     0.001 A 
HETATM   28  C   UNL     1      -6.573  -1.062 -34.885  1.00  0.00     0.000 A 
HETATM   29  C   UNL     1      -7.459  -1.548 -33.929  1.00  0.00     0.001 A 
HETATM   30  C   UNL     1      -8.217  -0.661 -33.165  1.00  0.00     0.009 A 
ENDBRANCH  24  25
ENDBRANCH   1  24
BRANCH   5  31
HETATM   31  C   UNL     1     -11.304   1.665 -34.464  1.00  0.00     0.315 C 
BRANCH  31  32
HETATM   32  N   UNL     1     -12.771   1.937 -34.145  1.00  0.00    -0.064 N 
HETATM   33  H   UNL     1     -13.093   2.596 -34.868  1.00  0.00     0.280 HD
HETATM   34  C   UNL     1     -13.586   0.669 -34.233  1.00  0.00     0.235 C 
HETATM   35  C   UNL     1     -15.065   0.977 -34.047  1.00  0.00     0.028 C 
HETATM   36  C   UNL     1     -15.328   1.726 -32.747  1.00  0.00     0.003 C 
HETATM   37  C   UNL     1     -14.456   2.971 -32.648  1.00  0.00     0.028 C 
HETATM   38  C   UNL     1     -12.977   2.637 -32.816  1.00  0.00     0.235 C 
ENDBRANCH  31  32
ENDBRANCH   5  31
TORSDOF 10
ENDMDL
MODEL 10
REMARK VINA RESULT:      -8.3      4.623      6.885
REMARK  10 active torsions:
REMARK  status: ('A' for Active; 'I' for Inactive)
REMARK    1  A    between atoms: C_4  and  C_5 
REMARK    2  A    between atoms: C_5  and  N_6 
REMARK    3  A    between atoms: C_7  and  S_8 
REMARK    4  A    between atoms: S_8  and  C_9 
REMARK    5  A    between atoms: C_9  and  C_10 
REMARK       I    between atoms: C_10  and  N_11 
REMARK    6  A    between atoms: N_11  and  C_12 
REMARK    7  A    between atoms: C_12  and  C_13 
REMARK       I    between atoms: C_13  and  N_14 
REMARK    8  A    between atoms: N_14  and  C_15 
REMARK    9  A    between atoms: C_26  and  C_27 
REMARK   10  A    between atoms: C_27  and  N_28 
ROOT
HETATM    1  N   UNL     1      -6.103   3.380 -32.883  1.00  0.00    -0.306 N 
HETATM    2  C   UNL     1      -6.994   3.418 -31.842  1.00  0.00     0.192 A 
HETATM    3  N   UNL     1      -6.378   3.801 -30.750  1.00  0.00    -0.123 NA
HETATM    4  N   UNL     1      -5.077   4.074 -31.074  1.00  0.00    -0.132 NA
HETATM    5  C   UNL     1      -4.923   3.884 -32.369  1.00  0.00     0.157 A 
ENDROOT
BRANCH   2   6
HETATM    6  S   UNL     1      -8.679   3.084 -32.003  1.00  0.00    -0.081 SA
BRANCH   6   7
HETATM    7  C   UNL     1      -8.743   1.315 -31.602  1.00  0.00     0.185 C 
BRANCH   7   8
HETATM    8  C   UNL     1      -9.826   0.606 -32.397  1.00  0.00     0.227 C 
HETATM    9  N   UNL     1     -10.766   1.443 -32.961  1.00  0.00    -0.352 N 
HETATM   10  H   UNL     1     -10.842   2.403 -32.650  1.00  0.00     0.162 HD
HETATM   11  O   UNL     1      -9.872  -0.611 -32.570  1.00  0.00    -0.273 OA
BRANCH   9  12
HETATM   12  C   UNL     1     -11.777   0.951 -33.887  1.00  0.00     0.225 C 
BRANCH  12  13
HETATM   13  C   UNL     1     -13.020   1.848 -33.959  1.00  0.00     0.239 C 
HETATM   14  N   UNL     1     -13.578   2.085 -32.716  1.00  0.00    -0.326 N 
HETATM   15  H   UNL     1     -13.052   1.710 -31.922  1.00  0.00     0.169 HD
HETATM   16  O   UNL     1     -13.440   2.255 -35.038  1.00  0.00    -0.271 OA
BRANCH  14  17
HETATM   17  C   UNL     1     -14.747   2.801 -32.411  1.00  0.00     0.035 A 
HETATM   18  C   UNL     1     -14.781   4.181 -32.192  1.00  0.00     0.032 A 
HETATM   19  C   UNL     1     -15.990   4.820 -31.906  1.00  0.00     0.044 A 
HETATM   20  C   UNL     1     -17.160   4.076 -31.833  1.00  0.00     0.116 A 
HETATM   21  F   UNL     1     -18.317   4.687 -31.546  1.00  0.00    -0.206 F 
HETATM   22  C   UNL     1     -17.148   2.705 -32.052  1.00  0.00     0.044 A 
HETATM   23  C   UNL     1     -15.942   2.068 -32.346  1.00  0.00     0.032 A 
ENDBRANCH  14  17
ENDBRANCH  12  13
ENDBRANCH   9  12
ENDBRANCH   7   8
ENDBRANCH   6   7
ENDBRANCH   2   6
BRANCH   1  24
HETATM   24  C   UNL     1      -6.313   2.813 -34.207  1.00  0.00     0.171 C 
BRANCH  24  25
HETATM   25  C   UNL     1      -6.436   1.312 -34.185  1.00  0.00    -0.040 A 
HETATM   26  C   UNL     1      -7.319   0.653 -35.055  1.00  0.00     0.009 A 
HETATM   27  C   UNL     1      -7.397  -0.741 -35.068  1.00  0.00     0.001 A 
HETATM   28  C   UNL     1      -6.583  -1.493 -34.223  1.00  0.00     0.000 A 
HETATM   29  C   UNL     1      -5.691  -0.854 -33.367  1.00  0.00     0.001 A 
HETATM   30  C   UNL     1      -5.618   0.539 -33.346  1.00  0.00     0.009 A 
ENDBRANCH  24  25
ENDBRANCH   1  24
BRANCH   5  31
HETATM   31  C   UNL     1      -3.698   4.202 -33.157  1.00  0.00     0.315 C 
BRANCH  31  32
HETATM   32  N   UNL     1      -2.840   5.326 -32.581  1.00  0.00    -0.064 N 
HETATM   33  H   UNL     1      -3.408   5.752 -31.836  1.00  0.00     0.280 HD
HETATM   34  C   UNL     1      -1.567   4.779 -31.981  1.00  0.00     0.235 C 
HETATM   35  C   UNL     1      -0.788   5.889 -31.292  1.00  0.00     0.028 C 
HETATM   36  C   UNL     1      -0.510   7.054 -32.233  1.00  0.00     0.003 C 
HETATM   37  C   UNL     1      -1.798   7.557 -32.873  1.00  0.00     0.028 C 
HETATM   38  C   UNL     1      -2.552   6.433 -33.577  1.00  0.00     0.235 C 
ENDBRANCH  31  32
ENDBRANCH   5  31
TORSDOF 10
ENDMDL
