MODEL 1
REMARK VINA RESULT:      -9.0      0.000      0.000
REMARK  7 active torsions:
REMARK  status: ('A' for Active; 'I' for Inactive)
REMARK    1  A    between atoms: C_3  and  N_4 
REMARK    2  A    between atoms: N_7  and  C_9 
REMARK    3  A    between atoms: N_12  and  C_13 
REMARK    4  A    between atoms: C_16  and  C_17 
REMARK       I    between atoms: C_17  and  N_18 
REMARK    5  A    between atoms: C_20  and  C_21 
REMARK    6  A    between atoms: C_21  and  O_22 
REMARK    7  A    between atoms: C_33  and  O_34 
ROOT
HETATM    1  C   UNL     1      -7.242   2.014 -33.155  1.00  0.00     0.191 C 
HETATM    2  C   UNL     1      -6.211   2.607 -34.131  1.00  0.00     0.053 C 
HETATM    3  C   UNL     1      -5.577   3.896 -33.613  1.00  0.00     0.125 C 
HETATM    4  N   UNL     1      -5.049   3.646 -32.274  1.00  0.00    -0.381 N 
HETATM    5  C   UNL     1      -6.001   3.195 -31.267  1.00  0.00     0.125 C 
HETATM    6  C   UNL     1      -6.614   1.886 -31.758  1.00  0.00     0.053 C 
ENDROOT
BRANCH   4   7
HETATM    7  C   UNL     1      -3.980   4.457 -31.879  1.00  0.00     0.030 A 
HETATM    8  C   UNL     1      -4.107   5.832 -31.627  1.00  0.00     0.030 A 
HETATM    9  C   UNL     1      -3.017   6.598 -31.190  1.00  0.00     0.019 A 
HETATM   10  C   UNL     1      -1.785   5.985 -30.963  1.00  0.00     0.032 A 
HETATM   11  C   UNL     1      -1.624   4.627 -31.232  1.00  0.00     0.019 A 
HETATM   12  C   UNL     1      -2.715   3.876 -31.680  1.00  0.00     0.030 A 
BRANCH  10  13
HETATM   13  C   UNL     1      -0.603   6.752 -30.514  1.00  0.00     0.253 C 
HETATM   14  N   UNL     1      -0.403   6.992 -29.151  1.00  0.00    -0.348 N 
HETATM   15  C   UNL     1      -1.392   6.703 -28.105  1.00  0.00     0.132 C 
HETATM   16  C   UNL     1       0.666   7.925 -28.794  1.00  0.00     0.126 C 
HETATM   17  C   UNL     1      -0.752   6.371 -26.748  1.00  0.00     0.027 C 
HETATM   18  C   UNL     1       0.274   7.443 -26.360  1.00  0.00     0.010 C 
HETATM   19  C   UNL     1       1.319   7.583 -27.461  1.00  0.00     0.020 C 
HETATM   20  O   UNL     1       0.178   7.114 -31.394  1.00  0.00    -0.267 OA
BRANCH  17  21
HETATM   21  C   UNL     1      -1.822   6.189 -25.669  1.00  0.00     0.170 C 
BRANCH  21  22
HETATM   22  O   UNL     1      -1.909   4.837 -25.240  1.00  0.00    -0.400 OA
HETATM   23  H   UNL     1      -2.854   4.605 -25.191  1.00  0.00     0.209 HD
ENDBRANCH  21  22
ENDBRANCH  17  21
ENDBRANCH  10  13
ENDBRANCH   4   7
BRANCH   1  24
HETATM   24  N   UNL     1      -8.559   2.825 -33.153  1.00  0.00    -0.064 N 
HETATM   25  C   UNL     1      -9.386   2.569 -34.438  1.00  0.00     0.255 C 
HETATM   26  C   UNL     1     -10.668   3.423 -34.456  1.00  0.00     0.150 C 
HETATM   27  N   UNL     1     -11.503   3.179 -33.258  1.00  0.00    -0.375 N 
HETATM   28  C   UNL     1     -10.787   3.323 -31.982  1.00  0.00     0.150 C 
HETATM   29  C   UNL     1      -9.457   2.537 -31.934  1.00  0.00     0.255 C 
HETATM   30  H   UNL     1      -8.336   3.829 -33.130  1.00  0.00     0.280 HD
BRANCH  27  31
HETATM   31  C   UNL     1     -12.461   2.162 -33.409  1.00  0.00     0.063 A 
HETATM   32  C   UNL     1     -12.151   0.808 -33.584  1.00  0.00     0.032 A 
HETATM   33  C   UNL     1     -13.159  -0.149 -33.777  1.00  0.00     0.002 A 
HETATM   34  C   UNL     1     -14.500   0.225 -33.783  1.00  0.00     0.003 A 
HETATM   35  C   UNL     1     -14.843   1.554 -33.572  1.00  0.00     0.039 A 
HETATM   36  C   UNL     1     -13.834   2.490 -33.370  1.00  0.00     0.092 A 
BRANCH  36  37
HETATM   37  O   UNL     1     -14.216   3.769 -33.052  1.00  0.00    -0.358 OA
HETATM   38  H   UNL     1     -14.817   3.656 -32.293  1.00  0.00     0.218 HD
ENDBRANCH  36  37
ENDBRANCH  27  31
ENDBRANCH   1  24
TORSDOF 7
ENDMDL
MODEL 2
REMARK VINA RESULT:      -8.8      7.266     11.497
REMARK  7 active torsions:
REMARK  status: ('A' for Active; 'I' for Inactive)
REMARK    1  A    between atoms: C_3  and  N_4 
REMARK    2  A    between atoms: N_7  and  C_9 
REMARK    3  A    between atoms: N_12  and  C_13 
REMARK    4  A    between atoms: C_16  and  C_17 
REMARK       I    between atoms: C_17  and  N_18 
REMARK    5  A    between atoms: C_20  and  C_21 
REMARK    6  A    between atoms: C_21  and  O_22 
REMARK    7  A    between atoms: C_33  and  O_34 
ROOT
HETATM    1  C   UNL     1      -0.045   9.637 -27.381  1.00  0.00     0.191 C 
HETATM    2  C   UNL     1      -0.397  10.032 -25.936  1.00  0.00     0.053 C 
HETATM    3  C   UNL     1       0.360   9.208 -24.896  1.00  0.00     0.125 C 
HETATM    4  N   UNL     1       1.788   9.278 -25.199  1.00  0.00    -0.381 N 
HETATM    5  C   UNL     1       2.203   8.806 -26.513  1.00  0.00     0.125 C 
HETATM    6  C   UNL     1       1.481   9.649 -27.562  1.00  0.00     0.053 C 
ENDROOT
BRANCH   4   7
HETATM    7  C   UNL     1       2.650   9.102 -24.113  1.00  0.00     0.030 A 
HETATM    8  C   UNL     1       2.234   8.594 -22.871  1.00  0.00     0.030 A 
HETATM    9  C   UNL     1       3.142   8.392 -21.823  1.00  0.00     0.019 A 
HETATM   10  C   UNL     1       4.497   8.663 -22.017  1.00  0.00     0.032 A 
HETATM   11  C   UNL     1       4.932   9.194 -23.230  1.00  0.00     0.019 A 
HETATM   12  C   UNL     1       4.015   9.405 -24.263  1.00  0.00     0.030 A 
BRANCH  10  13
HETATM   13  C   UNL     1       5.492   8.479 -20.939  1.00  0.00     0.253 C 
HETATM   14  N   UNL     1       6.368   7.389 -20.977  1.00  0.00    -0.348 N 
HETATM   15  C   UNL     1       6.261   6.272 -21.924  1.00  0.00     0.132 C 
HETATM   16  C   UNL     1       7.181   7.153 -19.784  1.00  0.00     0.126 C 
HETATM   17  C   UNL     1       7.618   5.633 -22.256  1.00  0.00     0.027 C 
HETATM   18  C   UNL     1       8.382   5.292 -20.971  1.00  0.00     0.010 C 
HETATM   19  C   UNL     1       8.538   6.542 -20.114  1.00  0.00     0.020 C 
HETATM   20  O   UNL     1       5.514   9.342 -20.064  1.00  0.00    -0.267 OA
BRANCH  17  21
HETATM   21  C   UNL     1       7.439   4.407 -23.156  1.00  0.00     0.170 C 
BRANCH  21  22
HETATM   22  O   UNL     1       6.066   4.120 -23.383  1.00  0.00    -0.400 OA
HETATM   23  H   UNL     1       5.990   3.736 -24.276  1.00  0.00     0.209 HD
ENDBRANCH  21  22
ENDBRANCH  17  21
ENDBRANCH  10  13
ENDBRANCH   4   7
BRANCH   1  24
HETATM   24  N   UNL     1      -0.690   8.289 -27.778  1.00  0.00    -0.064 N 
HETATM   25  C   UNL     1      -1.883   8.492 -28.746  1.00  0.00     0.255 C 
HETATM   26  C   UNL     1      -2.556   7.151 -29.092  1.00  0.00     0.150 C 
HETATM   27  N   UNL     1      -1.591   6.188 -29.671  1.00  0.00    -0.375 N 
HETATM   28  C   UNL     1      -0.382   5.982 -28.860  1.00  0.00     0.150 C 
HETATM   29  C   UNL     1       0.299   7.302 -28.429  1.00  0.00     0.255 C 
HETATM   30  H   UNL     1      -1.058   7.831 -26.934  1.00  0.00     0.280 HD
BRANCH  27  31
HETATM   31  C   UNL     1      -1.491   6.230 -31.071  1.00  0.00     0.063 A 
HETATM   32  C   UNL     1      -1.161   7.376 -31.804  1.00  0.00     0.032 A 
HETATM   33  C   UNL     1      -1.127   7.357 -33.207  1.00  0.00     0.002 A 
HETATM   34  C   UNL     1      -1.408   6.187 -33.907  1.00  0.00     0.003 A 
HETATM   35  C   UNL     1      -1.701   5.022 -33.209  1.00  0.00     0.039 A 
HETATM   36  C   UNL     1      -1.719   5.053 -31.818  1.00  0.00     0.092 A 
BRANCH  36  37
HETATM   37  O   UNL     1      -1.899   3.860 -31.165  1.00  0.00    -0.358 OA
HETATM   38  H   UNL     1      -1.298   3.244 -31.623  1.00  0.00     0.218 HD
ENDBRANCH  36  37
ENDBRANCH  27  31
ENDBRANCH   1  24
TORSDOF 7
ENDMDL
MODEL 3
REMARK VINA RESULT:      -8.6      4.214      6.282
REMARK  7 active torsions:
REMARK  status: ('A' for Active; 'I' for Inactive)
REMARK    1  A    between atoms: C_3  and  N_4 
REMARK    2  A    between atoms: N_7  and  C_9 
REMARK    3  A    between atoms: N_12  and  C_13 
REMARK    4  A    between atoms: C_16  and  C_17 
REMARK       I    between atoms: C_17  and  N_18 
REMARK    5  A    between atoms: C_20  and  C_21 
REMARK    6  A    between atoms: C_21  and  O_22 
REMARK    7  A    between atoms: C_33  and  O_34 
ROOT
HETATM    1  C   UNL     1      -2.868   5.319 -31.878  1.00  0.00     0.191 C 
HETATM    2  C   UNL     1      -3.274   6.582 -31.098  1.00  0.00     0.053 C 
HETATM    3  C   UNL     1      -2.670   6.633 -29.697  1.00  0.00     0.125 C 
HETATM    4  N   UNL     1      -1.225   6.443 -29.808  1.00  0.00    -0.381 N 
HETATM    5  C   UNL     1      -0.772   5.207 -30.432  1.00  0.00     0.125 C 
HETATM    6  C   UNL     1      -1.339   5.164 -31.849  1.00  0.00     0.053 C 
ENDROOT
BRANCH   4   7
HETATM    7  C   UNL     1      -0.457   7.006 -28.785  1.00  0.00     0.030 A 
HETATM    8  C   UNL     1       0.628   7.866 -29.017  1.00  0.00     0.030 A 
HETATM    9  C   UNL     1       1.343   8.443 -27.959  1.00  0.00     0.019 A 
HETATM   10  C   UNL     1       0.956   8.194 -26.642  1.00  0.00     0.032 A 
HETATM   11  C   UNL     1      -0.099   7.321 -26.382  1.00  0.00     0.019 A 
HETATM   12  C   UNL     1      -0.796   6.741 -27.446  1.00  0.00     0.030 A 
BRANCH  10  13
HETATM   13  C   UNL     1       1.685   8.768 -25.491  1.00  0.00     0.253 C 
HETATM   14  N   UNL     1       1.065   9.721 -24.677  1.00  0.00    -0.348 N 
HETATM   15  C   UNL     1      -0.220  10.363 -24.984  1.00  0.00     0.132 C 
HETATM   16  C   UNL     1       1.908  10.395 -23.689  1.00  0.00     0.126 C 
HETATM   17  C   UNL     1      -1.002  10.771 -23.726  1.00  0.00     0.027 C 
HETATM   18  C   UNL     1      -0.111  11.579 -22.776  1.00  0.00     0.010 C 
HETATM   19  C   UNL     1       1.140  10.778 -22.431  1.00  0.00     0.020 C 
HETATM   20  O   UNL     1       2.818   8.332 -25.292  1.00  0.00    -0.267 OA
BRANCH  17  21
HETATM   21  C   UNL     1      -2.276  11.533 -24.099  1.00  0.00     0.170 C 
BRANCH  21  22
HETATM   22  O   UNL     1      -3.419  10.688 -24.074  1.00  0.00    -0.400 OA
HETATM   23  H   UNL     1      -3.734  10.647 -23.153  1.00  0.00     0.209 HD
ENDBRANCH  21  22
ENDBRANCH  17  21
ENDBRANCH  10  13
ENDBRANCH   4   7
BRANCH   1  24
HETATM   24  N   UNL     1      -3.613   4.066 -31.362  1.00  0.00    -0.064 N 
HETATM   25  C   UNL     1      -5.115   4.103 -31.737  1.00  0.00     0.255 C 
HETATM   26  C   UNL     1      -5.862   2.880 -31.171  1.00  0.00     0.150 C 
HETATM   27  N   UNL     1      -5.256   1.609 -31.630  1.00  0.00    -0.375 N 
HETATM   28  C   UNL     1      -3.810   1.507 -31.388  1.00  0.00     0.150 C 
HETATM   29  C   UNL     1      -3.018   2.741 -31.879  1.00  0.00     0.255 C 
HETATM   30  H   UNL     1      -3.555   4.039 -30.336  1.00  0.00     0.280 HD
BRANCH  27  31
HETATM   31  C   UNL     1      -5.802   1.096 -32.818  1.00  0.00     0.063 A 
HETATM   32  C   UNL     1      -6.277   1.886 -33.872  1.00  0.00     0.032 A 
HETATM   33  C   UNL     1      -6.855   1.306 -35.012  1.00  0.00     0.002 A 
HETATM   34  C   UNL     1      -6.956  -0.078 -35.129  1.00  0.00     0.003 A 
HETATM   35  C   UNL     1      -6.457  -0.891 -34.119  1.00  0.00     0.039 A 
HETATM   36  C   UNL     1      -5.877  -0.302 -33.001  1.00  0.00     0.092 A 
BRANCH  36  37
HETATM   37  O   UNL     1      -5.294  -1.137 -32.081  1.00  0.00    -0.358 OA
HETATM   38  H   UNL     1      -5.606  -2.025 -32.335  1.00  0.00     0.218 HD
ENDBRANCH  36  37
ENDBRANCH  27  31
ENDBRANCH   1  24
TORSDOF 7
ENDMDL
MODEL 4
REMARK VINA RESULT:      -8.6      2.106     11.683
REMARK  7 active torsions:
REMARK  status: ('A' for Active; 'I' for Inactive)
REMARK    1  A    between atoms: C_3  and  N_4 
REMARK    2  A    between atoms: N_7  and  C_9 
REMARK    3  A    between atoms: N_12  and  C_13 
REMARK    4  A    between atoms: C_16  and  C_17 
REMARK       I    between atoms: C_17  and  N_18 
REMARK    5  A    between atoms: C_20  and  C_21 
REMARK    6  A    between atoms: C_21  and  O_22 
REMARK    7  A    between atoms: C_33  and  O_34 
ROOT
HETATM    1  C   UNL     1      -2.816   5.116 -33.401  1.00  0.00     0.191 C 
HETATM    2  C   UNL     1      -2.971   3.792 -32.633  1.00  0.00     0.053 C 
HETATM    3  C   UNL     1      -4.420   3.492 -32.255  1.00  0.00     0.125 C 
HETATM    4  N   UNL     1      -5.240   3.576 -33.462  1.00  0.00    -0.381 N 
HETATM    5  C   UNL     1      -5.230   4.848 -34.174  1.00  0.00     0.125 C 
HETATM    6  C   UNL     1      -3.790   5.140 -34.589  1.00  0.00     0.053 C 
ENDROOT
BRANCH   4   7
HETATM    7  C   UNL     1      -6.410   2.812 -33.458  1.00  0.00     0.030 A 
HETATM    8  C   UNL     1      -6.728   1.881 -34.459  1.00  0.00     0.030 A 
HETATM    9  C   UNL     1      -7.892   1.103 -34.391  1.00  0.00     0.019 A 
HETATM   10  C   UNL     1      -8.743   1.222 -33.292  1.00  0.00     0.032 A 
HETATM   11  C   UNL     1      -8.466   2.159 -32.298  1.00  0.00     0.019 A 
HETATM   12  C   UNL     1      -7.309   2.939 -32.384  1.00  0.00     0.030 A 
BRANCH  10  13
HETATM   13  C   UNL     1      -9.989   0.435 -33.181  1.00  0.00     0.253 C 
HETATM   14  N   UNL     1     -11.190   0.954 -33.675  1.00  0.00    -0.348 N 
HETATM   15  C   UNL     1     -11.365   2.335 -34.142  1.00  0.00     0.132 C 
HETATM   16  C   UNL     1     -12.412   0.219 -33.350  1.00  0.00     0.126 C 
HETATM   17  C   UNL     1     -12.439   2.468 -35.234  1.00  0.00     0.027 C 
HETATM   18  C   UNL     1     -13.740   1.787 -34.795  1.00  0.00     0.010 C 
HETATM   19  C   UNL     1     -13.469   0.329 -34.442  1.00  0.00     0.020 C 
HETATM   20  O   UNL     1      -9.885  -0.681 -32.674  1.00  0.00    -0.267 OA
BRANCH  17  21
HETATM   21  C   UNL     1     -12.661   3.937 -35.604  1.00  0.00     0.170 C 
BRANCH  21  22
HETATM   22  O   UNL     1     -13.508   4.592 -34.669  1.00  0.00    -0.400 OA
HETATM   23  H   UNL     1     -12.937   5.004 -33.995  1.00  0.00     0.209 HD
ENDBRANCH  21  22
ENDBRANCH  17  21
ENDBRANCH  10  13
ENDBRANCH   4   7
BRANCH   1  24
HETATM   24  N   UNL     1      -2.971   6.340 -32.468  1.00  0.00    -0.064 N 
HETATM   25  C   UNL     1      -3.050   5.914 -30.980  1.00  0.00     0.255 C 
HETATM   26  C   UNL     1      -3.262   7.131 -30.061  1.00  0.00     0.150 C 
HETATM   27  N   UNL     1      -2.198   8.145 -30.243  1.00  0.00    -0.375 N 
HETATM   28  C   UNL     1      -1.992   8.562 -31.638  1.00  0.00     0.150 C 
HETATM   29  C   UNL     1      -1.838   7.374 -32.615  1.00  0.00     0.255 C 
HETATM   30  H   UNL     1      -3.850   6.824 -32.693  1.00  0.00     0.280 HD
BRANCH  27  31
HETATM   31  C   UNL     1      -1.092   7.992 -29.391  1.00  0.00     0.063 A 
HETATM   32  C   UNL     1      -0.217   6.900 -29.425  1.00  0.00     0.032 A 
HETATM   33  C   UNL     1       0.842   6.788 -28.510  1.00  0.00     0.002 A 
HETATM   34  C   UNL     1       1.057   7.775 -27.550  1.00  0.00     0.003 A 
HETATM   35  C   UNL     1       0.230   8.891 -27.516  1.00  0.00     0.039 A 
HETATM   36  C   UNL     1      -0.808   8.993 -28.437  1.00  0.00     0.092 A 
BRANCH  36  37
HETATM   37  O   UNL     1      -1.529  10.161 -28.444  1.00  0.00    -0.358 OA
HETATM   38  H   UNL     1      -2.353   9.929 -28.909  1.00  0.00     0.218 HD
ENDBRANCH  36  37
ENDBRANCH  27  31
ENDBRANCH   1  24
TORSDOF 7
ENDMDL
MODEL 5
REMARK VINA RESULT:      -8.5      4.395      9.666
REMARK  7 active torsions:
REMARK  status: ('A' for Active; 'I' for Inactive)
REMARK    1  A    between atoms: C_3  and  N_4 
REMARK    2  A    between atoms: N_7  and  C_9 
REMARK    3  A    between atoms: N_12  and  C_13 
REMARK    4  A    between atoms: C_16  and  C_17 
REMARK       I    between atoms: C_17  and  N_18 
REMARK    5  A    between atoms: C_20  and  C_21 
REMARK    6  A    between atoms: C_21  and  O_22 
REMARK    7  A    between atoms: C_33  and  O_34 
ROOT
HETATM    1  C   UNL     1      -7.673   5.542 -30.115  1.00  0.00     0.191 C 
HETATM    2  C   UNL     1      -8.300   5.316 -31.502  1.00  0.00     0.053 C 
HETATM    3  C   UNL     1      -7.501   4.338 -32.361  1.00  0.00     0.125 C 
HETATM    4  N   UNL     1      -7.297   3.110 -31.595  1.00  0.00    -0.381 N 
HETATM    5  C   UNL     1      -6.600   3.239 -30.322  1.00  0.00     0.125 C 
HETATM    6  C   UNL     1      -7.410   4.187 -29.440  1.00  0.00     0.053 C 
ENDROOT
BRANCH   4   7
HETATM    7  C   UNL     1      -7.120   1.945 -32.348  1.00  0.00     0.030 A 
HETATM    8  C   UNL     1      -6.579   1.938 -33.644  1.00  0.00     0.030 A 
HETATM    9  C   UNL     1      -6.378   0.742 -34.345  1.00  0.00     0.019 A 
HETATM   10  C   UNL     1      -6.685  -0.478 -33.740  1.00  0.00     0.032 A 
HETATM   11  C   UNL     1      -7.249  -0.498 -32.466  1.00  0.00     0.019 A 
HETATM   12  C   UNL     1      -7.458   0.703 -31.781  1.00  0.00     0.030 A 
BRANCH  10  13
HETATM   13  C   UNL     1      -6.504  -1.765 -34.443  1.00  0.00     0.253 C 
HETATM   14  N   UNL     1      -5.428  -2.596 -34.111  1.00  0.00    -0.348 N 
HETATM   15  C   UNL     1      -4.319  -2.205 -33.231  1.00  0.00     0.132 C 
HETATM   16  C   UNL     1      -5.190  -3.748 -34.980  1.00  0.00     0.126 C 
HETATM   17  C   UNL     1      -3.705  -3.393 -32.475  1.00  0.00     0.027 C 
HETATM   18  C   UNL     1      -3.362  -4.529 -33.446  1.00  0.00     0.010 C 
HETATM   19  C   UNL     1      -4.604  -4.937 -34.228  1.00  0.00     0.020 C 
HETATM   20  O   UNL     1      -7.357  -2.055 -35.279  1.00  0.00    -0.267 OA
BRANCH  17  21
HETATM   21  C   UNL     1      -2.487  -2.950 -31.660  1.00  0.00     0.170 C 
BRANCH  21  22
HETATM   22  O   UNL     1      -2.342  -1.536 -31.660  1.00  0.00    -0.400 OA
HETATM   23  H   UNL     1      -2.367  -1.238 -32.587  1.00  0.00     0.209 HD
ENDBRANCH  21  22
ENDBRANCH  17  21
ENDBRANCH  10  13
ENDBRANCH   4   7
BRANCH   1  24
HETATM   24  N   UNL     1      -6.409   6.431 -30.197  1.00  0.00    -0.064 N 
HETATM   25  C   UNL     1      -5.116   5.597 -30.022  1.00  0.00     0.255 C 
HETATM   26  C   UNL     1      -3.865   6.495 -30.048  1.00  0.00     0.150 C 
HETATM   27  N   UNL     1      -3.790   7.292 -31.293  1.00  0.00    -0.375 N 
HETATM   28  C   UNL     1      -5.005   8.065 -31.590  1.00  0.00     0.150 C 
HETATM   29  C   UNL     1      -6.299   7.224 -31.514  1.00  0.00     0.255 C 
HETATM   30  H   UNL     1      -6.433   7.120 -29.434  1.00  0.00     0.280 HD
BRANCH  27  31
HETATM   31  C   UNL     1      -3.081   6.678 -32.340  1.00  0.00     0.063 A 
HETATM   32  C   UNL     1      -3.393   5.422 -32.872  1.00  0.00     0.032 A 
HETATM   33  C   UNL     1      -2.611   4.847 -33.886  1.00  0.00     0.002 A 
HETATM   34  C   UNL     1      -1.509   5.524 -34.400  1.00  0.00     0.003 A 
HETATM   35  C   UNL     1      -1.196   6.790 -33.922  1.00  0.00     0.039 A 
HETATM   36  C   UNL     1      -1.987   7.352 -32.925  1.00  0.00     0.092 A 
BRANCH  36  37
HETATM   37  O   UNL     1      -1.715   8.647 -32.562  1.00  0.00    -0.358 OA
HETATM   38  H   UNL     1      -1.284   9.030 -33.348  1.00  0.00     0.218 HD
ENDBRANCH  36  37
ENDBRANCH  27  31
ENDBRANCH   1  24
TORSDOF 7
ENDMDL
MODEL 6
REMARK VINA RESULT:      -8.4      6.536     10.932
REMARK  7 active torsions:
REMARK  status: ('A' for Active; 'I' for Inactive)
REMARK    1  A    between atoms: C_3  and  N_4 
REMARK    2  A    between atoms: N_7  and  C_9 
REMARK    3  A    between atoms: N_12  and  C_13 
REMARK    4  A    between atoms: C_16  and  C_17 
REMARK       I    between atoms: C_17  and  N_18 
REMARK    5  A    between atoms: C_20  and  C_21 
REMARK    6  A    between atoms: C_21  and  O_22 
REMARK    7  A    between atoms: C_33  and  O_34 
ROOT
HETATM    1  C   UNL     1      -9.382   1.062 -32.193  1.00  0.00     0.191 C 
HETATM    2  C   UNL     1      -9.525   2.467 -31.581  1.00  0.00     0.053 C 
HETATM    3  C   UNL     1      -9.836   3.539 -32.622  1.00  0.00     0.125 C 
HETATM    4  N   UNL     1     -10.999   3.109 -33.396  1.00  0.00    -0.381 N 
HETATM    5  C   UNL     1     -10.884   1.839 -34.101  1.00  0.00     0.125 C 
HETATM    6  C   UNL     1     -10.610   0.752 -33.063  1.00  0.00     0.053 C 
ENDROOT
BRANCH   4   7
HETATM    7  C   UNL     1     -11.764   4.131 -33.964  1.00  0.00     0.030 A 
HETATM    8  C   UNL     1     -12.095   5.316 -33.287  1.00  0.00     0.030 A 
HETATM    9  C   UNL     1     -12.828   6.334 -33.911  1.00  0.00     0.019 A 
HETATM   10  C   UNL     1     -13.210   6.197 -35.246  1.00  0.00     0.032 A 
HETATM   11  C   UNL     1     -12.919   5.020 -35.933  1.00  0.00     0.019 A 
HETATM   12  C   UNL     1     -12.200   4.005 -35.296  1.00  0.00     0.030 A 
BRANCH  10  13
HETATM   13  C   UNL     1     -13.994   7.236 -35.945  1.00  0.00     0.253 C 
HETATM   14  N   UNL     1     -13.340   8.209 -36.708  1.00  0.00    -0.348 N 
HETATM   15  C   UNL     1     -11.885   8.408 -36.725  1.00  0.00     0.132 C 
HETATM   16  C   UNL     1     -14.153   9.321 -37.199  1.00  0.00     0.126 C 
HETATM   17  C   UNL     1     -11.371   8.965 -38.061  1.00  0.00     0.027 C 
HETATM   18  C   UNL     1     -12.177  10.203 -38.475  1.00  0.00     0.010 C 
HETATM   19  C   UNL     1     -13.660   9.859 -38.537  1.00  0.00     0.020 C 
HETATM   20  O   UNL     1     -15.218   7.160 -35.838  1.00  0.00    -0.267 OA
BRANCH  17  21
HETATM   21  C   UNL     1      -9.870   9.259 -37.989  1.00  0.00     0.170 C 
BRANCH  21  22
HETATM   22  O   UNL     1      -9.450  10.105 -39.051  1.00  0.00    -0.400 OA
HETATM   23  H   UNL     1      -8.655   9.705 -39.448  1.00  0.00     0.209 HD
ENDBRANCH  21  22
ENDBRANCH  17  21
ENDBRANCH  10  13
ENDBRANCH   4   7
BRANCH   1  24
HETATM   24  N   UNL     1      -8.046   0.905 -32.957  1.00  0.00    -0.064 N 
HETATM   25  C   UNL     1      -7.051   0.006 -32.181  1.00  0.00     0.255 C 
HETATM   26  C   UNL     1      -5.702  -0.099 -32.918  1.00  0.00     0.150 C 
HETATM   27  N   UNL     1      -5.873  -0.606 -34.299  1.00  0.00    -0.375 N 
HETATM   28  C   UNL     1      -6.859   0.137 -35.098  1.00  0.00     0.150 C 
HETATM   29  C   UNL     1      -8.212   0.329 -34.377  1.00  0.00     0.255 C 
HETATM   30  H   UNL     1      -7.606   1.829 -33.058  1.00  0.00     0.280 HD
BRANCH  27  31
HETATM   31  C   UNL     1      -5.784  -2.002 -34.426  1.00  0.00     0.063 A 
HETATM   32  C   UNL     1      -6.837  -2.825 -34.844  1.00  0.00     0.032 A 
HETATM   33  C   UNL     1      -6.692  -4.219 -34.901  1.00  0.00     0.002 A 
HETATM   34  C   UNL     1      -5.483  -4.821 -34.557  1.00  0.00     0.003 A 
HETATM   35  C   UNL     1      -4.406  -4.030 -34.177  1.00  0.00     0.039 A 
HETATM   36  C   UNL     1      -4.562  -2.648 -34.136  1.00  0.00     0.092 A 
BRANCH  36  37
HETATM   37  O   UNL     1      -3.446  -1.897 -33.867  1.00  0.00    -0.358 OA
HETATM   38  H   UNL     1      -2.883  -2.017 -34.654  1.00  0.00     0.218 HD
ENDBRANCH  36  37
ENDBRANCH  27  31
ENDBRANCH   1  24
TORSDOF 7
ENDMDL
MODEL 7
REMARK VINA RESULT:      -8.3      6.078      8.814
REMARK  7 active torsions:
REMARK  status: ('A' for Active; 'I' for Inactive)
REMARK    1  A    between atoms: C_3  and  N_4 
REMARK    2  A    between atoms: N_7  and  C_9 
REMARK    3  A    between atoms: N_12  and  C_13 
REMARK    4  A    between atoms: C_16  and  C_17 
REMARK       I    between atoms: C_17  and  N_18 
REMARK    5  A    between atoms: C_20  and  C_21 
REMARK    6  A    between atoms: C_21  and  O_22 
REMARK    7  A    between atoms: C_33  and  O_34 
ROOT
HETATM    1  C   UNL     1      -8.598   3.185 -32.631  1.00  0.00     0.191 C 
HETATM    2  C   UNL     1      -9.778   3.112 -31.646  1.00  0.00     0.053 C 
HETATM    3  C   UNL     1      -9.531   3.907 -30.366  1.00  0.00     0.125 C 
HETATM    4  N   UNL     1      -9.148   5.269 -30.734  1.00  0.00    -0.381 N 
HETATM    5  C   UNL     1      -7.964   5.415 -31.571  1.00  0.00     0.125 C 
HETATM    6  C   UNL     1      -8.216   4.654 -32.871  1.00  0.00     0.053 C 
ENDROOT
BRANCH   4   7
HETATM    7  C   UNL     1      -9.434   6.258 -29.788  1.00  0.00     0.030 A 
HETATM    8  C   UNL     1     -10.535   7.123 -29.884  1.00  0.00     0.030 A 
HETATM    9  C   UNL     1     -10.809   8.071 -28.888  1.00  0.00     0.019 A 
HETATM   10  C   UNL     1      -9.997   8.142 -27.755  1.00  0.00     0.032 A 
HETATM   11  C   UNL     1      -8.881   7.314 -27.648  1.00  0.00     0.019 A 
HETATM   12  C   UNL     1      -8.611   6.382 -28.654  1.00  0.00     0.030 A 
BRANCH  10  13
HETATM   13  C   UNL     1     -10.236   9.133 -26.684  1.00  0.00     0.253 C 
HETATM   14  N   UNL     1     -11.297   8.953 -25.791  1.00  0.00    -0.348 N 
HETATM   15  C   UNL     1     -12.343   7.933 -25.942  1.00  0.00     0.132 C 
HETATM   16  C   UNL     1     -11.601  10.066 -24.893  1.00  0.00     0.126 C 
HETATM   17  C   UNL     1     -12.921   7.462 -24.598  1.00  0.00     0.027 C 
HETATM   18  C   UNL     1     -13.337   8.663 -23.740  1.00  0.00     0.010 C 
HETATM   19  C   UNL     1     -12.150   9.601 -23.550  1.00  0.00     0.020 C 
HETATM   20  O   UNL     1      -9.440  10.068 -26.620  1.00  0.00    -0.267 OA
BRANCH  17  21
HETATM   21  C   UNL     1     -14.080   6.486 -24.815  1.00  0.00     0.170 C 
BRANCH  21  22
HETATM   22  O   UNL     1     -13.746   5.172 -24.389  1.00  0.00    -0.400 OA
HETATM   23  H   UNL     1     -12.816   5.013 -24.632  1.00  0.00     0.209 HD
ENDBRANCH  21  22
ENDBRANCH  17  21
ENDBRANCH  10  13
ENDBRANCH   4   7
BRANCH   1  24
HETATM   24  N   UNL     1      -7.406   2.320 -32.160  1.00  0.00    -0.064 N 
HETATM   25  C   UNL     1      -7.853   0.879 -31.807  1.00  0.00     0.255 C 
HETATM   26  C   UNL     1      -6.672   0.040 -31.284  1.00  0.00     0.150 C 
HETATM   27  N   UNL     1      -5.556   0.001 -32.256  1.00  0.00    -0.375 N 
HETATM   28  C   UNL     1      -5.106   1.324 -32.713  1.00  0.00     0.150 C 
HETATM   29  C   UNL     1      -6.262   2.233 -33.190  1.00  0.00     0.255 C 
HETATM   30  H   UNL     1      -7.008   2.732 -31.305  1.00  0.00     0.280 HD
BRANCH  27  31
HETATM   31  C   UNL     1      -5.608  -1.070 -33.164  1.00  0.00     0.063 A 
HETATM   32  C   UNL     1      -6.712  -1.364 -33.973  1.00  0.00     0.032 A 
HETATM   33  C   UNL     1      -6.713  -2.480 -34.824  1.00  0.00     0.002 A 
HETATM   34  C   UNL     1      -5.602  -3.318 -34.896  1.00  0.00     0.003 A 
HETATM   35  C   UNL     1      -4.475  -3.031 -34.136  1.00  0.00     0.039 A 
HETATM   36  C   UNL     1      -4.485  -1.914 -33.306  1.00  0.00     0.092 A 
BRANCH  36  37
HETATM   37  O   UNL     1      -3.316  -1.600 -32.660  1.00  0.00    -0.358 OA
HETATM   38  H   UNL     1      -3.585  -1.459 -31.734  1.00  0.00     0.218 HD
ENDBRANCH  36  37
ENDBRANCH  27  31
ENDBRANCH   1  24
TORSDOF 7
ENDMDL
MODEL 8
REMARK VINA RESULT:      -8.2      6.736     10.613
REMARK  7 active torsions:
REMARK  status: ('A' for Active; 'I' for Inactive)
REMARK    1  A    between atoms: C_3  and  N_4 
REMARK    2  A    between atoms: N_7  and  C_9 
REMARK    3  A    between atoms: N_12  and  C_13 
REMARK    4  A    between atoms: C_16  and  C_17 
REMARK       I    between atoms: C_17  and  N_18 
REMARK    5  A    between atoms: C_20  and  C_21 
REMARK    6  A    between atoms: C_21  and  O_22 
REMARK    7  A    between atoms: C_33  and  O_34 
ROOT
HETATM    1  C   UNL     1      -1.731   8.092 -27.460  1.00  0.00     0.191 C 
HETATM    2  C   UNL     1      -0.893   7.056 -26.691  1.00  0.00     0.053 C 
HETATM    3  C   UNL     1       0.500   7.568 -26.333  1.00  0.00     0.125 C 
HETATM    4  N   UNL     1       0.360   8.847 -25.641  1.00  0.00    -0.381 N 
HETATM    5  C   UNL     1      -0.322   9.913 -26.365  1.00  0.00     0.125 C 
HETATM    6  C   UNL     1      -1.731   9.425 -26.695  1.00  0.00     0.053 C 
ENDROOT
BRANCH   4   7
HETATM    7  C   UNL     1       1.394   9.181 -24.761  1.00  0.00     0.030 A 
HETATM    8  C   UNL     1       2.753   9.017 -25.071  1.00  0.00     0.030 A 
HETATM    9  C   UNL     1       3.759   9.407 -24.176  1.00  0.00     0.019 A 
HETATM   10  C   UNL     1       3.415  10.005 -22.963  1.00  0.00     0.032 A 
HETATM   11  C   UNL     1       2.072  10.153 -22.618  1.00  0.00     0.019 A 
HETATM   12  C   UNL     1       1.078   9.748 -23.514  1.00  0.00     0.030 A 
BRANCH  10  13
HETATM   13  C   UNL     1       4.437  10.421 -21.980  1.00  0.00     0.253 C 
HETATM   14  N   UNL     1       5.439   9.525 -21.593  1.00  0.00    -0.348 N 
HETATM   15  C   UNL     1       5.458   8.100 -21.946  1.00  0.00     0.132 C 
HETATM   16  C   UNL     1       6.288   9.927 -20.472  1.00  0.00     0.126 C 
HETATM   17  C   UNL     1       6.879   7.526 -22.051  1.00  0.00     0.027 C 
HETATM   18  C   UNL     1       7.693   7.870 -20.799  1.00  0.00     0.010 C 
HETATM   19  C   UNL     1       7.706   9.380 -20.587  1.00  0.00     0.020 C 
HETATM   20  O   UNL     1       4.363  11.580 -21.574  1.00  0.00    -0.267 OA
BRANCH  17  21
HETATM   21  C   UNL     1       6.840   6.017 -22.310  1.00  0.00     0.170 C 
BRANCH  21  22
HETATM   22  O   UNL     1       5.532   5.489 -22.138  1.00  0.00    -0.400 OA
HETATM   23  H   UNL     1       5.554   4.556 -22.417  1.00  0.00     0.209 HD
ENDBRANCH  21  22
ENDBRANCH  17  21
ENDBRANCH  10  13
ENDBRANCH   4   7
BRANCH   1  24
HETATM   24  N   UNL     1      -1.256   8.237 -28.925  1.00  0.00    -0.064 N 
HETATM   25  C   UNL     1      -0.473   6.985 -29.395  1.00  0.00     0.255 C 
HETATM   26  C   UNL     1       0.045   7.159 -30.835  1.00  0.00     0.150 C 
HETATM   27  N   UNL     1      -1.055   7.454 -31.780  1.00  0.00    -0.375 N 
HETATM   28  C   UNL     1      -1.908   8.584 -31.383  1.00  0.00     0.150 C 
HETATM   29  C   UNL     1      -2.404   8.492 -29.922  1.00  0.00     0.255 C 
HETATM   30  H   UNL     1      -0.616   9.039 -28.994  1.00  0.00     0.280 HD
BRANCH  27  31
HETATM   31  C   UNL     1      -1.634   6.321 -32.377  1.00  0.00     0.063 A 
HETATM   32  C   UNL     1      -1.950   5.144 -31.690  1.00  0.00     0.032 A 
HETATM   33  C   UNL     1      -2.482   4.031 -32.360  1.00  0.00     0.002 A 
HETATM   34  C   UNL     1      -2.724   4.078 -33.731  1.00  0.00     0.003 A 
HETATM   35  C   UNL     1      -2.458   5.246 -34.435  1.00  0.00     0.039 A 
HETATM   36  C   UNL     1      -1.942   6.344 -33.755  1.00  0.00     0.092 A 
BRANCH  36  37
HETATM   37  O   UNL     1      -1.801   7.512 -34.462  1.00  0.00    -0.358 OA
HETATM   38  H   UNL     1      -2.173   8.194 -33.872  1.00  0.00     0.218 HD
ENDBRANCH  36  37
ENDBRANCH  27  31
ENDBRANCH   1  24
TORSDOF 7
ENDMDL
MODEL 9
REMARK VINA RESULT:      -8.2      4.316     11.804
REMARK  7 active torsions:
REMARK  status: ('A' for Active; 'I' for Inactive)
REMARK    1  A    between atoms: C_3  and  N_4 
REMARK    2  A    between atoms: N_7  and  C_9 
REMARK    3  A    between atoms: N_12  and  C_13 
REMARK    4  A    between atoms: C_16  and  C_17 
REMARK       I    between atoms: C_17  and  N_18 
REMARK    5  A    between atoms: C_20  and  C_21 
REMARK    6  A    between atoms: C_21  and  O_22 
REMARK    7  A    between atoms: C_33  and  O_34 
ROOT
HETATM    1  C   UNL     1      -1.349   8.680 -29.652  1.00  0.00     0.191 C 
HETATM    2  C   UNL     1      -0.872   7.238 -29.895  1.00  0.00     0.053 C 
HETATM    3  C   UNL     1      -2.026   6.244 -30.011  1.00  0.00     0.125 C 
HETATM    4  N   UNL     1      -2.962   6.737 -31.020  1.00  0.00    -0.381 N 
HETATM    5  C   UNL     1      -3.543   8.052 -30.787  1.00  0.00     0.125 C 
HETATM    6  C   UNL     1      -2.399   9.061 -30.707  1.00  0.00     0.053 C 
ENDROOT
BRANCH   4   7
HETATM    7  C   UNL     1      -3.728   5.763 -31.667  1.00  0.00     0.030 A 
HETATM    8  C   UNL     1      -3.758   5.605 -33.062  1.00  0.00     0.030 A 
HETATM    9  C   UNL     1      -4.507   4.586 -33.666  1.00  0.00     0.019 A 
HETATM   10  C   UNL     1      -5.212   3.680 -32.873  1.00  0.00     0.032 A 
HETATM   11  C   UNL     1      -5.222   3.831 -31.488  1.00  0.00     0.019 A 
HETATM   12  C   UNL     1      -4.483   4.860 -30.897  1.00  0.00     0.030 A 
BRANCH  10  13
HETATM   13  C   UNL     1      -6.027   2.596 -33.462  1.00  0.00     0.253 C 
HETATM   14  N   UNL     1      -5.596   1.269 -33.367  1.00  0.00    -0.348 N 
HETATM   15  C   UNL     1      -4.271   0.860 -32.883  1.00  0.00     0.132 C 
HETATM   16  C   UNL     1      -6.337   0.276 -34.145  1.00  0.00     0.126 C 
HETATM   17  C   UNL     1      -4.276  -0.523 -32.215  1.00  0.00     0.027 C 
HETATM   18  C   UNL     1      -4.956  -1.556 -33.122  1.00  0.00     0.010 C 
HETATM   19  C   UNL     1      -6.365  -1.091 -33.472  1.00  0.00     0.020 C 
HETATM   20  O   UNL     1      -7.086   2.934 -33.987  1.00  0.00    -0.267 OA
BRANCH  17  21
HETATM   21  C   UNL     1      -2.857  -0.949 -31.831  1.00  0.00     0.170 C 
BRANCH  21  22
HETATM   22  O   UNL     1      -2.285  -0.065 -30.875  1.00  0.00    -0.400 OA
HETATM   23  H   UNL     1      -2.685  -0.269 -30.011  1.00  0.00     0.209 HD
ENDBRANCH  21  22
ENDBRANCH  17  21
ENDBRANCH  10  13
ENDBRANCH   4   7
BRANCH   1  24
HETATM   24  N   UNL     1      -1.849   8.880 -28.202  1.00  0.00    -0.064 N 
HETATM   25  C   UNL     1      -1.102   7.953 -27.211  1.00  0.00     0.255 C 
HETATM   26  C   UNL     1      -1.644   8.115 -25.778  1.00  0.00     0.150 C 
HETATM   27  N   UNL     1      -1.562   9.520 -25.319  1.00  0.00    -0.375 N 
HETATM   28  C   UNL     1      -2.179  10.492 -26.234  1.00  0.00     0.150 C 
HETATM   29  C   UNL     1      -1.718  10.331 -27.700  1.00  0.00     0.255 C 
HETATM   30  H   UNL     1      -2.847   8.635 -28.154  1.00  0.00     0.280 HD
BRANCH  27  31
HETATM   31  C   UNL     1      -0.370   9.850 -24.652  1.00  0.00     0.063 A 
HETATM   32  C   UNL     1       0.871   9.997 -25.283  1.00  0.00     0.032 A 
HETATM   33  C   UNL     1       2.032  10.280 -24.548  1.00  0.00     0.002 A 
HETATM   34  C   UNL     1       1.974  10.439 -23.165  1.00  0.00     0.003 A 
HETATM   35  C   UNL     1       0.751  10.339 -22.513  1.00  0.00     0.039 A 
HETATM   36  C   UNL     1      -0.393  10.069 -23.258  1.00  0.00     0.092 A 
BRANCH  36  37
HETATM   37  O   UNL     1      -1.594  10.092 -22.595  1.00  0.00    -0.358 OA
HETATM   38  H   UNL     1      -1.397   9.689 -21.729  1.00  0.00     0.218 HD
ENDBRANCH  36  37
ENDBRANCH  27  31
ENDBRANCH   1  24
TORSDOF 7
ENDMDL
MODEL 10
REMARK VINA RESULT:      -8.1      3.889     11.826
REMARK  7 active torsions:
REMARK  status: ('A' for Active; 'I' for Inactive)
REMARK    1  A    between atoms: C_3  and  N_4 
REMARK    2  A    between atoms: N_7  and  C_9 
REMARK    3  A    between atoms: N_12  and  C_13 
REMARK    4  A    between atoms: C_16  and  C_17 
REMARK       I    between atoms: C_17  and  N_18 
REMARK    5  A    between atoms: C_20  and  C_21 
REMARK    6  A    between atoms: C_21  and  O_22 
REMARK    7  A    between atoms: C_33  and  O_34 
ROOT
HETATM    1  C   UNL     1      -3.128   7.976 -29.791  1.00  0.00     0.191 C 
HETATM    2  C   UNL     1      -2.764   7.527 -31.217  1.00  0.00     0.053 C 
HETATM    3  C   UNL     1      -3.038   6.045 -31.459  1.00  0.00     0.125 C 
HETATM    4  N   UNL     1      -4.422   5.762 -31.085  1.00  0.00    -0.381 N 
HETATM    5  C   UNL     1      -4.802   6.055 -29.709  1.00  0.00     0.125 C 
HETATM    6  C   UNL     1      -4.567   7.544 -29.466  1.00  0.00     0.053 C 
ENDROOT
BRANCH   4   7
HETATM    7  C   UNL     1      -5.021   4.680 -31.736  1.00  0.00     0.030 A 
HETATM    8  C   UNL     1      -5.691   3.647 -31.061  1.00  0.00     0.030 A 
HETATM    9  C   UNL     1      -6.315   2.604 -31.758  1.00  0.00     0.019 A 
HETATM   10  C   UNL     1      -6.310   2.599 -33.153  1.00  0.00     0.032 A 
HETATM   11  C   UNL     1      -5.628   3.597 -33.847  1.00  0.00     0.019 A 
HETATM   12  C   UNL     1      -4.997   4.625 -33.141  1.00  0.00     0.030 A 
BRANCH  10  13
HETATM   13  C   UNL     1      -6.943   1.515 -33.933  1.00  0.00     0.253 C 
HETATM   14  N   UNL     1      -6.342   0.253 -33.988  1.00  0.00    -0.348 N 
HETATM   15  C   UNL     1      -4.999  -0.049 -33.478  1.00  0.00     0.132 C 
HETATM   16  C   UNL     1      -6.907  -0.706 -34.938  1.00  0.00     0.126 C 
HETATM   17  C   UNL     1      -4.850  -1.502 -33.002  1.00  0.00     0.027 C 
HETATM   18  C   UNL     1      -5.342  -2.475 -34.080  1.00  0.00     0.010 C 
HETATM   19  C   UNL     1      -6.782  -2.147 -34.456  1.00  0.00     0.020 C 
HETATM   20  O   UNL     1      -8.012   1.787 -34.476  1.00  0.00    -0.267 OA
BRANCH  17  21
HETATM   21  C   UNL     1      -3.406  -1.795 -32.586  1.00  0.00     0.170 C 
BRANCH  21  22
HETATM   22  O   UNL     1      -3.081  -1.176 -31.348  1.00  0.00    -0.400 OA
HETATM   23  H   UNL     1      -3.780  -1.411 -30.711  1.00  0.00     0.209 HD
ENDBRANCH  21  22
ENDBRANCH  17  21
ENDBRANCH  10  13
ENDBRANCH   4   7
BRANCH   1  24
HETATM   24  N   UNL     1      -2.098   7.474 -28.753  1.00  0.00    -0.064 N 
HETATM   25  C   UNL     1      -0.689   8.060 -29.021  1.00  0.00     0.255 C 
HETATM   26  C   UNL     1       0.344   7.511 -28.019  1.00  0.00     0.150 C 
HETATM   27  N   UNL     1      -0.058   7.777 -26.619  1.00  0.00    -0.375 N 
HETATM   28  C   UNL     1      -1.416   7.325 -26.284  1.00  0.00     0.150 C 
HETATM   29  C   UNL     1      -2.486   7.794 -27.296  1.00  0.00     0.255 C 
HETATM   30  H   UNL     1      -2.020   6.451 -28.824  1.00  0.00     0.280 HD
BRANCH  27  31
HETATM   31  C   UNL     1       0.424   8.987 -26.092  1.00  0.00     0.063 A 
HETATM   32  C   UNL     1      -0.254  10.209 -26.177  1.00  0.00     0.032 A 
HETATM   33  C   UNL     1       0.309  11.390 -25.669  1.00  0.00     0.002 A 
HETATM   34  C   UNL     1       1.557  11.371 -25.051  1.00  0.00     0.003 A 
HETATM   35  C   UNL     1       2.239  10.168 -24.915  1.00  0.00     0.039 A 
HETATM   36  C   UNL     1       1.662   9.004 -25.413  1.00  0.00     0.092 A 
BRANCH  36  37
HETATM   37  O   UNL     1       2.311   7.822 -25.158  1.00  0.00    -0.358 OA
HETATM   38  H   UNL     1       2.030   7.586 -24.255  1.00  0.00     0.218 HD
ENDBRANCH  36  37
ENDBRANCH  27  31
ENDBRANCH   1  24
TORSDOF 7
ENDMDL
