MODEL 1
REMARK VINA RESULT:      -8.3      0.000      0.000
REMARK  9 active torsions:
REMARK  status: ('A' for Active; 'I' for Inactive)
REMARK    1  A    between atoms: C_6  and  C_7 
REMARK    2  A    between atoms: C_7  and  C_8 
REMARK       I    between atoms: C_8  and  N_9 
REMARK    3  A    between atoms: N_9  and  C_10 
REMARK    4  A    between atoms: C_10  and  C_11 
REMARK    5  A    between atoms: C_11  and  N_12 
REMARK    6  A    between atoms: C_19  and  C_20 
REMARK    7  A    between atoms: C_29  and  C_30 
REMARK    8  A    between atoms: C_30  and  O_31 
REMARK    9  A    between atoms: O_31  and  C_32 
ROOT
HETATM    1  C   UNL     1      -5.749   0.773 -29.584  1.00  0.00     0.071 C 
HETATM    2  C   UNL     1      -6.532   1.440 -30.688  1.00  0.00     0.048 C 
HETATM    3  N   UNL     1      -7.298   2.525 -30.263  1.00  0.00    -0.229 NA
HETATM    4  C   UNL     1      -7.526   3.427 -31.158  1.00  0.00     0.170 C 
HETATM    5  N   UNL     1      -7.128   3.234 -32.640  1.00  0.00    -0.318 N 
HETATM    6  C   UNL     1      -6.609   4.322 -33.099  1.00  0.00     0.011 C 
HETATM    7  C   UNL     1      -7.245   1.809 -33.036  1.00  0.00     0.168 C 
HETATM    8  S   UNL     1      -7.963   5.067 -30.854  1.00  0.00    -0.086 SA
HETATM    9  C   UNL     1      -6.960   5.576 -32.308  1.00  0.00     0.135 C 
HETATM   10  C   UNL     1      -6.436   1.100 -31.995  1.00  0.00     0.069 C 
ENDROOT
BRANCH   6  11
HETATM   11  C   UNL     1      -5.680   4.287 -34.278  1.00  0.00     0.156 C 
BRANCH  11  12
HETATM   12  C   UNL     1      -4.254   4.625 -33.888  1.00  0.00     0.223 C 
HETATM   13  N   UNL     1      -3.536   5.421 -34.759  1.00  0.00    -0.359 N 
HETATM   14  H   UNL     1      -3.908   5.629 -35.682  1.00  0.00     0.162 HD
HETATM   15  O   UNL     1      -3.758   4.136 -32.880  1.00  0.00    -0.273 OA
BRANCH  13  16
HETATM   16  C   UNL     1      -2.112   5.644 -34.506  1.00  0.00     0.150 C 
BRANCH  16  17
HETATM   17  C   UNL     1      -1.804   6.831 -33.572  1.00  0.00     0.254 C 
BRANCH  17  18
HETATM   18  N   UNL     1      -1.582   6.375 -32.143  1.00  0.00    -0.070 N 
HETATM   19  H   UNL     1      -2.491   6.123 -31.726  1.00  0.00     0.279 HD
HETATM   20  C   UNL     1      -0.946   7.427 -31.241  1.00  0.00     0.235 C 
HETATM   21  C   UNL     1       0.468   6.931 -31.028  1.00  0.00     0.029 C 
HETATM   22  C   UNL     1       0.285   5.432 -30.934  1.00  0.00     0.029 C 
HETATM   23  C   UNL     1      -0.699   5.130 -32.047  1.00  0.00     0.235 C 
ENDBRANCH  17  18
ENDBRANCH  16  17
ENDBRANCH  13  16
ENDBRANCH  11  12
ENDBRANCH   6  11
BRANCH   7  24
HETATM   24  C   UNL     1      -8.732   1.421 -33.195  1.00  0.00    -0.009 A 
HETATM   25  C   UNL     1      -9.732   2.192 -33.835  1.00  0.00     0.042 A 
HETATM   26 CL   UNL     1      -9.489   3.776 -34.480  1.00  0.00    -0.084 Cl
HETATM   27  C   UNL     1     -11.042   1.708 -33.975  1.00  0.00     0.024 A 
HETATM   28  C   UNL     1     -11.405   0.469 -33.461  1.00  0.00     0.002 A 
HETATM   29  C   UNL     1     -10.466  -0.283 -32.773  1.00  0.00     0.001 A 
HETATM   30  C   UNL     1      -9.159   0.190 -32.627  1.00  0.00     0.011 A 
ENDBRANCH   7  24
BRANCH  10  31
HETATM   31  C   UNL     1      -5.317   0.295 -32.528  1.00  0.00     0.294 C 
HETATM   32  O   UNL     1      -4.281   0.813 -32.912  1.00  0.00    -0.259 OA
BRANCH  31  33
HETATM   33  O   UNL     1      -5.743  -0.960 -32.772  1.00  0.00    -0.313 OA
BRANCH  33  34
HETATM   34  C   UNL     1      -5.506  -1.486 -34.095  1.00  0.00     0.124 C 
HETATM   35  C   UNL     1      -4.534  -2.654 -34.016  1.00  0.00     0.040 C 
HETATM   36  C   UNL     1      -6.856  -1.926 -34.646  1.00  0.00     0.040 C 
ENDBRANCH  33  34
ENDBRANCH  31  33
ENDBRANCH  10  31
TORSDOF 9
ENDMDL
MODEL 2
REMARK VINA RESULT:      -7.9      1.798      2.381
REMARK  9 active torsions:
REMARK  status: ('A' for Active; 'I' for Inactive)
REMARK    1  A    between atoms: C_6  and  C_7 
REMARK    2  A    between atoms: C_7  and  C_8 
REMARK       I    between atoms: C_8  and  N_9 
REMARK    3  A    between atoms: N_9  and  C_10 
REMARK    4  A    between atoms: C_10  and  C_11 
REMARK    5  A    between atoms: C_11  and  N_12 
REMARK    6  A    between atoms: C_19  and  C_20 
REMARK    7  A    between atoms: C_29  and  C_30 
REMARK    8  A    between atoms: C_30  and  O_31 
REMARK    9  A    between atoms: O_31  and  C_32 
ROOT
HETATM    1  C   UNL     1      -7.457   0.042 -31.026  1.00  0.00     0.071 C 
HETATM    2  C   UNL     1      -8.302   1.045 -31.772  1.00  0.00     0.048 C 
HETATM    3  N   UNL     1      -9.078   1.858 -30.947  1.00  0.00    -0.229 NA
HETATM    4  C   UNL     1      -9.365   3.021 -31.426  1.00  0.00     0.170 C 
HETATM    5  N   UNL     1      -9.024   3.419 -32.881  1.00  0.00    -0.318 N 
HETATM    6  C   UNL     1      -8.553   4.619 -32.908  1.00  0.00     0.011 C 
HETATM    7  C   UNL     1      -9.120   2.246 -33.784  1.00  0.00     0.168 C 
HETATM    8  S   UNL     1      -9.832   4.407 -30.511  1.00  0.00    -0.086 SA
HETATM    9  C   UNL     1      -8.903   5.466 -31.692  1.00  0.00     0.135 C 
HETATM   10  C   UNL     1      -8.251   1.228 -33.113  1.00  0.00     0.069 C 
ENDROOT
BRANCH   6  11
HETATM   11  C   UNL     1      -7.672   5.069 -34.039  1.00  0.00     0.156 C 
BRANCH  11  12
HETATM   12  C   UNL     1      -6.226   4.666 -33.827  1.00  0.00     0.223 C 
HETATM   13  N   UNL     1      -5.916   4.036 -32.638  1.00  0.00    -0.359 N 
HETATM   14  H   UNL     1      -6.604   3.995 -31.891  1.00  0.00     0.162 HD
HETATM   15  O   UNL     1      -5.374   4.969 -34.655  1.00  0.00    -0.273 OA
BRANCH  13  16
HETATM   16  C   UNL     1      -4.512   3.770 -32.320  1.00  0.00     0.150 C 
BRANCH  16  17
HETATM   17  C   UNL     1      -3.781   4.932 -31.619  1.00  0.00     0.254 C 
BRANCH  17  18
HETATM   18  N   UNL     1      -2.427   5.200 -32.245  1.00  0.00    -0.070 N 
HETATM   19  H   UNL     1      -1.688   4.948 -31.570  1.00  0.00     0.279 HD
HETATM   20  C   UNL     1      -2.198   6.653 -32.646  1.00  0.00     0.235 C 
HETATM   21  C   UNL     1      -2.272   6.640 -34.158  1.00  0.00     0.029 C 
HETATM   22  C   UNL     1      -1.603   5.329 -34.512  1.00  0.00     0.029 C 
HETATM   23  C   UNL     1      -2.175   4.359 -33.497  1.00  0.00     0.235 C 
ENDBRANCH  17  18
ENDBRANCH  16  17
ENDBRANCH  13  16
ENDBRANCH  11  12
ENDBRANCH   6  11
BRANCH   7  24
HETATM   24  C   UNL     1     -10.602   1.888 -34.036  1.00  0.00    -0.009 A 
HETATM   25  C   UNL     1     -11.530   2.653 -34.784  1.00  0.00     0.042 A 
HETATM   26 CL   UNL     1     -11.194   4.198 -35.479  1.00  0.00    -0.084 Cl
HETATM   27  C   UNL     1     -12.839   2.195 -34.999  1.00  0.00     0.024 A 
HETATM   28  C   UNL     1     -13.274   0.991 -34.459  1.00  0.00     0.002 A 
HETATM   29  C   UNL     1     -12.410   0.249 -33.669  1.00  0.00     0.001 A 
HETATM   30  C   UNL     1     -11.104   0.696 -33.448  1.00  0.00     0.011 A 
ENDBRANCH   7  24
BRANCH  10  31
HETATM   31  C   UNL     1      -7.134   0.729 -33.943  1.00  0.00     0.294 C 
HETATM   32  O   UNL     1      -6.386   1.490 -34.536  1.00  0.00    -0.259 OA
BRANCH  31  33
HETATM   33  O   UNL     1      -7.282  -0.595 -34.146  1.00  0.00    -0.313 OA
BRANCH  33  34
HETATM   34  C   UNL     1      -6.101  -1.337 -34.514  1.00  0.00     0.124 C 
HETATM   35  C   UNL     1      -5.087  -1.284 -33.381  1.00  0.00     0.040 C 
HETATM   36  C   UNL     1      -6.545  -2.767 -34.793  1.00  0.00     0.040 C 
ENDBRANCH  33  34
ENDBRANCH  31  33
ENDBRANCH  10  31
TORSDOF 9
ENDMDL
MODEL 3
REMARK VINA RESULT:      -7.7      2.720      8.163
REMARK  9 active torsions:
REMARK  status: ('A' for Active; 'I' for Inactive)
REMARK    1  A    between atoms: C_6  and  C_7 
REMARK    2  A    between atoms: C_7  and  C_8 
REMARK       I    between atoms: C_8  and  N_9 
REMARK    3  A    between atoms: N_9  and  C_10 
REMARK    4  A    between atoms: C_10  and  C_11 
REMARK    5  A    between atoms: C_11  and  N_12 
REMARK    6  A    between atoms: C_19  and  C_20 
REMARK    7  A    between atoms: C_29  and  C_30 
REMARK    8  A    between atoms: C_30  and  O_31 
REMARK    9  A    between atoms: O_31  and  C_32 
ROOT
HETATM    1  C   UNL     1      -2.730   5.488 -34.423  1.00  0.00     0.071 C 
HETATM    2  C   UNL     1      -3.360   5.903 -33.116  1.00  0.00     0.048 C 
HETATM    3  N   UNL     1      -4.563   6.592 -33.259  1.00  0.00    -0.229 NA
HETATM    4  C   UNL     1      -5.384   6.488 -32.269  1.00  0.00     0.170 C 
HETATM    5  N   UNL     1      -4.991   5.794 -30.945  1.00  0.00    -0.318 N 
HETATM    6  C   UNL     1      -5.958   5.043 -30.540  1.00  0.00     0.011 C 
HETATM    7  C   UNL     1      -3.554   6.008 -30.644  1.00  0.00     0.168 C 
HETATM    8  S   UNL     1      -7.086   6.757 -32.332  1.00  0.00    -0.086 SA
HETATM    9  C   UNL     1      -7.321   5.392 -31.124  1.00  0.00     0.135 C 
HETATM   10  C   UNL     1      -2.873   5.559 -31.900  1.00  0.00     0.069 C 
ENDROOT
BRANCH   6  11
HETATM   11  C   UNL     1      -5.693   3.883 -29.622  1.00  0.00     0.156 C 
BRANCH  11  12
HETATM   12  C   UNL     1      -5.795   2.553 -30.343  1.00  0.00     0.223 C 
HETATM   13  N   UNL     1      -6.340   1.497 -29.640  1.00  0.00    -0.359 N 
HETATM   14  H   UNL     1      -6.513   1.586 -28.642  1.00  0.00     0.162 HD
HETATM   15  O   UNL     1      -5.334   2.427 -31.472  1.00  0.00    -0.273 OA
BRANCH  13  16
HETATM   16  C   UNL     1      -6.316   0.160 -30.235  1.00  0.00     0.150 C 
BRANCH  16  17
HETATM   17  C   UNL     1      -7.352  -0.063 -31.355  1.00  0.00     0.254 C 
BRANCH  17  18
HETATM   18  N   UNL     1      -6.705  -0.052 -32.726  1.00  0.00    -0.070 N 
HETATM   19  H   UNL     1      -6.471   0.920 -32.980  1.00  0.00     0.279 HD
HETATM   20  C   UNL     1      -7.584  -0.613 -33.839  1.00  0.00     0.235 C 
HETATM   21  C   UNL     1      -6.959  -1.952 -34.170  1.00  0.00     0.029 C 
HETATM   22  C   UNL     1      -5.479  -1.671 -34.035  1.00  0.00     0.029 C 
HETATM   23  C   UNL     1      -5.394  -0.840 -32.770  1.00  0.00     0.235 C 
ENDBRANCH  17  18
ENDBRANCH  16  17
ENDBRANCH  13  16
ENDBRANCH  11  12
ENDBRANCH   6  11
BRANCH   7  24
HETATM   24  C   UNL     1      -3.321   7.459 -30.165  1.00  0.00    -0.009 A 
HETATM   25  C   UNL     1      -3.736   8.006 -28.928  1.00  0.00     0.042 A 
HETATM   26 CL   UNL     1      -4.680   7.166 -27.750  1.00  0.00    -0.084 Cl
HETATM   27  C   UNL     1      -3.413   9.325 -28.574  1.00  0.00     0.024 A 
HETATM   28  C   UNL     1      -2.700  10.144 -29.441  1.00  0.00     0.002 A 
HETATM   29  C   UNL     1      -2.333   9.659 -30.686  1.00  0.00     0.001 A 
HETATM   30  C   UNL     1      -2.651   8.347 -31.050  1.00  0.00     0.011 A 
ENDBRANCH   7  24
BRANCH  10  31
HETATM   31  C   UNL     1      -1.895   4.467 -31.713  1.00  0.00     0.294 C 
HETATM   32  O   UNL     1      -2.227   3.377 -31.275  1.00  0.00    -0.259 OA
BRANCH  31  33
HETATM   33  O   UNL     1      -0.646   4.961 -31.815  1.00  0.00    -0.313 OA
BRANCH  33  34
HETATM   34  C   UNL     1      -0.109   5.630 -30.653  1.00  0.00     0.124 C 
HETATM   35  C   UNL     1       0.849   4.702 -29.924  1.00  0.00     0.040 C 
HETATM   36  C   UNL     1       0.603   6.881 -31.152  1.00  0.00     0.040 C 
ENDBRANCH  33  34
ENDBRANCH  31  33
ENDBRANCH  10  31
TORSDOF 9
ENDMDL
MODEL 4
REMARK VINA RESULT:      -7.7      2.519      7.525
REMARK  9 active torsions:
REMARK  status: ('A' for Active; 'I' for Inactive)
REMARK    1  A    between atoms: C_6  and  C_7 
REMARK    2  A    between atoms: C_7  and  C_8 
REMARK       I    between atoms: C_8  and  N_9 
REMARK    3  A    between atoms: N_9  and  C_10 
REMARK    4  A    between atoms: C_10  and  C_11 
REMARK    5  A    between atoms: C_11  and  N_12 
REMARK    6  A    between atoms: C_19  and  C_20 
REMARK    7  A    between atoms: C_29  and  C_30 
REMARK    8  A    between atoms: C_30  and  O_31 
REMARK    9  A    between atoms: O_31  and  C_32 
ROOT
HETATM    1  C   UNL     1      -3.619   5.219 -35.063  1.00  0.00     0.071 C 
HETATM    2  C   UNL     1      -4.526   5.044 -33.870  1.00  0.00     0.048 C 
HETATM    3  N   UNL     1      -5.870   4.881 -34.199  1.00  0.00    -0.229 NA
HETATM    4  C   UNL     1      -6.572   4.209 -33.350  1.00  0.00     0.170 C 
HETATM    5  N   UNL     1      -6.004   3.768 -31.981  1.00  0.00    -0.318 N 
HETATM    6  C   UNL     1      -6.354   2.552 -31.732  1.00  0.00     0.011 C 
HETATM    7  C   UNL     1      -5.046   4.774 -31.459  1.00  0.00     0.168 C 
HETATM    8  S   UNL     1      -8.062   3.405 -33.677  1.00  0.00    -0.086 SA
HETATM    9  C   UNL     1      -7.562   2.065 -32.522  1.00  0.00     0.135 C 
HETATM   10  C   UNL     1      -4.085   4.948 -32.594  1.00  0.00     0.069 C 
ENDROOT
BRANCH   6  11
HETATM   11  C   UNL     1      -5.553   1.704 -30.786  1.00  0.00     0.156 C 
BRANCH  11  12
HETATM   12  C   UNL     1      -4.489   0.899 -31.506  1.00  0.00     0.223 C 
HETATM   13  N   UNL     1      -4.823   0.379 -32.741  1.00  0.00    -0.359 N 
HETATM   14  H   UNL     1      -5.786   0.413 -33.063  1.00  0.00     0.162 HD
HETATM   15  O   UNL     1      -3.417   0.666 -30.960  1.00  0.00    -0.273 OA
BRANCH  13  16
HETATM   16  C   UNL     1      -3.889  -0.533 -33.403  1.00  0.00     0.150 C 
BRANCH  16  17
HETATM   17  C   UNL     1      -4.178  -2.029 -33.169  1.00  0.00     0.254 C 
BRANCH  17  18
HETATM   18  N   UNL     1      -4.600  -2.725 -34.448  1.00  0.00    -0.070 N 
HETATM   19  H   UNL     1      -3.941  -2.473 -35.201  1.00  0.00     0.279 HD
HETATM   20  C   UNL     1      -6.000  -2.359 -34.929  1.00  0.00     0.235 C 
HETATM   21  C   UNL     1      -6.828  -3.593 -34.644  1.00  0.00     0.029 C 
HETATM   22  C   UNL     1      -5.866  -4.719 -34.956  1.00  0.00     0.029 C 
HETATM   23  C   UNL     1      -4.566  -4.250 -34.334  1.00  0.00     0.235 C 
ENDBRANCH  17  18
ENDBRANCH  16  17
ENDBRANCH  13  16
ENDBRANCH  11  12
ENDBRANCH   6  11
BRANCH   7  24
HETATM   24  C   UNL     1      -5.806   6.018 -30.949  1.00  0.00    -0.009 A 
HETATM   25  C   UNL     1      -6.783   6.038 -29.924  1.00  0.00     0.042 A 
HETATM   26 CL   UNL     1      -7.383   4.636 -29.112  1.00  0.00    -0.084 Cl
HETATM   27  C   UNL     1      -7.365   7.243 -29.500  1.00  0.00     0.024 A 
HETATM   28  C   UNL     1      -7.021   8.451 -30.094  1.00  0.00     0.002 A 
HETATM   29  C   UNL     1      -6.114   8.459 -31.142  1.00  0.00     0.001 A 
HETATM   30  C   UNL     1      -5.531   7.265 -31.574  1.00  0.00     0.011 A 
ENDBRANCH   7  24
BRANCH  10  31
HETATM   31  C   UNL     1      -2.676   4.653 -32.257  1.00  0.00     0.294 C 
HETATM   32  O   UNL     1      -2.234   3.516 -32.290  1.00  0.00    -0.259 OA
BRANCH  31  33
HETATM   33  O   UNL     1      -2.120   5.730 -31.668  1.00  0.00    -0.313 OA
BRANCH  33  34
HETATM   34  C   UNL     1      -1.147   6.467 -32.437  1.00  0.00     0.124 C 
HETATM   35  C   UNL     1      -1.756   7.776 -32.917  1.00  0.00     0.040 C 
HETATM   36  C   UNL     1       0.046   6.714 -31.523  1.00  0.00     0.040 C 
ENDBRANCH  33  34
ENDBRANCH  31  33
ENDBRANCH  10  31
TORSDOF 9
ENDMDL
MODEL 5
REMARK VINA RESULT:      -7.6      2.976      6.095
REMARK  9 active torsions:
REMARK  status: ('A' for Active; 'I' for Inactive)
REMARK    1  A    between atoms: C_6  and  C_7 
REMARK    2  A    between atoms: C_7  and  C_8 
REMARK       I    between atoms: C_8  and  N_9 
REMARK    3  A    between atoms: N_9  and  C_10 
REMARK    4  A    between atoms: C_10  and  C_11 
REMARK    5  A    between atoms: C_11  and  N_12 
REMARK    6  A    between atoms: C_19  and  C_20 
REMARK    7  A    between atoms: C_29  and  C_30 
REMARK    8  A    between atoms: C_30  and  O_31 
REMARK    9  A    between atoms: O_31  and  C_32 
ROOT
HETATM    1  C   UNL     1      -5.583   0.586 -29.236  1.00  0.00     0.071 C 
HETATM    2  C   UNL     1      -5.815   0.344 -30.707  1.00  0.00     0.048 C 
HETATM    3  N   UNL     1      -7.109  -0.068 -31.017  1.00  0.00    -0.229 NA
HETATM    4  C   UNL     1      -7.519   0.233 -32.204  1.00  0.00     0.170 C 
HETATM    5  N   UNL     1      -6.579   0.850 -33.265  1.00  0.00    -0.318 N 
HETATM    6  C   UNL     1      -7.187   1.802 -33.888  1.00  0.00     0.011 C 
HETATM    7  C   UNL     1      -5.197   0.333 -33.111  1.00  0.00     0.168 C 
HETATM    8  S   UNL     1      -9.163   0.340 -32.711  1.00  0.00    -0.086 SA
HETATM    9  C   UNL     1      -8.707   1.747 -33.802  1.00  0.00     0.135 C 
HETATM   10  C   UNL     1      -4.895   0.597 -31.668  1.00  0.00     0.069 C 
ENDROOT
BRANCH   6  11
HETATM   11  C   UNL     1      -6.408   2.894 -34.564  1.00  0.00     0.156 C 
BRANCH  11  12
HETATM   12  C   UNL     1      -6.351   4.155 -33.725  1.00  0.00     0.223 C 
HETATM   13  N   UNL     1      -6.759   4.054 -32.409  1.00  0.00    -0.359 N 
HETATM   14  H   UNL     1      -7.217   3.207 -32.083  1.00  0.00     0.162 HD
HETATM   15  O   UNL     1      -6.031   5.222 -34.236  1.00  0.00    -0.273 OA
BRANCH  13  16
HETATM   16  C   UNL     1      -6.872   5.272 -31.605  1.00  0.00     0.150 C 
BRANCH  16  17
HETATM   17  C   UNL     1      -8.316   5.763 -31.382  1.00  0.00     0.254 C 
BRANCH  17  18
HETATM   18  N   UNL     1      -9.330   4.684 -31.705  1.00  0.00    -0.070 N 
HETATM   19  H   UNL     1      -8.839   3.866 -32.097  1.00  0.00     0.279 HD
HETATM   20  C   UNL     1     -10.391   5.104 -32.718  1.00  0.00     0.235 C 
HETATM   21  C   UNL     1     -11.651   5.262 -31.896  1.00  0.00     0.029 C 
HETATM   22  C   UNL     1     -11.538   4.135 -30.892  1.00  0.00     0.029 C 
HETATM   23  C   UNL     1     -10.084   4.188 -30.470  1.00  0.00     0.235 C 
ENDBRANCH  17  18
ENDBRANCH  16  17
ENDBRANCH  13  16
ENDBRANCH  11  12
ENDBRANCH   6  11
BRANCH   7  24
HETATM   24  C   UNL     1      -5.114  -1.123 -33.619  1.00  0.00    -0.009 A 
HETATM   25  C   UNL     1      -4.168  -2.096 -33.215  1.00  0.00     0.042 A 
HETATM   26 CL   UNL     1      -2.854  -1.798 -32.135  1.00  0.00    -0.084 Cl
HETATM   27  C   UNL     1      -4.228  -3.411 -33.701  1.00  0.00     0.024 A 
HETATM   28  C   UNL     1      -5.200  -3.791 -34.618  1.00  0.00     0.002 A 
HETATM   29  C   UNL     1      -6.102  -2.847 -35.082  1.00  0.00     0.001 A 
HETATM   30  C   UNL     1      -6.051  -1.534 -34.606  1.00  0.00     0.011 A 
ENDBRANCH   7  24
BRANCH  10  31
HETATM   31  C   UNL     1      -3.712   1.453 -31.434  1.00  0.00     0.294 C 
HETATM   32  O   UNL     1      -2.705   1.021 -30.896  1.00  0.00    -0.259 OA
BRANCH  31  33
HETATM   33  O   UNL     1      -4.047   2.744 -31.627  1.00  0.00    -0.313 OA
BRANCH  33  34
HETATM   34  C   UNL     1      -2.964   3.690 -31.745  1.00  0.00     0.124 C 
HETATM   35  C   UNL     1      -2.662   3.945 -33.214  1.00  0.00     0.040 C 
HETATM   36  C   UNL     1      -3.411   4.966 -31.043  1.00  0.00     0.040 C 
ENDBRANCH  33  34
ENDBRANCH  31  33
ENDBRANCH  10  31
TORSDOF 9
ENDMDL
MODEL 6
REMARK VINA RESULT:      -7.4      1.709      2.296
REMARK  9 active torsions:
REMARK  status: ('A' for Active; 'I' for Inactive)
REMARK    1  A    between atoms: C_6  and  C_7 
REMARK    2  A    between atoms: C_7  and  C_8 
REMARK       I    between atoms: C_8  and  N_9 
REMARK    3  A    between atoms: N_9  and  C_10 
REMARK    4  A    between atoms: C_10  and  C_11 
REMARK    5  A    between atoms: C_11  and  N_12 
REMARK    6  A    between atoms: C_19  and  C_20 
REMARK    7  A    between atoms: C_29  and  C_30 
REMARK    8  A    between atoms: C_30  and  O_31 
REMARK    9  A    between atoms: O_31  and  C_32 
ROOT
HETATM    1  C   UNL     1      -6.072   0.393 -29.583  1.00  0.00     0.071 C 
HETATM    2  C   UNL     1      -6.430   1.501 -30.543  1.00  0.00     0.048 C 
HETATM    3  N   UNL     1      -6.783   2.698 -29.921  1.00  0.00    -0.229 NA
HETATM    4  C   UNL     1      -6.565   3.766 -30.611  1.00  0.00     0.170 C 
HETATM    5  N   UNL     1      -6.109   3.713 -32.088  1.00  0.00    -0.318 N 
HETATM    6  C   UNL     1      -5.180   4.584 -32.291  1.00  0.00     0.011 C 
HETATM    7  C   UNL     1      -6.700   2.541 -32.780  1.00  0.00     0.168 C 
HETATM    8  S   UNL     1      -6.396   5.362 -29.980  1.00  0.00    -0.086 SA
HETATM    9  C   UNL     1      -5.127   5.707 -31.264  1.00  0.00     0.135 C 
HETATM   10  C   UNL     1      -6.326   1.397 -31.889  1.00  0.00     0.069 C 
ENDROOT
BRANCH   6  11
HETATM   11  C   UNL     1      -4.207   4.414 -33.424  1.00  0.00     0.156 C 
BRANCH  11  12
HETATM   12  C   UNL     1      -2.964   5.261 -33.237  1.00  0.00     0.223 C 
HETATM   13  N   UNL     1      -1.957   4.734 -32.452  1.00  0.00    -0.359 N 
HETATM   14  H   UNL     1      -2.123   3.891 -31.910  1.00  0.00     0.162 HD
HETATM   15  O   UNL     1      -2.912   6.392 -33.705  1.00  0.00    -0.273 OA
BRANCH  13  16
HETATM   16  C   UNL     1      -0.808   5.575 -32.114  1.00  0.00     0.150 C 
BRANCH  16  17
HETATM   17  C   UNL     1       0.058   5.045 -30.954  1.00  0.00     0.254 C 
BRANCH  17  18
HETATM   18  N   UNL     1      -0.375   5.622 -29.622  1.00  0.00    -0.070 N 
HETATM   19  H   UNL     1      -1.176   5.079 -29.264  1.00  0.00     0.279 HD
HETATM   20  C   UNL     1      -0.810   7.083 -29.683  1.00  0.00     0.235 C 
HETATM   21  C   UNL     1       0.317   7.837 -29.011  1.00  0.00     0.029 C 
HETATM   22  C   UNL     1       0.722   6.903 -27.891  1.00  0.00     0.029 C 
HETATM   23  C   UNL     1       0.718   5.540 -28.555  1.00  0.00     0.235 C 
ENDBRANCH  17  18
ENDBRANCH  16  17
ENDBRANCH  13  16
ENDBRANCH  11  12
ENDBRANCH   6  11
BRANCH   7  24
HETATM   24  C   UNL     1      -8.199   2.788 -33.061  1.00  0.00    -0.009 A 
HETATM   25  C   UNL     1      -9.268   1.935 -32.697  1.00  0.00     0.042 A 
HETATM   26 CL   UNL     1      -9.081   0.390 -31.948  1.00  0.00    -0.084 Cl
HETATM   27  C   UNL     1     -10.601   2.294 -32.951  1.00  0.00     0.024 A 
HETATM   28  C   UNL     1     -10.910   3.487 -33.595  1.00  0.00     0.002 A 
HETATM   29  C   UNL     1      -9.883   4.315 -34.020  1.00  0.00     0.001 A 
HETATM   30  C   UNL     1      -8.553   3.966 -33.773  1.00  0.00     0.011 A 
ENDBRANCH   7  24
BRANCH  10  31
HETATM   31  C   UNL     1      -5.533   0.338 -32.547  1.00  0.00     0.294 C 
HETATM   32  O   UNL     1      -4.354   0.497 -32.821  1.00  0.00    -0.259 OA
BRANCH  31  33
HETATM   33  O   UNL     1      -6.360  -0.616 -33.018  1.00  0.00    -0.313 OA
BRANCH  33  34
HETATM   34  C   UNL     1      -6.214  -0.983 -34.406  1.00  0.00     0.124 C 
HETATM   35  C   UNL     1      -6.502  -2.467 -34.577  1.00  0.00     0.040 C 
HETATM   36  C   UNL     1      -7.200  -0.132 -35.196  1.00  0.00     0.040 C 
ENDBRANCH  33  34
ENDBRANCH  31  33
ENDBRANCH  10  31
TORSDOF 9
ENDMDL
MODEL 7
REMARK VINA RESULT:      -7.4      3.776      9.023
REMARK  9 active torsions:
REMARK  status: ('A' for Active; 'I' for Inactive)
REMARK    1  A    between atoms: C_6  and  C_7 
REMARK    2  A    between atoms: C_7  and  C_8 
REMARK       I    between atoms: C_8  and  N_9 
REMARK    3  A    between atoms: N_9  and  C_10 
REMARK    4  A    between atoms: C_10  and  C_11 
REMARK    5  A    between atoms: C_11  and  N_12 
REMARK    6  A    between atoms: C_19  and  C_20 
REMARK    7  A    between atoms: C_29  and  C_30 
REMARK    8  A    between atoms: C_30  and  O_31 
REMARK    9  A    between atoms: O_31  and  C_32 
ROOT
HETATM    1  C   UNL     1      -1.489   7.759 -32.691  1.00  0.00     0.071 C 
HETATM    2  C   UNL     1      -1.694   7.831 -31.198  1.00  0.00     0.048 C 
HETATM    3  N   UNL     1      -2.170   9.062 -30.750  1.00  0.00    -0.229 NA
HETATM    4  C   UNL     1      -2.858   9.027 -29.658  1.00  0.00     0.170 C 
HETATM    5  N   UNL     1      -2.995   7.738 -28.814  1.00  0.00    -0.318 N 
HETATM    6  C   UNL     1      -4.216   7.600 -28.421  1.00  0.00     0.011 C 
HETATM    7  C   UNL     1      -1.757   6.925 -28.889  1.00  0.00     0.168 C 
HETATM    8  S   UNL     1      -3.986  10.220 -29.133  1.00  0.00    -0.086 SA
HETATM    9  C   UNL     1      -5.037   8.883 -28.436  1.00  0.00     0.135 C 
HETATM   10  C   UNL     1      -1.534   6.778 -30.362  1.00  0.00     0.069 C 
ENDROOT
BRANCH   6  11
HETATM   11  C   UNL     1      -4.754   6.244 -28.061  1.00  0.00     0.156 C 
BRANCH  11  12
HETATM   12  C   UNL     1      -5.399   5.555 -29.247  1.00  0.00     0.223 C 
HETATM   13  N   UNL     1      -5.566   4.187 -29.165  1.00  0.00    -0.359 N 
HETATM   14  H   UNL     1      -5.132   3.667 -28.407  1.00  0.00     0.162 HD
HETATM   15  O   UNL     1      -5.677   6.194 -30.256  1.00  0.00    -0.273 OA
BRANCH  13  16
HETATM   16  C   UNL     1      -6.038   3.457 -30.343  1.00  0.00     0.150 C 
BRANCH  16  17
HETATM   17  C   UNL     1      -7.086   2.367 -30.047  1.00  0.00     0.254 C 
BRANCH  17  18
HETATM   18  N   UNL     1      -7.344   1.494 -31.259  1.00  0.00    -0.070 N 
HETATM   19  H   UNL     1      -8.361   1.436 -31.422  1.00  0.00     0.279 HD
HETATM   20  C   UNL     1      -6.823   0.067 -31.126  1.00  0.00     0.235 C 
HETATM   21  C   UNL     1      -5.620   0.021 -32.044  1.00  0.00     0.029 C 
HETATM   22  C   UNL     1      -6.057   0.880 -33.210  1.00  0.00     0.029 C 
HETATM   23  C   UNL     1      -6.731   2.062 -32.540  1.00  0.00     0.235 C 
ENDBRANCH  17  18
ENDBRANCH  16  17
ENDBRANCH  13  16
ENDBRANCH  11  12
ENDBRANCH   6  11
BRANCH   7  24
HETATM   24  C   UNL     1      -0.640   7.578 -28.043  1.00  0.00    -0.009 A 
HETATM   25  C   UNL     1      -0.684   7.825 -26.650  1.00  0.00     0.042 A 
HETATM   26 CL   UNL     1      -2.054   7.525 -25.642  1.00  0.00    -0.084 Cl
HETATM   27  C   UNL     1       0.420   8.369 -25.975  1.00  0.00     0.024 A 
HETATM   28  C   UNL     1       1.579   8.711 -26.660  1.00  0.00     0.002 A 
HETATM   29  C   UNL     1       1.632   8.541 -28.035  1.00  0.00     0.001 A 
HETATM   30  C   UNL     1       0.538   8.001 -28.717  1.00  0.00     0.011 A 
ENDBRANCH   7  24
BRANCH  10  31
HETATM   31  C   UNL     1      -1.489   5.380 -30.841  1.00  0.00     0.294 C 
HETATM   32  O   UNL     1      -0.433   4.824 -31.094  1.00  0.00    -0.259 OA
BRANCH  31  33
HETATM   33  O   UNL     1      -2.727   4.990 -31.203  1.00  0.00    -0.313 OA
BRANCH  33  34
HETATM   34  C   UNL     1      -2.858   4.330 -32.480  1.00  0.00     0.124 C 
HETATM   35  C   UNL     1      -3.101   2.843 -32.266  1.00  0.00     0.040 C 
HETATM   36  C   UNL     1      -4.030   4.985 -33.199  1.00  0.00     0.040 C 
ENDBRANCH  33  34
ENDBRANCH  31  33
ENDBRANCH  10  31
TORSDOF 9
ENDMDL
MODEL 8
REMARK VINA RESULT:      -7.3      2.523      5.085
REMARK  9 active torsions:
REMARK  status: ('A' for Active; 'I' for Inactive)
REMARK    1  A    between atoms: C_6  and  C_7 
REMARK    2  A    between atoms: C_7  and  C_8 
REMARK       I    between atoms: C_8  and  N_9 
REMARK    3  A    between atoms: N_9  and  C_10 
REMARK    4  A    between atoms: C_10  and  C_11 
REMARK    5  A    between atoms: C_11  and  N_12 
REMARK    6  A    between atoms: C_19  and  C_20 
REMARK    7  A    between atoms: C_29  and  C_30 
REMARK    8  A    between atoms: C_30  and  O_31 
REMARK    9  A    between atoms: O_31  and  C_32 
ROOT
HETATM    1  C   UNL     1      -5.296   0.719 -29.169  1.00  0.00     0.071 C 
HETATM    2  C   UNL     1      -5.697   0.561 -30.616  1.00  0.00     0.048 C 
HETATM    3  N   UNL     1      -7.024   0.177 -30.797  1.00  0.00    -0.229 NA
HETATM    4  C   UNL     1      -7.561   0.546 -31.911  1.00  0.00     0.170 C 
HETATM    5  N   UNL     1      -6.740   1.213 -33.038  1.00  0.00    -0.318 N 
HETATM    6  C   UNL     1      -7.401   2.203 -33.535  1.00  0.00     0.011 C 
HETATM    7  C   UNL     1      -5.357   0.678 -33.071  1.00  0.00     0.168 C 
HETATM    8  S   UNL     1      -9.251   0.694 -32.221  1.00  0.00    -0.086 SA
HETATM    9  C   UNL     1      -8.902   2.156 -33.279  1.00  0.00     0.135 C 
HETATM   10  C   UNL     1      -4.889   0.859 -31.660  1.00  0.00     0.069 C 
ENDROOT
BRANCH   6  11
HETATM   11  C   UNL     1      -6.688   3.324 -34.236  1.00  0.00     0.156 C 
BRANCH  11  12
HETATM   12  C   UNL     1      -7.071   4.680 -33.675  1.00  0.00     0.223 C 
HETATM   13  N   UNL     1      -6.486   5.053 -32.481  1.00  0.00    -0.359 N 
HETATM   14  H   UNL     1      -5.951   4.377 -31.943  1.00  0.00     0.162 HD
HETATM   15  O   UNL     1      -7.924   5.360 -34.233  1.00  0.00    -0.273 OA
BRANCH  13  16
HETATM   16  C   UNL     1      -6.940   6.279 -31.821  1.00  0.00     0.150 C 
BRANCH  16  17
HETATM   17  C   UNL     1      -5.865   6.989 -30.975  1.00  0.00     0.254 C 
BRANCH  17  18
HETATM   18  N   UNL     1      -6.342   7.237 -29.558  1.00  0.00    -0.070 N 
HETATM   19  H   UNL     1      -5.987   8.152 -29.238  1.00  0.00     0.279 HD
HETATM   20  C   UNL     1      -5.878   6.192 -28.548  1.00  0.00     0.235 C 
HETATM   21  C   UNL     1      -7.125   5.396 -28.234  1.00  0.00     0.029 C 
HETATM   22  C   UNL     1      -8.206   6.455 -28.235  1.00  0.00     0.029 C 
HETATM   23  C   UNL     1      -7.866   7.300 -29.446  1.00  0.00     0.235 C 
ENDBRANCH  17  18
ENDBRANCH  16  17
ENDBRANCH  13  16
ENDBRANCH  11  12
ENDBRANCH   6  11
BRANCH   7  24
HETATM   24  C   UNL     1      -5.352  -0.749 -33.663  1.00  0.00    -0.009 A 
HETATM   25  C   UNL     1      -6.205  -1.231 -34.686  1.00  0.00     0.042 A 
HETATM   26 CL   UNL     1      -7.490  -0.325 -35.401  1.00  0.00    -0.084 Cl
HETATM   27  C   UNL     1      -6.067  -2.534 -35.190  1.00  0.00     0.024 A 
HETATM   28  C   UNL     1      -5.109  -3.401 -34.680  1.00  0.00     0.002 A 
HETATM   29  C   UNL     1      -4.301  -2.981 -33.635  1.00  0.00     0.001 A 
HETATM   30  C   UNL     1      -4.431  -1.687 -33.124  1.00  0.00     0.011 A 
ENDBRANCH   7  24
BRANCH  10  31
HETATM   31  C   UNL     1      -3.675   1.691 -31.517  1.00  0.00     0.294 C 
HETATM   32  O   UNL     1      -2.670   1.270 -30.967  1.00  0.00    -0.259 OA
BRANCH  31  33
HETATM   33  O   UNL     1      -3.974   2.973 -31.804  1.00  0.00    -0.313 OA
BRANCH  33  34
HETATM   34  C   UNL     1      -2.880   3.827 -32.202  1.00  0.00     0.124 C 
HETATM   35  C   UNL     1      -3.142   4.381 -33.595  1.00  0.00     0.040 C 
HETATM   36  C   UNL     1      -2.791   4.944 -31.170  1.00  0.00     0.040 C 
ENDBRANCH  33  34
ENDBRANCH  31  33
ENDBRANCH  10  31
TORSDOF 9
ENDMDL
MODEL 9
REMARK VINA RESULT:      -7.2      3.241      5.526
REMARK  9 active torsions:
REMARK  status: ('A' for Active; 'I' for Inactive)
REMARK    1  A    between atoms: C_6  and  C_7 
REMARK    2  A    between atoms: C_7  and  C_8 
REMARK       I    between atoms: C_8  and  N_9 
REMARK    3  A    between atoms: N_9  and  C_10 
REMARK    4  A    between atoms: C_10  and  C_11 
REMARK    5  A    between atoms: C_11  and  N_12 
REMARK    6  A    between atoms: C_19  and  C_20 
REMARK    7  A    between atoms: C_29  and  C_30 
REMARK    8  A    between atoms: C_30  and  O_31 
REMARK    9  A    between atoms: O_31  and  C_32 
ROOT
HETATM    1  C   UNL     1      -8.959   5.266 -34.242  1.00  0.00     0.071 C 
HETATM    2  C   UNL     1      -7.980   4.245 -33.718  1.00  0.00     0.048 C 
HETATM    3  N   UNL     1      -6.682   4.403 -34.202  1.00  0.00    -0.229 NA
HETATM    4  C   UNL     1      -5.745   3.968 -33.429  1.00  0.00     0.170 C 
HETATM    5  N   UNL     1      -6.046   3.171 -32.139  1.00  0.00    -0.318 N 
HETATM    6  C   UNL     1      -5.286   3.583 -31.182  1.00  0.00     0.011 C 
HETATM    7  C   UNL     1      -7.260   2.334 -32.308  1.00  0.00     0.168 C 
HETATM    8  S   UNL     1      -4.091   4.455 -33.470  1.00  0.00    -0.086 SA
HETATM    9  C   UNL     1      -4.032   4.317 -31.639  1.00  0.00     0.135 C 
HETATM   10  C   UNL     1      -8.286   3.315 -32.782  1.00  0.00     0.069 C 
ENDROOT
BRANCH   6  11
HETATM   11  C   UNL     1      -5.691   3.392 -29.748  1.00  0.00     0.156 C 
BRANCH  11  12
HETATM   12  C   UNL     1      -6.088   4.699 -29.091  1.00  0.00     0.223 C 
HETATM   13  N   UNL     1      -7.434   5.007 -29.068  1.00  0.00    -0.359 N 
HETATM   14  H   UNL     1      -8.092   4.450 -29.606  1.00  0.00     0.162 HD
HETATM   15  O   UNL     1      -5.228   5.468 -28.678  1.00  0.00    -0.273 OA
BRANCH  13  16
HETATM   16  C   UNL     1      -7.852   6.325 -28.588  1.00  0.00     0.150 C 
BRANCH  16  17
HETATM   17  C   UNL     1      -8.752   7.109 -29.564  1.00  0.00     0.254 C 
BRANCH  17  18
HETATM   18  N   UNL     1      -7.951   8.091 -30.397  1.00  0.00    -0.070 N 
HETATM   19  H   UNL     1      -8.484   8.970 -30.484  1.00  0.00     0.279 HD
HETATM   20  C   UNL     1      -7.638   7.607 -31.809  1.00  0.00     0.235 C 
HETATM   21  C   UNL     1      -6.160   7.288 -31.776  1.00  0.00     0.029 C 
HETATM   22  C   UNL     1      -5.603   8.379 -30.887  1.00  0.00     0.029 C 
HETATM   23  C   UNL     1      -6.611   8.457 -29.757  1.00  0.00     0.235 C 
ENDBRANCH  17  18
ENDBRANCH  16  17
ENDBRANCH  13  16
ENDBRANCH  11  12
ENDBRANCH   6  11
BRANCH   7  24
HETATM   24  C   UNL     1      -6.945   1.116 -33.205  1.00  0.00    -0.009 A 
HETATM   25  C   UNL     1      -6.059   0.056 -32.893  1.00  0.00     0.042 A 
HETATM   26 CL   UNL     1      -5.079  -0.019 -31.473  1.00  0.00    -0.084 Cl
HETATM   27  C   UNL     1      -5.899  -1.034 -33.763  1.00  0.00     0.024 A 
HETATM   28  C   UNL     1      -6.583  -1.092 -34.971  1.00  0.00     0.002 A 
HETATM   29  C   UNL     1      -7.410  -0.041 -35.335  1.00  0.00     0.001 A 
HETATM   30  C   UNL     1      -7.575   1.051 -34.477  1.00  0.00     0.011 A 
ENDBRANCH   7  24
BRANCH  10  31
HETATM   31  C   UNL     1      -9.486   3.413 -31.924  1.00  0.00     0.294 C 
HETATM   32  O   UNL     1      -9.579   4.257 -31.047  1.00  0.00    -0.259 OA
BRANCH  31  33
HETATM   33  O   UNL     1     -10.240   2.307 -32.078  1.00  0.00    -0.313 OA
BRANCH  33  34
HETATM   34  C   UNL     1     -10.945   2.165 -33.329  1.00  0.00     0.124 C 
HETATM   35  C   UNL     1     -11.312   0.705 -33.549  1.00  0.00     0.040 C 
HETATM   36  C   UNL     1     -12.189   3.040 -33.238  1.00  0.00     0.040 C 
ENDBRANCH  33  34
ENDBRANCH  31  33
ENDBRANCH  10  31
TORSDOF 9
ENDMDL
MODEL 10
REMARK VINA RESULT:      -7.2      3.339      5.212
REMARK  9 active torsions:
REMARK  status: ('A' for Active; 'I' for Inactive)
REMARK    1  A    between atoms: C_6  and  C_7 
REMARK    2  A    between atoms: C_7  and  C_8 
REMARK       I    between atoms: C_8  and  N_9 
REMARK    3  A    between atoms: N_9  and  C_10 
REMARK    4  A    between atoms: C_10  and  C_11 
REMARK    5  A    between atoms: C_11  and  N_12 
REMARK    6  A    between atoms: C_19  and  C_20 
REMARK    7  A    between atoms: C_29  and  C_30 
REMARK    8  A    between atoms: C_30  and  O_31 
REMARK    9  A    between atoms: O_31  and  C_32 
ROOT
HETATM    1  C   UNL     1      -9.132   5.484 -34.292  1.00  0.00     0.071 C 
HETATM    2  C   UNL     1      -8.154   4.480 -33.733  1.00  0.00     0.048 C 
HETATM    3  N   UNL     1      -6.849   4.640 -34.197  1.00  0.00    -0.229 NA
HETATM    4  C   UNL     1      -5.922   4.226 -33.401  1.00  0.00     0.170 C 
HETATM    5  N   UNL     1      -6.240   3.449 -32.102  1.00  0.00    -0.318 N 
HETATM    6  C   UNL     1      -5.500   3.883 -31.140  1.00  0.00     0.011 C 
HETATM    7  C   UNL     1      -7.444   2.599 -32.279  1.00  0.00     0.168 C 
HETATM    8  S   UNL     1      -4.272   4.726 -33.421  1.00  0.00    -0.086 SA
HETATM    9  C   UNL     1      -4.244   4.620 -31.586  1.00  0.00     0.135 C 
HETATM   10  C   UNL     1      -8.470   3.564 -32.787  1.00  0.00     0.069 C 
ENDROOT
BRANCH   6  11
HETATM   11  C   UNL     1      -5.929   3.713 -29.709  1.00  0.00     0.156 C 
BRANCH  11  12
HETATM   12  C   UNL     1      -5.874   5.018 -28.941  1.00  0.00     0.223 C 
HETATM   13  N   UNL     1      -5.030   5.070 -27.849  1.00  0.00    -0.359 N 
HETATM   14  H   UNL     1      -4.596   4.219 -27.502  1.00  0.00     0.162 HD
HETATM   15  O   UNL     1      -6.615   5.945 -29.247  1.00  0.00    -0.273 OA
BRANCH  13  16
HETATM   16  C   UNL     1      -5.059   6.251 -26.985  1.00  0.00     0.150 C 
BRANCH  16  17
HETATM   17  C   UNL     1      -3.682   6.892 -26.726  1.00  0.00     0.254 C 
BRANCH  17  18
HETATM   18  N   UNL     1      -3.356   7.955 -27.757  1.00  0.00    -0.070 N 
HETATM   19  H   UNL     1      -4.234   8.386 -28.085  1.00  0.00     0.279 HD
HETATM   20  C   UNL     1      -2.620   7.431 -28.986  1.00  0.00     0.235 C 
HETATM   21  C   UNL     1      -1.207   7.948 -28.824  1.00  0.00     0.029 C 
HETATM   22  C   UNL     1      -1.421   9.322 -28.228  1.00  0.00     0.029 C 
HETATM   23  C   UNL     1      -2.500   9.089 -27.190  1.00  0.00     0.235 C 
ENDBRANCH  17  18
ENDBRANCH  16  17
ENDBRANCH  13  16
ENDBRANCH  11  12
ENDBRANCH   6  11
BRANCH   7  24
HETATM   24  C   UNL     1      -7.104   1.369 -33.149  1.00  0.00    -0.009 A 
HETATM   25  C   UNL     1      -6.136   0.379 -32.853  1.00  0.00     0.042 A 
HETATM   26 CL   UNL     1      -5.074   0.419 -31.492  1.00  0.00    -0.084 Cl
HETATM   27  C   UNL     1      -5.956  -0.732 -33.692  1.00  0.00     0.024 A 
HETATM   28  C   UNL     1      -6.703  -0.880 -34.854  1.00  0.00     0.002 A 
HETATM   29  C   UNL     1      -7.614   0.104 -35.205  1.00  0.00     0.001 A 
HETATM   30  C   UNL     1      -7.800   1.215 -34.379  1.00  0.00     0.011 A 
ENDBRANCH   7  24
BRANCH  10  31
HETATM   31  C   UNL     1      -9.685   3.667 -31.952  1.00  0.00     0.294 C 
HETATM   32  O   UNL     1      -9.792   4.512 -31.078  1.00  0.00    -0.259 OA
BRANCH  31  33
HETATM   33  O   UNL     1     -10.439   2.563 -32.119  1.00  0.00    -0.313 OA
BRANCH  33  34
HETATM   34  C   UNL     1     -11.186   2.460 -33.350  1.00  0.00     0.124 C 
HETATM   35  C   UNL     1     -11.517   1.002 -33.629  1.00  0.00     0.040 C 
HETATM   36  C   UNL     1     -12.450   3.291 -33.172  1.00  0.00     0.040 C 
ENDBRANCH  33  34
ENDBRANCH  31  33
ENDBRANCH  10  31
TORSDOF 9
ENDMDL
