MODEL 1
REMARK VINA RESULT:      -9.8      0.000      0.000
REMARK  7 active torsions:
REMARK  status: ('A' for Active; 'I' for Inactive)
REMARK    1  A    between atoms: N_6  and  C_7 
REMARK    2  A    between atoms: C_11  and  N_12 
REMARK    3  A    between atoms: N_12  and  C_13 
REMARK    4  A    between atoms: C_13  and  N_14 
REMARK       I    between atoms: N_14  and  C_15 
REMARK    5  A    between atoms: C_15  and  C_16 
REMARK    6  A    between atoms: C_17  and  C_18 
REMARK    7  A    between atoms: C_20  and  C_21 
ROOT
HETATM    1  C   UNL     1      -2.519   4.664 -33.642  1.00  0.00     0.179 C 
HETATM    2  S   UNL     1      -3.545   5.285 -34.804  1.00  0.00    -0.040 SA
ENDROOT
BRANCH   1   3
HETATM    3  N   UNL     1      -1.473   5.475 -33.286  1.00  0.00    -0.333 N 
HETATM    4  H   UNL     1      -0.784   5.525 -34.034  1.00  0.00     0.168 HD
BRANCH   3   5
HETATM    5  C   UNL     1      -1.107   6.123 -32.090  1.00  0.00     0.036 A 
HETATM    6  C   UNL     1      -0.223   5.431 -31.259  1.00  0.00     0.055 A 
HETATM    7  C   UNL     1       0.140   5.941 -30.007  1.00  0.00     0.062 A 
HETATM    8  C   UNL     1      -0.357   7.177 -29.538  1.00  0.00     0.052 A 
HETATM    9 CL   UNL     1       1.126   4.916 -29.008  1.00  0.00    -0.082 Cl
HETATM   10  C   UNL     1      -1.236   7.861 -30.393  1.00  0.00     0.033 A 
HETATM   11  C   UNL     1      -1.616   7.341 -31.644  1.00  0.00     0.032 A 
BRANCH   8  12
HETATM   12  N   UNL     1      -0.054   7.661 -28.268  1.00  0.00    -0.376 N 
HETATM   13  C   UNL     1      -0.702   7.022 -27.110  1.00  0.00     0.150 C 
HETATM   14  C   UNL     1      -0.928   8.089 -26.017  1.00  0.00     0.254 C 
HETATM   15  N   UNL     1       0.396   8.780 -25.656  1.00  0.00    -0.072 N 
HETATM   16  C   UNL     1       0.193   9.846 -24.619  1.00  0.00     0.269 C 
HETATM   17  H   UNL     1       1.011   8.062 -25.256  1.00  0.00     0.279 HD
HETATM   18  C   UNL     1       1.099   9.338 -26.899  1.00  0.00     0.254 C 
HETATM   19  C   UNL     1       1.260   8.252 -27.988  1.00  0.00     0.150 C 
ENDBRANCH   8  12
ENDBRANCH   3   5
ENDBRANCH   1   3
BRANCH   1  20
HETATM   20  N   UNL     1      -2.642   3.468 -32.959  1.00  0.00    -0.300 N 
HETATM   21  C   UNL     1      -3.267   3.033 -31.800  1.00  0.00     0.247 C 
HETATM   22  O   UNL     1      -2.777   2.089 -31.185  1.00  0.00    -0.268 OA
HETATM   23  H   UNL     1      -1.856   2.855 -33.130  1.00  0.00     0.171 HD
BRANCH  21  24
HETATM   24  C   UNL     1      -4.487   3.726 -31.328  1.00  0.00     0.077 C 
HETATM   25  C   UNL     1      -5.736   3.443 -31.728  1.00  0.00     0.042 C 
BRANCH  25  26
HETATM   26  C   UNL     1      -6.055   2.516 -32.751  1.00  0.00     0.076 A 
HETATM   27  O   UNL     1      -5.690   1.187 -32.732  1.00  0.00    -0.310 OA
HETATM   28  C   UNL     1      -6.145   0.599 -33.875  1.00  0.00     0.086 A 
HETATM   29  C   UNL     1      -6.803   1.529 -34.648  1.00  0.00     0.041 A 
HETATM   30  C   UNL     1      -6.721   2.753 -33.946  1.00  0.00     0.040 A 
BRANCH  28  31
HETATM   31  C   UNL     1      -5.855  -0.818 -34.030  1.00  0.00    -0.002 A 
HETATM   32  C   UNL     1      -6.814  -1.683 -34.576  1.00  0.00     0.016 A 
HETATM   33  C   UNL     1      -6.534  -3.043 -34.744  1.00  0.00     0.024 A 
HETATM   34  C   UNL     1      -5.286  -3.542 -34.376  1.00  0.00     0.034 A 
HETATM   35 CL   UNL     1      -4.940  -5.216 -34.570  1.00  0.00    -0.084 Cl
HETATM   36  C   UNL     1      -4.318  -2.695 -33.842  1.00  0.00     0.024 A 
HETATM   37  C   UNL     1      -4.605  -1.338 -33.664  1.00  0.00     0.016 A 
ENDBRANCH  28  31
ENDBRANCH  25  26
ENDBRANCH  21  24
ENDBRANCH   1  20
TORSDOF 7
ENDMDL
MODEL 2
REMARK VINA RESULT:      -9.5      4.115      8.106
REMARK  7 active torsions:
REMARK  status: ('A' for Active; 'I' for Inactive)
REMARK    1  A    between atoms: N_6  and  C_7 
REMARK    2  A    between atoms: C_11  and  N_12 
REMARK    3  A    between atoms: N_12  and  C_13 
REMARK    4  A    between atoms: C_13  and  N_14 
REMARK       I    between atoms: N_14  and  C_15 
REMARK    5  A    between atoms: C_15  and  C_16 
REMARK    6  A    between atoms: C_17  and  C_18 
REMARK    7  A    between atoms: C_20  and  C_21 
ROOT
HETATM    1  C   UNL     1      -3.643   7.127 -29.692  1.00  0.00     0.179 C 
HETATM    2  S   UNL     1      -3.848   7.734 -28.150  1.00  0.00    -0.040 SA
ENDROOT
BRANCH   1   3
HETATM    3  N   UNL     1      -4.009   5.817 -29.863  1.00  0.00    -0.333 N 
HETATM    4  H   UNL     1      -3.197   5.205 -29.819  1.00  0.00     0.168 HD
BRANCH   3   5
HETATM    5  C   UNL     1      -5.219   5.182 -30.207  1.00  0.00     0.036 A 
HETATM    6  C   UNL     1      -5.904   5.713 -31.302  1.00  0.00     0.055 A 
HETATM    7  C   UNL     1      -7.158   5.217 -31.678  1.00  0.00     0.062 A 
HETATM    8  C   UNL     1      -7.775   4.155 -30.980  1.00  0.00     0.052 A 
HETATM    9 CL   UNL     1      -7.972   6.059 -32.962  1.00  0.00    -0.082 Cl
HETATM   10  C   UNL     1      -7.065   3.630 -29.889  1.00  0.00     0.033 A 
HETATM   11  C   UNL     1      -5.813   4.139 -29.498  1.00  0.00     0.032 A 
BRANCH   8  12
HETATM   12  N   UNL     1      -9.050   3.698 -31.305  1.00  0.00    -0.376 N 
HETATM   13  C   UNL     1      -9.194   2.300 -31.745  1.00  0.00     0.150 C 
HETATM   14  C   UNL     1     -10.344   2.220 -32.773  1.00  0.00     0.254 C 
HETATM   15  N   UNL     1     -11.638   2.798 -32.181  1.00  0.00    -0.072 N 
HETATM   16  C   UNL     1     -12.760   2.761 -33.176  1.00  0.00     0.269 C 
HETATM   17  H   UNL     1     -11.899   2.200 -31.387  1.00  0.00     0.279 HD
HETATM   18  C   UNL     1     -11.425   4.213 -31.631  1.00  0.00     0.254 C 
HETATM   19  C   UNL     1     -10.235   4.260 -30.646  1.00  0.00     0.150 C 
ENDBRANCH   8  12
ENDBRANCH   3   5
ENDBRANCH   1   3
BRANCH   1  20
HETATM   20  N   UNL     1      -3.211   7.805 -30.817  1.00  0.00    -0.300 N 
HETATM   21  C   UNL     1      -1.998   8.262 -31.310  1.00  0.00     0.247 C 
HETATM   22  O   UNL     1      -1.994   9.257 -32.032  1.00  0.00    -0.268 OA
HETATM   23  H   UNL     1      -3.938   8.392 -31.204  1.00  0.00     0.171 HD
BRANCH  21  24
HETATM   24  C   UNL     1      -0.751   7.557 -30.941  1.00  0.00     0.077 C 
HETATM   25  C   UNL     1      -0.388   6.346 -31.393  1.00  0.00     0.042 C 
BRANCH  25  26
HETATM   26  C   UNL     1      -1.208   5.518 -32.199  1.00  0.00     0.076 A 
HETATM   27  O   UNL     1      -2.050   4.547 -31.704  1.00  0.00    -0.310 OA
HETATM   28  C   UNL     1      -2.668   3.936 -32.755  1.00  0.00     0.086 A 
HETATM   29  C   UNL     1      -2.239   4.496 -33.937  1.00  0.00     0.041 A 
HETATM   30  C   UNL     1      -1.291   5.482 -33.585  1.00  0.00     0.040 A 
BRANCH  28  31
HETATM   31  C   UNL     1      -3.607   2.876 -32.423  1.00  0.00    -0.002 A 
HETATM   32  C   UNL     1      -3.360   2.022 -31.339  1.00  0.00     0.016 A 
HETATM   33  C   UNL     1      -4.269   1.012 -31.005  1.00  0.00     0.024 A 
HETATM   34  C   UNL     1      -5.436   0.859 -31.750  1.00  0.00     0.034 A 
HETATM   35 CL   UNL     1      -6.552  -0.388 -31.350  1.00  0.00    -0.084 Cl
HETATM   36  C   UNL     1      -5.703   1.705 -32.823  1.00  0.00     0.024 A 
HETATM   37  C   UNL     1      -4.787   2.706 -33.162  1.00  0.00     0.016 A 
ENDBRANCH  28  31
ENDBRANCH  25  26
ENDBRANCH  21  24
ENDBRANCH   1  20
TORSDOF 7
ENDMDL
MODEL 3
REMARK VINA RESULT:      -9.4      4.539      8.862
REMARK  7 active torsions:
REMARK  status: ('A' for Active; 'I' for Inactive)
REMARK    1  A    between atoms: N_6  and  C_7 
REMARK    2  A    between atoms: C_11  and  N_12 
REMARK    3  A    between atoms: N_12  and  C_13 
REMARK    4  A    between atoms: C_13  and  N_14 
REMARK       I    between atoms: N_14  and  C_15 
REMARK    5  A    between atoms: C_15  and  C_16 
REMARK    6  A    between atoms: C_17  and  C_18 
REMARK    7  A    between atoms: C_20  and  C_21 
ROOT
HETATM    1  C   UNL     1      -5.002   4.814 -33.843  1.00  0.00     0.179 C 
HETATM    2  S   UNL     1      -3.958   5.145 -35.104  1.00  0.00    -0.040 SA
ENDROOT
BRANCH   1   3
HETATM    3  N   UNL     1      -5.937   3.845 -34.092  1.00  0.00    -0.333 N 
HETATM    4  H   UNL     1      -5.523   3.064 -34.599  1.00  0.00     0.168 HD
BRANCH   3   5
HETATM    5  C   UNL     1      -7.333   3.770 -33.914  1.00  0.00     0.036 A 
HETATM    6  C   UNL     1      -7.862   2.490 -33.728  1.00  0.00     0.055 A 
HETATM    7  C   UNL     1      -9.244   2.289 -33.629  1.00  0.00     0.062 A 
HETATM    8  C   UNL     1     -10.157   3.365 -33.698  1.00  0.00     0.052 A 
HETATM    9 CL   UNL     1      -9.784   0.638 -33.550  1.00  0.00    -0.082 Cl
HETATM   10  C   UNL     1      -9.602   4.642 -33.875  1.00  0.00     0.033 A 
HETATM   11  C   UNL     1      -8.216   4.845 -33.993  1.00  0.00     0.032 A 
BRANCH   8  12
HETATM   12  N   UNL     1     -11.536   3.168 -33.667  1.00  0.00    -0.376 N 
HETATM   13  C   UNL     1     -12.336   4.014 -32.765  1.00  0.00     0.150 C 
HETATM   14  C   UNL     1     -13.539   3.193 -32.253  1.00  0.00     0.254 C 
HETATM   15  N   UNL     1     -14.352   2.636 -33.431  1.00  0.00    -0.072 N 
HETATM   16  C   UNL     1     -15.508   1.806 -32.956  1.00  0.00     0.269 C 
HETATM   17  H   UNL     1     -14.731   3.442 -33.943  1.00  0.00     0.279 HD
HETATM   18  C   UNL     1     -13.468   1.854 -34.410  1.00  0.00     0.254 C 
HETATM   19  C   UNL     1     -12.249   2.693 -34.858  1.00  0.00     0.150 C 
ENDBRANCH   8  12
ENDBRANCH   3   5
ENDBRANCH   1   3
BRANCH   1  20
HETATM   20  N   UNL     1      -4.987   5.354 -32.571  1.00  0.00    -0.300 N 
HETATM   21  C   UNL     1      -4.366   5.066 -31.364  1.00  0.00     0.247 C 
HETATM   22  O   UNL     1      -4.934   5.379 -30.320  1.00  0.00    -0.268 OA
HETATM   23  H   UNL     1      -5.843   5.849 -32.362  1.00  0.00     0.171 HD
BRANCH  21  24
HETATM   24  C   UNL     1      -3.056   4.376 -31.367  1.00  0.00     0.077 C 
HETATM   25  C   UNL     1      -2.884   3.052 -31.495  1.00  0.00     0.042 C 
BRANCH  25  26
HETATM   26  C   UNL     1      -3.942   2.110 -31.528  1.00  0.00     0.076 A 
HETATM   27  O   UNL     1      -4.024   1.071 -32.430  1.00  0.00    -0.310 OA
HETATM   28  C   UNL     1      -5.174   0.379 -32.186  1.00  0.00     0.086 A 
HETATM   29  C   UNL     1      -5.850   0.954 -31.134  1.00  0.00     0.041 A 
HETATM   30  C   UNL     1      -5.080   2.071 -30.734  1.00  0.00     0.040 A 
BRANCH  28  31
HETATM   31  C   UNL     1      -5.431  -0.766 -33.044  1.00  0.00    -0.002 A 
HETATM   32  C   UNL     1      -4.374  -1.574 -33.488  1.00  0.00     0.016 A 
HETATM   33  C   UNL     1      -4.619  -2.687 -34.299  1.00  0.00     0.024 A 
HETATM   34  C   UNL     1      -5.926  -3.004 -34.660  1.00  0.00     0.034 A 
HETATM   35 CL   UNL     1      -6.232  -4.366 -35.666  1.00  0.00    -0.084 Cl
HETATM   36  C   UNL     1      -6.989  -2.220 -34.220  1.00  0.00     0.024 A 
HETATM   37  C   UNL     1      -6.741  -1.101 -33.420  1.00  0.00     0.016 A 
ENDBRANCH  28  31
ENDBRANCH  25  26
ENDBRANCH  21  24
ENDBRANCH   1  20
TORSDOF 7
ENDMDL
MODEL 4
REMARK VINA RESULT:      -9.4      3.952      8.911
REMARK  7 active torsions:
REMARK  status: ('A' for Active; 'I' for Inactive)
REMARK    1  A    between atoms: N_6  and  C_7 
REMARK    2  A    between atoms: C_11  and  N_12 
REMARK    3  A    between atoms: N_12  and  C_13 
REMARK    4  A    between atoms: C_13  and  N_14 
REMARK       I    between atoms: N_14  and  C_15 
REMARK    5  A    between atoms: C_15  and  C_16 
REMARK    6  A    between atoms: C_17  and  C_18 
REMARK    7  A    between atoms: C_20  and  C_21 
ROOT
HETATM    1  C   UNL     1      -4.228   7.049 -27.371  1.00  0.00     0.179 C 
HETATM    2  S   UNL     1      -5.286   8.325 -27.166  1.00  0.00    -0.040 SA
ENDROOT
BRANCH   1   3
HETATM    3  N   UNL     1      -4.006   6.672 -28.669  1.00  0.00    -0.333 N 
HETATM    4  H   UNL     1      -3.130   7.061 -29.014  1.00  0.00     0.168 HD
BRANCH   3   5
HETATM    5  C   UNL     1      -4.779   5.993 -29.632  1.00  0.00     0.036 A 
HETATM    6  C   UNL     1      -5.126   4.675 -29.324  1.00  0.00     0.055 A 
HETATM    7  C   UNL     1      -5.817   3.877 -30.244  1.00  0.00     0.062 A 
HETATM    8  C   UNL     1      -6.203   4.372 -31.510  1.00  0.00     0.052 A 
HETATM    9 CL   UNL     1      -6.057   2.214 -29.802  1.00  0.00    -0.082 Cl
HETATM   10  C   UNL     1      -5.853   5.701 -31.794  1.00  0.00     0.033 A 
HETATM   11  C   UNL     1      -5.143   6.498 -30.878  1.00  0.00     0.032 A 
BRANCH   8  12
HETATM   12  N   UNL     1      -6.832   3.567 -32.457  1.00  0.00    -0.376 N 
HETATM   13  C   UNL     1      -8.302   3.470 -32.418  1.00  0.00     0.150 C 
HETATM   14  C   UNL     1      -8.718   2.057 -32.880  1.00  0.00     0.254 C 
HETATM   15  N   UNL     1      -8.134   1.749 -34.267  1.00  0.00    -0.072 N 
HETATM   16  C   UNL     1      -8.498   0.366 -34.721  1.00  0.00     0.269 C 
HETATM   17  H   UNL     1      -8.552   2.418 -34.925  1.00  0.00     0.279 HD
HETATM   18  C   UNL     1      -6.616   1.967 -34.303  1.00  0.00     0.254 C 
HETATM   19  C   UNL     1      -6.239   3.374 -33.785  1.00  0.00     0.150 C 
ENDBRANCH   8  12
ENDBRANCH   3   5
ENDBRANCH   1   3
BRANCH   1  20
HETATM   20  N   UNL     1      -3.510   6.383 -26.396  1.00  0.00    -0.300 N 
HETATM   21  C   UNL     1      -2.198   6.375 -25.944  1.00  0.00     0.247 C 
HETATM   22  O   UNL     1      -1.751   5.340 -25.454  1.00  0.00    -0.268 OA
HETATM   23  H   UNL     1      -3.910   5.479 -26.186  1.00  0.00     0.171 HD
BRANCH  21  24
HETATM   24  C   UNL     1      -1.374   7.596 -26.082  1.00  0.00     0.077 C 
HETATM   25  C   UNL     1      -0.617   7.897 -27.148  1.00  0.00     0.042 C 
BRANCH  25  26
HETATM   26  C   UNL     1      -0.407   7.028 -28.248  1.00  0.00     0.076 A 
HETATM   27  O   UNL     1      -1.215   6.985 -29.363  1.00  0.00    -0.310 OA
HETATM   28  C   UNL     1      -0.733   6.029 -30.208  1.00  0.00     0.086 A 
HETATM   29  C   UNL     1       0.384   5.441 -29.657  1.00  0.00     0.041 A 
HETATM   30  C   UNL     1       0.573   6.058 -28.399  1.00  0.00     0.040 A 
BRANCH  28  31
HETATM   31  C   UNL     1      -1.461   5.841 -31.453  1.00  0.00    -0.002 A 
HETATM   32  C   UNL     1      -1.608   6.902 -32.357  1.00  0.00     0.016 A 
HETATM   33  C   UNL     1      -2.292   6.722 -33.564  1.00  0.00     0.024 A 
HETATM   34  C   UNL     1      -2.823   5.472 -33.876  1.00  0.00     0.034 A 
HETATM   35 CL   UNL     1      -3.674   5.247 -35.354  1.00  0.00    -0.084 Cl
HETATM   36  C   UNL     1      -2.677   4.404 -32.995  1.00  0.00     0.024 A 
HETATM   37  C   UNL     1      -2.004   4.591 -31.784  1.00  0.00     0.016 A 
ENDBRANCH  28  31
ENDBRANCH  25  26
ENDBRANCH  21  24
ENDBRANCH   1  20
TORSDOF 7
ENDMDL
MODEL 5
REMARK VINA RESULT:      -9.2      4.505      8.297
REMARK  7 active torsions:
REMARK  status: ('A' for Active; 'I' for Inactive)
REMARK    1  A    between atoms: N_6  and  C_7 
REMARK    2  A    between atoms: C_11  and  N_12 
REMARK    3  A    between atoms: N_12  and  C_13 
REMARK    4  A    between atoms: C_13  and  N_14 
REMARK       I    between atoms: N_14  and  C_15 
REMARK    5  A    between atoms: C_15  and  C_16 
REMARK    6  A    between atoms: C_17  and  C_18 
REMARK    7  A    between atoms: C_20  and  C_21 
ROOT
HETATM    1  C   UNL     1      -4.804   6.402 -32.347  1.00  0.00     0.179 C 
HETATM    2  S   UNL     1      -4.114   7.269 -31.097  1.00  0.00    -0.040 SA
ENDROOT
BRANCH   1   3
HETATM    3  N   UNL     1      -6.134   6.644 -32.566  1.00  0.00    -0.333 N 
HETATM    4  H   UNL     1      -6.341   7.637 -32.476  1.00  0.00     0.168 HD
BRANCH   3   5
HETATM    5  C   UNL     1      -7.257   5.814 -32.754  1.00  0.00     0.036 A 
HETATM    6  C   UNL     1      -7.976   5.481 -31.603  1.00  0.00     0.055 A 
HETATM    7  C   UNL     1      -9.056   4.592 -31.659  1.00  0.00     0.062 A 
HETATM    8  C   UNL     1      -9.472   4.008 -32.876  1.00  0.00     0.052 A 
HETATM    9 CL   UNL     1      -9.771   4.144 -30.140  1.00  0.00    -0.082 Cl
HETATM   10  C   UNL     1      -8.743   4.364 -34.021  1.00  0.00     0.033 A 
HETATM   11  C   UNL     1      -7.646   5.243 -33.964  1.00  0.00     0.032 A 
BRANCH   8  12
HETATM   12  N   UNL     1     -10.504   3.073 -32.932  1.00  0.00    -0.376 N 
HETATM   13  C   UNL     1     -10.168   1.657 -32.704  1.00  0.00     0.150 C 
HETATM   14  C   UNL     1     -11.108   0.781 -33.560  1.00  0.00     0.254 C 
HETATM   15  N   UNL     1     -12.578   1.105 -33.251  1.00  0.00    -0.072 N 
HETATM   16  C   UNL     1     -13.509   0.288 -34.097  1.00  0.00     0.269 C 
HETATM   17  H   UNL     1     -12.741   0.855 -32.268  1.00  0.00     0.279 HD
HETATM   18  C   UNL     1     -12.867   2.605 -33.390  1.00  0.00     0.254 C 
HETATM   19  C   UNL     1     -11.872   3.448 -32.559  1.00  0.00     0.150 C 
ENDBRANCH   8  12
ENDBRANCH   3   5
ENDBRANCH   1   3
BRANCH   1  20
HETATM   20  N   UNL     1      -4.176   5.529 -33.216  1.00  0.00    -0.300 N 
HETATM   21  C   UNL     1      -3.086   4.674 -33.166  1.00  0.00     0.247 C 
HETATM   22  O   UNL     1      -2.469   4.445 -34.205  1.00  0.00    -0.268 OA
HETATM   23  H   UNL     1      -4.308   5.800 -34.181  1.00  0.00     0.171 HD
BRANCH  21  24
HETATM   24  C   UNL     1      -2.684   4.081 -31.871  1.00  0.00     0.077 C 
HETATM   25  C   UNL     1      -3.221   2.977 -31.330  1.00  0.00     0.042 C 
BRANCH  25  26
HETATM   26  C   UNL     1      -4.334   2.286 -31.870  1.00  0.00     0.076 A 
HETATM   27  O   UNL     1      -4.260   1.044 -32.462  1.00  0.00    -0.310 OA
HETATM   28  C   UNL     1      -5.509   0.692 -32.881  1.00  0.00     0.086 A 
HETATM   29  C   UNL     1      -6.404   1.691 -32.571  1.00  0.00     0.041 A 
HETATM   30  C   UNL     1      -5.652   2.716 -31.953  1.00  0.00     0.040 A 
BRANCH  28  31
HETATM   31  C   UNL     1      -5.629  -0.603 -33.533  1.00  0.00    -0.002 A 
HETATM   32  C   UNL     1      -4.504  -1.424 -33.694  1.00  0.00     0.016 A 
HETATM   33  C   UNL     1      -4.618  -2.678 -34.304  1.00  0.00     0.024 A 
HETATM   34  C   UNL     1      -5.863  -3.120 -34.747  1.00  0.00     0.034 A 
HETATM   35 CL   UNL     1      -6.006  -4.657 -35.507  1.00  0.00    -0.084 Cl
HETATM   36  C   UNL     1      -6.993  -2.323 -34.584  1.00  0.00     0.024 A 
HETATM   37  C   UNL     1      -6.874  -1.065 -33.986  1.00  0.00     0.016 A 
ENDBRANCH  28  31
ENDBRANCH  25  26
ENDBRANCH  21  24
ENDBRANCH   1  20
TORSDOF 7
ENDMDL
MODEL 6
REMARK VINA RESULT:      -8.9      4.617      7.100
REMARK  7 active torsions:
REMARK  status: ('A' for Active; 'I' for Inactive)
REMARK    1  A    between atoms: N_6  and  C_7 
REMARK    2  A    between atoms: C_11  and  N_12 
REMARK    3  A    between atoms: N_12  and  C_13 
REMARK    4  A    between atoms: C_13  and  N_14 
REMARK       I    between atoms: N_14  and  C_15 
REMARK    5  A    between atoms: C_15  and  C_16 
REMARK    6  A    between atoms: C_17  and  C_18 
REMARK    7  A    between atoms: C_20  and  C_21 
ROOT
HETATM    1  C   UNL     1     -11.485   4.050 -31.152  1.00  0.00     0.179 C 
HETATM    2  S   UNL     1     -11.529   5.695 -30.863  1.00  0.00    -0.040 SA
ENDROOT
BRANCH   1   3
HETATM    3  N   UNL     1     -10.347   3.410 -30.736  1.00  0.00    -0.333 N 
HETATM    4  H   UNL     1     -10.577   2.574 -30.203  1.00  0.00     0.168 HD
BRANCH   3   5
HETATM    5  C   UNL     1      -8.977   3.734 -30.781  1.00  0.00     0.036 A 
HETATM    6  C   UNL     1      -8.453   4.025 -32.044  1.00  0.00     0.055 A 
HETATM    7  C   UNL     1      -7.087   4.275 -32.218  1.00  0.00     0.062 A 
HETATM    8  C   UNL     1      -6.186   4.257 -31.130  1.00  0.00     0.052 A 
HETATM    9 CL   UNL     1      -6.538   4.475 -33.855  1.00  0.00    -0.082 Cl
HETATM   10  C   UNL     1      -6.734   3.972 -29.870  1.00  0.00     0.033 A 
HETATM   11  C   UNL     1      -8.104   3.704 -29.695  1.00  0.00     0.032 A 
BRANCH   8  12
HETATM   12  N   UNL     1      -4.815   4.438 -31.303  1.00  0.00    -0.376 N 
HETATM   13  C   UNL     1      -4.180   5.591 -30.641  1.00  0.00     0.150 C 
HETATM   14  C   UNL     1      -3.017   6.091 -31.525  1.00  0.00     0.254 C 
HETATM   15  N   UNL     1      -2.031   4.949 -31.816  1.00  0.00    -0.072 N 
HETATM   16  C   UNL     1      -0.910   5.406 -32.703  1.00  0.00     0.269 C 
HETATM   17  H   UNL     1      -1.627   4.664 -30.916  1.00  0.00     0.279 HD
HETATM   18  C   UNL     1      -2.743   3.724 -32.402  1.00  0.00     0.254 C 
HETATM   19  C   UNL     1      -3.931   3.286 -31.514  1.00  0.00     0.150 C 
ENDBRANCH   8  12
ENDBRANCH   3   5
ENDBRANCH   1   3
BRANCH   1  20
HETATM   20  N   UNL     1     -12.481   3.261 -31.696  1.00  0.00    -0.300 N 
HETATM   21  C   UNL     1     -13.075   3.109 -32.940  1.00  0.00     0.247 C 
HETATM   22  O   UNL     1     -14.245   2.735 -32.992  1.00  0.00    -0.268 OA
HETATM   23  H   UNL     1     -13.155   2.973 -30.999  1.00  0.00     0.171 HD
BRANCH  21  24
HETATM   24  C   UNL     1     -12.297   3.419 -34.160  1.00  0.00     0.077 C 
HETATM   25  C   UNL     1     -11.257   2.702 -34.612  1.00  0.00     0.042 C 
BRANCH  25  26
HETATM   26  C   UNL     1     -10.681   1.609 -33.919  1.00  0.00     0.076 A 
HETATM   27  O   UNL     1      -9.339   1.502 -33.622  1.00  0.00    -0.310 OA
HETATM   28  C   UNL     1      -9.135   0.323 -32.968  1.00  0.00     0.086 A 
HETATM   29  C   UNL     1     -10.329  -0.348 -32.833  1.00  0.00     0.041 A 
HETATM   30  C   UNL     1     -11.307   0.457 -33.462  1.00  0.00     0.040 A 
BRANCH  28  31
HETATM   31  C   UNL     1      -7.767   0.037 -32.567  1.00  0.00    -0.002 A 
HETATM   32  C   UNL     1      -6.905  -0.659 -33.427  1.00  0.00     0.016 A 
HETATM   33  C   UNL     1      -5.583  -0.921 -33.053  1.00  0.00     0.024 A 
HETATM   34  C   UNL     1      -5.113  -0.476 -31.819  1.00  0.00     0.034 A 
HETATM   35 CL   UNL     1      -3.491  -0.805 -31.350  1.00  0.00    -0.084 Cl
HETATM   36  C   UNL     1      -5.951   0.226 -30.957  1.00  0.00     0.024 A 
HETATM   37  C   UNL     1      -7.276   0.476 -31.328  1.00  0.00     0.016 A 
ENDBRANCH  28  31
ENDBRANCH  25  26
ENDBRANCH  21  24
ENDBRANCH   1  20
TORSDOF 7
ENDMDL
MODEL 7
REMARK VINA RESULT:      -8.8      3.234      5.054
REMARK  7 active torsions:
REMARK  status: ('A' for Active; 'I' for Inactive)
REMARK    1  A    between atoms: N_6  and  C_7 
REMARK    2  A    between atoms: C_11  and  N_12 
REMARK    3  A    between atoms: N_12  and  C_13 
REMARK    4  A    between atoms: C_13  and  N_14 
REMARK       I    between atoms: N_14  and  C_15 
REMARK    5  A    between atoms: C_15  and  C_16 
REMARK    6  A    between atoms: C_17  and  C_18 
REMARK    7  A    between atoms: C_20  and  C_21 
ROOT
HETATM    1  C   UNL     1      -9.611   4.441 -33.350  1.00  0.00     0.179 C 
HETATM    2  S   UNL     1     -10.567   5.806 -33.235  1.00  0.00    -0.040 SA
ENDROOT
BRANCH   1   3
HETATM    3  N   UNL     1      -8.365   4.639 -33.885  1.00  0.00    -0.333 N 
HETATM    4  H   UNL     1      -8.290   4.195 -34.799  1.00  0.00     0.168 HD
BRANCH   3   5
HETATM    5  C   UNL     1      -7.170   5.196 -33.389  1.00  0.00     0.036 A 
HETATM    6  C   UNL     1      -6.016   4.942 -34.135  1.00  0.00     0.055 A 
HETATM    7  C   UNL     1      -4.760   5.372 -33.690  1.00  0.00     0.062 A 
HETATM    8  C   UNL     1      -4.608   6.089 -32.482  1.00  0.00     0.052 A 
HETATM    9 CL   UNL     1      -3.389   4.864 -34.630  1.00  0.00    -0.082 Cl
HETATM   10  C   UNL     1      -5.781   6.341 -31.754  1.00  0.00     0.033 A 
HETATM   11  C   UNL     1      -7.041   5.894 -32.191  1.00  0.00     0.032 A 
BRANCH   8  12
HETATM   12  N   UNL     1      -3.356   6.463 -31.999  1.00  0.00    -0.376 N 
HETATM   13  C   UNL     1      -2.671   7.592 -32.650  1.00  0.00     0.150 C 
HETATM   14  C   UNL     1      -1.148   7.343 -32.600  1.00  0.00     0.254 C 
HETATM   15  N   UNL     1      -0.686   7.116 -31.153  1.00  0.00    -0.072 N 
HETATM   16  C   UNL     1       0.787   6.838 -31.085  1.00  0.00     0.269 C 
HETATM   17  H   UNL     1      -0.868   7.987 -30.639  1.00  0.00     0.279 HD
HETATM   18  C   UNL     1      -1.495   6.009 -30.468  1.00  0.00     0.254 C 
HETATM   19  C   UNL     1      -3.015   6.270 -30.585  1.00  0.00     0.150 C 
ENDBRANCH   8  12
ENDBRANCH   3   5
ENDBRANCH   1   3
BRANCH   1  20
HETATM   20  N   UNL     1      -9.907   3.164 -32.911  1.00  0.00    -0.300 N 
HETATM   21  C   UNL     1      -9.403   2.287 -31.961  1.00  0.00     0.247 C 
HETATM   22  O   UNL     1      -9.514   1.079 -32.159  1.00  0.00    -0.268 OA
HETATM   23  H   UNL     1     -10.349   2.611 -33.632  1.00  0.00     0.171 HD
BRANCH  21  24
HETATM   24  C   UNL     1      -8.733   2.825 -30.756  1.00  0.00     0.077 C 
HETATM   25  C   UNL     1      -7.413   2.776 -30.523  1.00  0.00     0.042 C 
BRANCH  25  26
HETATM   26  C   UNL     1      -6.483   2.095 -31.347  1.00  0.00     0.076 A 
HETATM   27  O   UNL     1      -6.731   0.883 -31.954  1.00  0.00    -0.310 OA
HETATM   28  C   UNL     1      -5.619   0.515 -32.652  1.00  0.00     0.086 A 
HETATM   29  C   UNL     1      -4.641   1.473 -32.509  1.00  0.00     0.041 A 
HETATM   30  C   UNL     1      -5.181   2.463 -31.657  1.00  0.00     0.040 A 
BRANCH  28  31
HETATM   31  C   UNL     1      -5.696  -0.748 -33.369  1.00  0.00    -0.002 A 
HETATM   32  C   UNL     1      -4.535  -1.492 -33.625  1.00  0.00     0.016 A 
HETATM   33  C   UNL     1      -4.606  -2.716 -34.298  1.00  0.00     0.024 A 
HETATM   34  C   UNL     1      -5.843  -3.208 -34.708  1.00  0.00     0.034 A 
HETATM   35 CL   UNL     1      -5.935  -4.708 -35.545  1.00  0.00    -0.084 Cl
HETATM   36  C   UNL     1      -7.008  -2.488 -34.452  1.00  0.00     0.024 A 
HETATM   37  C   UNL     1      -6.932  -1.259 -33.790  1.00  0.00     0.016 A 
ENDBRANCH  28  31
ENDBRANCH  25  26
ENDBRANCH  21  24
ENDBRANCH   1  20
TORSDOF 7
ENDMDL
MODEL 8
REMARK VINA RESULT:      -8.6      4.909      8.779
REMARK  7 active torsions:
REMARK  status: ('A' for Active; 'I' for Inactive)
REMARK    1  A    between atoms: N_6  and  C_7 
REMARK    2  A    between atoms: C_11  and  N_12 
REMARK    3  A    between atoms: N_12  and  C_13 
REMARK    4  A    between atoms: C_13  and  N_14 
REMARK       I    between atoms: N_14  and  C_15 
REMARK    5  A    between atoms: C_15  and  C_16 
REMARK    6  A    between atoms: C_17  and  C_18 
REMARK    7  A    between atoms: C_20  and  C_21 
ROOT
HETATM    1  C   UNL     1      -6.051   5.428 -29.157  1.00  0.00     0.179 C 
HETATM    2  S   UNL     1      -5.221   6.763 -28.595  1.00  0.00    -0.040 SA
ENDROOT
BRANCH   1   3
HETATM    3  N   UNL     1      -7.288   5.684 -29.687  1.00  0.00    -0.333 N 
HETATM    4  H   UNL     1      -7.631   6.594 -29.383  1.00  0.00     0.168 HD
BRANCH   3   5
HETATM    5  C   UNL     1      -8.207   4.917 -30.431  1.00  0.00     0.036 A 
HETATM    6  C   UNL     1      -8.594   5.446 -31.665  1.00  0.00     0.055 A 
HETATM    7  C   UNL     1      -9.567   4.813 -32.448  1.00  0.00     0.062 A 
HETATM    8  C   UNL     1     -10.185   3.612 -32.034  1.00  0.00     0.052 A 
HETATM    9 CL   UNL     1     -10.068   5.649 -33.887  1.00  0.00    -0.082 Cl
HETATM   10  C   UNL     1      -9.774   3.093 -30.796  1.00  0.00     0.033 A 
HETATM   11  C   UNL     1      -8.810   3.737 -30.000  1.00  0.00     0.032 A 
BRANCH   8  12
HETATM   12  N   UNL     1     -11.200   3.010 -32.774  1.00  0.00    -0.376 N 
HETATM   13  C   UNL     1     -12.518   3.668 -32.806  1.00  0.00     0.150 C 
HETATM   14  C   UNL     1     -13.611   2.583 -32.906  1.00  0.00     0.254 C 
HETATM   15  N   UNL     1     -13.364   1.678 -34.122  1.00  0.00    -0.072 N 
HETATM   16  C   UNL     1     -14.397   0.594 -34.218  1.00  0.00     0.269 C 
HETATM   17  H   UNL     1     -13.446   2.268 -34.958  1.00  0.00     0.279 HD
HETATM   18  C   UNL     1     -11.945   1.097 -34.115  1.00  0.00     0.254 C 
HETATM   19  C   UNL     1     -10.883   2.211 -33.963  1.00  0.00     0.150 C 
ENDBRANCH   8  12
ENDBRANCH   3   5
ENDBRANCH   1   3
BRANCH   1  20
HETATM   20  N   UNL     1      -5.610   4.119 -29.208  1.00  0.00    -0.300 N 
HETATM   21  C   UNL     1      -5.100   3.268 -30.177  1.00  0.00     0.247 C 
HETATM   22  O   UNL     1      -5.295   2.060 -30.062  1.00  0.00    -0.268 OA
HETATM   23  H   UNL     1      -6.049   3.546 -28.500  1.00  0.00     0.171 HD
BRANCH  21  24
HETATM   24  C   UNL     1      -4.357   3.835 -31.325  1.00  0.00     0.077 C 
HETATM   25  C   UNL     1      -4.563   3.510 -32.610  1.00  0.00     0.042 C 
BRANCH  25  26
HETATM   26  C   UNL     1      -5.443   2.486 -33.043  1.00  0.00     0.076 A 
HETATM   27  O   UNL     1      -5.059   1.184 -33.276  1.00  0.00    -0.310 OA
HETATM   28  C   UNL     1      -6.150   0.481 -33.694  1.00  0.00     0.086 A 
HETATM   29  C   UNL     1      -7.248   1.310 -33.741  1.00  0.00     0.041 A 
HETATM   30  C   UNL     1      -6.792   2.591 -33.353  1.00  0.00     0.040 A 
BRANCH  28  31
HETATM   31  C   UNL     1      -5.936  -0.927 -33.987  1.00  0.00    -0.002 A 
HETATM   32  C   UNL     1      -6.952  -1.693 -34.577  1.00  0.00     0.016 A 
HETATM   33  C   UNL     1      -6.745  -3.043 -34.877  1.00  0.00     0.024 A 
HETATM   34  C   UNL     1      -5.514  -3.632 -34.596  1.00  0.00     0.034 A 
HETATM   35 CL   UNL     1      -5.258  -5.295 -34.953  1.00  0.00    -0.084 Cl
HETATM   36  C   UNL     1      -4.490  -2.885 -34.020  1.00  0.00     0.024 A 
HETATM   37  C   UNL     1      -4.704  -1.539 -33.710  1.00  0.00     0.016 A 
ENDBRANCH  28  31
ENDBRANCH  25  26
ENDBRANCH  21  24
ENDBRANCH   1  20
TORSDOF 7
ENDMDL
MODEL 9
REMARK VINA RESULT:      -8.6      3.670      5.756
REMARK  7 active torsions:
REMARK  status: ('A' for Active; 'I' for Inactive)
REMARK    1  A    between atoms: N_6  and  C_7 
REMARK    2  A    between atoms: C_11  and  N_12 
REMARK    3  A    between atoms: N_12  and  C_13 
REMARK    4  A    between atoms: C_13  and  N_14 
REMARK       I    between atoms: N_14  and  C_15 
REMARK    5  A    between atoms: C_15  and  C_16 
REMARK    6  A    between atoms: C_17  and  C_18 
REMARK    7  A    between atoms: C_20  and  C_21 
ROOT
HETATM    1  C   UNL     1     -10.843   4.020 -30.846  1.00  0.00     0.179 C 
HETATM    2  S   UNL     1     -12.331   4.766 -30.981  1.00  0.00    -0.040 SA
ENDROOT
BRANCH   1   3
HETATM    3  N   UNL     1      -9.945   4.643 -30.020  1.00  0.00    -0.333 N 
HETATM    4  H   UNL     1     -10.425   5.124 -29.262  1.00  0.00     0.168 HD
BRANCH   3   5
HETATM    5  C   UNL     1      -8.554   4.857 -30.079  1.00  0.00     0.036 A 
HETATM    6  C   UNL     1      -8.123   5.880 -30.927  1.00  0.00     0.055 A 
HETATM    7  C   UNL     1      -6.759   6.123 -31.130  1.00  0.00     0.062 A 
HETATM    8  C   UNL     1      -5.766   5.358 -30.479  1.00  0.00     0.052 A 
HETATM    9 CL   UNL     1      -6.353   7.322 -32.321  1.00  0.00    -0.082 Cl
HETATM   10  C   UNL     1      -6.221   4.342 -29.624  1.00  0.00     0.033 A 
HETATM   11  C   UNL     1      -7.590   4.085 -29.433  1.00  0.00     0.032 A 
BRANCH   8  12
HETATM   12  N   UNL     1      -4.407   5.548 -30.724  1.00  0.00    -0.376 N 
HETATM   13  C   UNL     1      -3.816   4.884 -31.898  1.00  0.00     0.150 C 
HETATM   14  C   UNL     1      -2.352   4.514 -31.574  1.00  0.00     0.254 C 
HETATM   15  N   UNL     1      -1.567   5.758 -31.130  1.00  0.00    -0.072 N 
HETATM   16  C   UNL     1      -0.150   5.414 -30.776  1.00  0.00     0.269 C 
HETATM   17  H   UNL     1      -1.547   6.402 -31.929  1.00  0.00     0.279 HD
HETATM   18  C   UNL     1      -2.269   6.488 -29.978  1.00  0.00     0.254 C 
HETATM   19  C   UNL     1      -3.745   6.795 -30.324  1.00  0.00     0.150 C 
ENDBRANCH   8  12
ENDBRANCH   3   5
ENDBRANCH   1   3
BRANCH   1  20
HETATM   20  N   UNL     1     -10.443   2.825 -31.415  1.00  0.00    -0.300 N 
HETATM   21  C   UNL     1     -10.116   2.378 -32.686  1.00  0.00     0.247 C 
HETATM   22  O   UNL     1     -10.316   1.197 -32.964  1.00  0.00    -0.268 OA
HETATM   23  H   UNL     1     -10.772   2.028 -30.886  1.00  0.00     0.171 HD
BRANCH  21  24
HETATM   24  C   UNL     1      -9.561   3.331 -33.673  1.00  0.00     0.077 C 
HETATM   25  C   UNL     1      -8.321   3.276 -34.182  1.00  0.00     0.042 C 
BRANCH  25  26
HETATM   26  C   UNL     1      -7.325   2.362 -33.758  1.00  0.00     0.076 A 
HETATM   27  O   UNL     1      -7.250   1.051 -34.176  1.00  0.00    -0.310 OA
HETATM   28  C   UNL     1      -6.186   0.462 -33.560  1.00  0.00     0.086 A 
HETATM   29  C   UNL     1      -5.561   1.373 -32.739  1.00  0.00     0.041 A 
HETATM   30  C   UNL     1      -6.301   2.572 -32.844  1.00  0.00     0.040 A 
BRANCH  28  31
HETATM   31  C   UNL     1      -5.945  -0.935 -33.885  1.00  0.00    -0.002 A 
HETATM   32  C   UNL     1      -6.988  -1.747 -34.352  1.00  0.00     0.016 A 
HETATM   33  C   UNL     1      -6.757  -3.086 -34.683  1.00  0.00     0.024 A 
HETATM   34  C   UNL     1      -5.475  -3.617 -34.558  1.00  0.00     0.034 A 
HETATM   35 CL   UNL     1      -5.187  -5.266 -34.953  1.00  0.00    -0.084 Cl
HETATM   36  C   UNL     1      -4.424  -2.822 -34.106  1.00  0.00     0.024 A 
HETATM   37  C   UNL     1      -4.661  -1.488 -33.764  1.00  0.00     0.016 A 
ENDBRANCH  28  31
ENDBRANCH  25  26
ENDBRANCH  21  24
ENDBRANCH   1  20
TORSDOF 7
ENDMDL
MODEL 10
REMARK VINA RESULT:      -8.6      2.206      2.841
REMARK  7 active torsions:
REMARK  status: ('A' for Active; 'I' for Inactive)
REMARK    1  A    between atoms: N_6  and  C_7 
REMARK    2  A    between atoms: C_11  and  N_12 
REMARK    3  A    between atoms: N_12  and  C_13 
REMARK    4  A    between atoms: C_13  and  N_14 
REMARK       I    between atoms: N_14  and  C_15 
REMARK    5  A    between atoms: C_15  and  C_16 
REMARK    6  A    between atoms: C_17  and  C_18 
REMARK    7  A    between atoms: C_20  and  C_21 
ROOT
HETATM    1  C   UNL     1      -5.623   6.302 -32.046  1.00  0.00     0.179 C 
HETATM    2  S   UNL     1      -6.481   7.720 -31.835  1.00  0.00    -0.040 SA
ENDROOT
BRANCH   1   3
HETATM    3  N   UNL     1      -5.007   5.814 -30.924  1.00  0.00    -0.333 N 
HETATM    4  H   UNL     1      -5.336   4.874 -30.711  1.00  0.00     0.168 HD
BRANCH   3   5
HETATM    5  C   UNL     1      -4.143   6.378 -29.965  1.00  0.00     0.036 A 
HETATM    6  C   UNL     1      -2.820   6.578 -30.369  1.00  0.00     0.055 A 
HETATM    7  C   UNL     1      -1.855   7.051 -29.471  1.00  0.00     0.062 A 
HETATM    8  C   UNL     1      -2.178   7.357 -28.131  1.00  0.00     0.052 A 
HETATM    9 CL   UNL     1      -0.219   7.114 -30.054  1.00  0.00    -0.082 Cl
HETATM   10  C   UNL     1      -3.513   7.158 -27.749  1.00  0.00     0.033 A 
HETATM   11  C   UNL     1      -4.481   6.667 -28.644  1.00  0.00     0.032 A 
BRANCH   8  12
HETATM   12  N   UNL     1      -1.212   7.764 -27.213  1.00  0.00    -0.376 N 
HETATM   13  C   UNL     1      -1.444   9.015 -26.471  1.00  0.00     0.150 C 
HETATM   14  C   UNL     1      -0.084   9.693 -26.203  1.00  0.00     0.254 C 
HETATM   15  N   UNL     1       0.864   8.730 -25.471  1.00  0.00    -0.072 N 
HETATM   16  C   UNL     1       2.205   9.358 -25.231  1.00  0.00     0.269 C 
HETATM   17  H   UNL     1       0.440   8.528 -24.558  1.00  0.00     0.279 HD
HETATM   18  C   UNL     1       0.997   7.396 -26.214  1.00  0.00     0.254 C 
HETATM   19  C   UNL     1      -0.388   6.775 -26.508  1.00  0.00     0.150 C 
ENDBRANCH   8  12
ENDBRANCH   3   5
ENDBRANCH   1   3
BRANCH   1  20
HETATM   20  N   UNL     1      -5.521   5.540 -33.195  1.00  0.00    -0.300 N 
HETATM   21  C   UNL     1      -4.494   4.984 -33.943  1.00  0.00     0.247 C 
HETATM   22  O   UNL     1      -4.663   4.828 -35.151  1.00  0.00    -0.268 OA
HETATM   23  H   UNL     1      -6.304   5.690 -33.817  1.00  0.00     0.171 HD
BRANCH  21  24
HETATM   24  C   UNL     1      -3.225   4.615 -33.276  1.00  0.00     0.077 C 
HETATM   25  C   UNL     1      -2.996   3.453 -32.647  1.00  0.00     0.042 C 
BRANCH  25  26
HETATM   26  C   UNL     1      -3.980   2.456 -32.430  1.00  0.00     0.076 A 
HETATM   27  O   UNL     1      -4.096   1.308 -33.183  1.00  0.00    -0.310 OA
HETATM   28  C   UNL     1      -5.155   0.589 -32.711  1.00  0.00     0.086 A 
HETATM   29  C   UNL     1      -5.737   1.255 -31.656  1.00  0.00     0.041 A 
HETATM   30  C   UNL     1      -5.007   2.455 -31.496  1.00  0.00     0.040 A 
BRANCH  28  31
HETATM   31  C   UNL     1      -5.431  -0.669 -33.386  1.00  0.00    -0.002 A 
HETATM   32  C   UNL     1      -4.383  -1.524 -33.753  1.00  0.00     0.016 A 
HETATM   33  C   UNL     1      -4.645  -2.744 -34.386  1.00  0.00     0.024 A 
HETATM   34  C   UNL     1      -5.962  -3.118 -34.645  1.00  0.00     0.034 A 
HETATM   35 CL   UNL     1      -6.290  -4.612 -35.432  1.00  0.00    -0.084 Cl
HETATM   36  C   UNL     1      -7.017  -2.287 -34.277  1.00  0.00     0.024 A 
HETATM   37  C   UNL     1      -6.751  -1.063 -33.655  1.00  0.00     0.016 A 
ENDBRANCH  28  31
ENDBRANCH  25  26
ENDBRANCH  21  24
ENDBRANCH   1  20
TORSDOF 7
ENDMDL
