MODEL 1
REMARK VINA RESULT:      -9.0      0.000      0.000
REMARK  5 active torsions:
REMARK  status: ('A' for Active; 'I' for Inactive)
REMARK    1  A    between atoms: C_2  and  N_3 
REMARK    2  A    between atoms: C_2  and  C_16 
REMARK    3  A    between atoms: N_3  and  C_6 
REMARK    4  A    between atoms: C_6  and  C_7 
REMARK    5  A    between atoms: C_19  and  C_20 
ROOT
HETATM    1  C   UNL     1      -5.452   2.630 -31.933  1.00  0.00     0.049 C 
HETATM    2  C   UNL     1      -4.257   2.179 -31.099  1.00  0.00     0.260 C 
ENDROOT
BRANCH   2   3
HETATM    3  N   UNL     1      -3.125   3.161 -31.278  1.00  0.00    -0.060 N 
HETATM    4  H   UNL     1      -3.384   4.024 -30.772  1.00  0.00     0.278 HD
HETATM    5  H   UNL     1      -2.293   2.827 -30.775  1.00  0.00     0.278 HD
BRANCH   3   6
HETATM    6  C   UNL     1      -2.772   3.557 -32.666  1.00  0.00     0.274 C 
BRANCH   6   7
HETATM    7  C   UNL     1      -2.140   4.911 -32.716  1.00  0.00     0.004 A 
HETATM    8  C   UNL     1      -1.123   5.258 -31.839  1.00  0.00     0.113 A 
HETATM    9  C   UNL     1      -0.538   6.502 -31.846  1.00  0.00     0.105 A 
HETATM   10  O   UNL     1      -0.572   4.432 -30.905  1.00  0.00    -0.322 OA
HETATM   11  O   UNL     1       0.435   6.624 -30.908  1.00  0.00    -0.323 OA
HETATM   12  C   UNL     1      -0.929   7.479 -32.734  1.00  0.00     0.040 A 
HETATM   13  C   UNL     1       0.372   5.338 -30.268  1.00  0.00     0.352 A 
HETATM   14  C   UNL     1      -1.952   7.168 -33.633  1.00  0.00     0.003 A 
HETATM   15  C   UNL     1      -2.556   5.897 -33.625  1.00  0.00     0.012 A 
ENDBRANCH   6   7
ENDBRANCH   3   6
ENDBRANCH   2   3
BRANCH   2  16
HETATM   16  C   UNL     1      -3.821   0.811 -31.504  1.00  0.00     0.203 A 
HETATM   17  O   UNL     1      -2.604   0.386 -31.082  1.00  0.00    -0.194 OA
HETATM   18  N   UNL     1      -2.451  -0.905 -31.568  1.00  0.00    -0.106 NA
HETATM   19  C   UNL     1      -3.586  -1.141 -32.249  1.00  0.00     0.189 A 
HETATM   20  N   UNL     1      -4.465  -0.069 -32.240  1.00  0.00    -0.202 NA
BRANCH  19  21
HETATM   21  C   UNL     1      -3.885  -2.396 -32.929  1.00  0.00     0.017 A 
HETATM   22  C   UNL     1      -4.797  -2.422 -33.991  1.00  0.00     0.057 A 
HETATM   23  C   UNL     1      -5.084  -3.623 -34.632  1.00  0.00     0.117 A 
HETATM   24  F   UNL     1      -5.956  -3.629 -35.648  1.00  0.00    -0.206 F 
HETATM   25  C   UNL     1      -4.482  -4.812 -34.238  1.00  0.00     0.042 A 
HETATM   26  C   UNL     1      -3.575  -4.801 -33.182  1.00  0.00     0.004 A 
HETATM   27  C   UNL     1      -3.277  -3.599 -32.532  1.00  0.00     0.016 A 
ENDBRANCH  19  21
ENDBRANCH   2  16
TORSDOF 5
ENDMDL
MODEL 2
REMARK VINA RESULT:      -8.9      2.428      2.955
REMARK  5 active torsions:
REMARK  status: ('A' for Active; 'I' for Inactive)
REMARK    1  A    between atoms: C_2  and  N_3 
REMARK    2  A    between atoms: C_2  and  C_16 
REMARK    3  A    between atoms: N_3  and  C_6 
REMARK    4  A    between atoms: C_6  and  C_7 
REMARK    5  A    between atoms: C_19  and  C_20 
ROOT
HETATM    1  C   UNL     1      -6.165   3.900 -33.782  1.00  0.00     0.049 C 
HETATM    2  C   UNL     1      -5.742   2.730 -32.899  1.00  0.00     0.260 C 
ENDROOT
BRANCH   2   3
HETATM    3  N   UNL     1      -4.277   2.865 -32.561  1.00  0.00    -0.060 N 
HETATM    4  H   UNL     1      -4.022   2.054 -31.973  1.00  0.00     0.278 HD
HETATM    5  H   UNL     1      -3.712   2.733 -33.410  1.00  0.00     0.278 HD
BRANCH   3   6
HETATM    6  C   UNL     1      -3.850   4.086 -31.832  1.00  0.00     0.274 C 
BRANCH   6   7
HETATM    7  C   UNL     1      -2.946   4.942 -32.661  1.00  0.00     0.004 A 
HETATM    8  C   UNL     1      -2.750   6.281 -32.357  1.00  0.00     0.113 A 
HETATM    9  C   UNL     1      -1.944   7.097 -33.114  1.00  0.00     0.105 A 
HETATM   10  O   UNL     1      -3.295   6.934 -31.291  1.00  0.00    -0.322 OA
HETATM   11  O   UNL     1      -1.895   8.366 -32.635  1.00  0.00    -0.323 OA
HETATM   12  C   UNL     1      -1.276   6.626 -34.222  1.00  0.00     0.040 A 
HETATM   13  C   UNL     1      -2.799   8.282 -31.520  1.00  0.00     0.352 A 
HETATM   14  C   UNL     1      -1.448   5.283 -34.562  1.00  0.00     0.003 A 
HETATM   15  C   UNL     1      -2.278   4.446 -33.792  1.00  0.00     0.012 A 
ENDBRANCH   6   7
ENDBRANCH   3   6
ENDBRANCH   2   3
BRANCH   2  16
HETATM   16  C   UNL     1      -5.994   1.433 -33.592  1.00  0.00     0.203 A 
HETATM   17  O   UNL     1      -6.779   1.453 -34.699  1.00  0.00    -0.194 OA
HETATM   18  N   UNL     1      -6.837   0.144 -35.159  1.00  0.00    -0.106 NA
HETATM   19  C   UNL     1      -6.090  -0.549 -34.283  1.00  0.00     0.189 A 
HETATM   20  N   UNL     1      -5.556   0.235 -33.273  1.00  0.00    -0.202 NA
BRANCH  19  21
HETATM   21  C   UNL     1      -5.844  -1.985 -34.375  1.00  0.00     0.017 A 
HETATM   22  C   UNL     1      -4.581  -2.505 -34.067  1.00  0.00     0.057 A 
HETATM   23  C   UNL     1      -4.351  -3.874 -34.162  1.00  0.00     0.117 A 
HETATM   24  F   UNL     1      -3.138  -4.354 -33.860  1.00  0.00    -0.206 F 
HETATM   25  C   UNL     1      -5.354  -4.747 -34.562  1.00  0.00     0.042 A 
HETATM   26  C   UNL     1      -6.615  -4.243 -34.873  1.00  0.00     0.004 A 
HETATM   27  C   UNL     1      -6.859  -2.869 -34.779  1.00  0.00     0.016 A 
ENDBRANCH  19  21
ENDBRANCH   2  16
TORSDOF 5
ENDMDL
MODEL 3
REMARK VINA RESULT:      -8.9      1.523      2.081
REMARK  5 active torsions:
REMARK  status: ('A' for Active; 'I' for Inactive)
REMARK    1  A    between atoms: C_2  and  N_3 
REMARK    2  A    between atoms: C_2  and  C_16 
REMARK    3  A    between atoms: N_3  and  C_6 
REMARK    4  A    between atoms: C_6  and  C_7 
REMARK    5  A    between atoms: C_19  and  C_20 
ROOT
HETATM    1  C   UNL     1      -5.415   4.056 -31.059  1.00  0.00     0.049 C 
HETATM    2  C   UNL     1      -4.607   2.762 -31.003  1.00  0.00     0.260 C 
ENDROOT
BRANCH   2   3
HETATM    3  N   UNL     1      -3.158   3.066 -31.300  1.00  0.00    -0.060 N 
HETATM    4  H   UNL     1      -2.897   3.894 -30.739  1.00  0.00     0.278 HD
HETATM    5  H   UNL     1      -2.563   2.319 -30.918  1.00  0.00     0.278 HD
BRANCH   3   6
HETATM    6  C   UNL     1      -2.792   3.358 -32.710  1.00  0.00     0.274 C 
BRANCH   6   7
HETATM    7  C   UNL     1      -2.194   4.720 -32.859  1.00  0.00     0.004 A 
HETATM    8  C   UNL     1      -1.199   5.163 -32.001  1.00  0.00     0.113 A 
HETATM    9  C   UNL     1      -0.646   6.417 -32.100  1.00  0.00     0.105 A 
HETATM   10  O   UNL     1      -0.641   4.429 -30.996  1.00  0.00    -0.322 OA
HETATM   11  O   UNL     1       0.310   6.639 -31.162  1.00  0.00    -0.323 OA
HETATM   12  C   UNL     1      -1.049   7.310 -33.067  1.00  0.00     0.040 A 
HETATM   13  C   UNL     1       0.270   5.407 -30.422  1.00  0.00     0.352 A 
HETATM   14  C   UNL     1      -2.050   6.902 -33.951  1.00  0.00     0.003 A 
HETATM   15  C   UNL     1      -2.622   5.619 -33.849  1.00  0.00     0.012 A 
ENDBRANCH   6   7
ENDBRANCH   3   6
ENDBRANCH   2   3
BRANCH   2  16
HETATM   16  C   UNL     1      -5.137   1.771 -31.984  1.00  0.00     0.203 A 
HETATM   17  O   UNL     1      -6.028   2.213 -32.907  1.00  0.00    -0.194 OA
HETATM   18  N   UNL     1      -6.343   1.118 -33.700  1.00  0.00    -0.106 NA
HETATM   19  C   UNL     1      -5.622   0.111 -33.179  1.00  0.00     0.189 A 
HETATM   20  N   UNL     1      -4.861   0.489 -32.083  1.00  0.00    -0.202 NA
BRANCH  19  21
HETATM   21  C   UNL     1      -5.619  -1.250 -33.705  1.00  0.00     0.017 A 
HETATM   22  C   UNL     1      -4.453  -2.024 -33.648  1.00  0.00     0.057 A 
HETATM   23  C   UNL     1      -4.454  -3.320 -34.156  1.00  0.00     0.117 A 
HETATM   24  F   UNL     1      -3.332  -4.047 -34.091  1.00  0.00    -0.206 F 
HETATM   25  C   UNL     1      -5.595  -3.869 -34.728  1.00  0.00     0.042 A 
HETATM   26  C   UNL     1      -6.760  -3.109 -34.792  1.00  0.00     0.004 A 
HETATM   27  C   UNL     1      -6.772  -1.807 -34.282  1.00  0.00     0.016 A 
ENDBRANCH  19  21
ENDBRANCH   2  16
TORSDOF 5
ENDMDL
MODEL 4
REMARK VINA RESULT:      -8.6      3.503      8.697
REMARK  5 active torsions:
REMARK  status: ('A' for Active; 'I' for Inactive)
REMARK    1  A    between atoms: C_2  and  N_3 
REMARK    2  A    between atoms: C_2  and  C_16 
REMARK    3  A    between atoms: N_3  and  C_6 
REMARK    4  A    between atoms: C_6  and  C_7 
REMARK    5  A    between atoms: C_19  and  C_20 
ROOT
HETATM    1  C   UNL     1      -6.104  -0.221 -30.942  1.00  0.00     0.049 C 
HETATM    2  C   UNL     1      -6.570   0.377 -32.266  1.00  0.00     0.260 C 
ENDROOT
BRANCH   2   3
HETATM    3  N   UNL     1      -6.369  -0.635 -33.369  1.00  0.00    -0.060 N 
HETATM    4  H   UNL     1      -6.716  -1.544 -33.018  1.00  0.00     0.278 HD
HETATM    5  H   UNL     1      -7.000  -0.423 -34.152  1.00  0.00     0.278 HD
BRANCH   3   6
HETATM    6  C   UNL     1      -4.984  -0.854 -33.857  1.00  0.00     0.274 C 
BRANCH   6   7
HETATM    7  C   UNL     1      -4.534  -2.264 -33.644  1.00  0.00     0.004 A 
HETATM    8  C   UNL     1      -5.106  -3.312 -34.349  1.00  0.00     0.113 A 
HETATM    9  C   UNL     1      -4.729  -4.620 -34.159  1.00  0.00     0.105 A 
HETATM   10  O   UNL     1      -6.067  -3.184 -35.308  1.00  0.00    -0.322 OA
HETATM   11  O   UNL     1      -5.416  -5.479 -34.954  1.00  0.00    -0.323 OA
HETATM   12  C   UNL     1      -3.751  -4.965 -33.253  1.00  0.00     0.040 A 
HETATM   13  C   UNL     1      -6.308  -4.581 -35.635  1.00  0.00     0.352 A 
HETATM   14  C   UNL     1      -3.151  -3.938 -32.523  1.00  0.00     0.003 A 
HETATM   15  C   UNL     1      -3.539  -2.597 -32.712  1.00  0.00     0.012 A 
ENDBRANCH   6   7
ENDBRANCH   3   6
ENDBRANCH   2   3
BRANCH   2  16
HETATM   16  C   UNL     1      -5.814   1.627 -32.571  1.00  0.00     0.203 A 
HETATM   17  O   UNL     1      -6.472   2.617 -33.225  1.00  0.00    -0.194 OA
HETATM   18  N   UNL     1      -5.567   3.660 -33.364  1.00  0.00    -0.106 NA
HETATM   19  C   UNL     1      -4.442   3.204 -32.789  1.00  0.00     0.189 A 
HETATM   20  N   UNL     1      -4.562   1.915 -32.292  1.00  0.00    -0.202 NA
BRANCH  19  21
HETATM   21  C   UNL     1      -3.208   3.975 -32.680  1.00  0.00     0.017 A 
HETATM   22  C   UNL     1      -2.635   4.551 -33.821  1.00  0.00     0.057 A 
HETATM   23  C   UNL     1      -1.455   5.281 -33.712  1.00  0.00     0.117 A 
HETATM   24  F   UNL     1      -0.922   5.828 -34.812  1.00  0.00    -0.206 F 
HETATM   25  C   UNL     1      -0.823   5.452 -32.487  1.00  0.00     0.042 A 
HETATM   26  C   UNL     1      -1.382   4.883 -31.345  1.00  0.00     0.004 A 
HETATM   27  C   UNL     1      -2.569   4.150 -31.441  1.00  0.00     0.016 A 
ENDBRANCH  19  21
ENDBRANCH   2  16
TORSDOF 5
ENDMDL
MODEL 5
REMARK VINA RESULT:      -8.4      6.327      8.918
REMARK  5 active torsions:
REMARK  status: ('A' for Active; 'I' for Inactive)
REMARK    1  A    between atoms: C_2  and  N_3 
REMARK    2  A    between atoms: C_2  and  C_16 
REMARK    3  A    between atoms: N_3  and  C_6 
REMARK    4  A    between atoms: C_6  and  C_7 
REMARK    5  A    between atoms: C_19  and  C_20 
ROOT
HETATM    1  C   UNL     1      -9.148   2.757 -30.969  1.00  0.00     0.049 C 
HETATM    2  C   UNL     1      -9.154   2.109 -32.350  1.00  0.00     0.260 C 
ENDROOT
BRANCH   2   3
HETATM    3  N   UNL     1     -10.470   1.401 -32.563  1.00  0.00    -0.060 N 
HETATM    4  H   UNL     1     -10.289   0.386 -32.482  1.00  0.00     0.278 HD
HETATM    5  H   UNL     1     -11.100   1.597 -31.774  1.00  0.00     0.278 HD
BRANCH   3   6
HETATM    6  C   UNL     1     -11.167   1.620 -33.856  1.00  0.00     0.274 C 
BRANCH   6   7
HETATM    7  C   UNL     1     -12.654   1.576 -33.703  1.00  0.00     0.004 A 
HETATM    8  C   UNL     1     -13.311   2.447 -32.847  1.00  0.00     0.113 A 
HETATM    9  C   UNL     1     -14.673   2.416 -32.668  1.00  0.00     0.105 A 
HETATM   10  O   UNL     1     -12.715   3.431 -32.115  1.00  0.00    -0.322 OA
HETATM   11  O   UNL     1     -15.104   3.356 -31.790  1.00  0.00    -0.323 OA
HETATM   12  C   UNL     1     -15.469   1.513 -33.338  1.00  0.00     0.040 A 
HETATM   13  C   UNL     1     -13.860   3.958 -31.389  1.00  0.00     0.352 A 
HETATM   14  C   UNL     1     -14.844   0.617 -34.208  1.00  0.00     0.003 A 
HETATM   15  C   UNL     1     -13.448   0.644 -34.389  1.00  0.00     0.012 A 
ENDBRANCH   6   7
ENDBRANCH   3   6
ENDBRANCH   2   3
BRANCH   2  16
HETATM   16  C   UNL     1      -8.023   1.145 -32.482  1.00  0.00     0.203 A 
HETATM   17  O   UNL     1      -6.972   1.289 -31.636  1.00  0.00    -0.194 OA
HETATM   18  N   UNL     1      -6.080   0.272 -31.946  1.00  0.00    -0.106 NA
HETATM   19  C   UNL     1      -6.668  -0.390 -32.958  1.00  0.00     0.189 A 
HETATM   20  N   UNL     1      -7.891   0.149 -33.329  1.00  0.00    -0.202 NA
BRANCH  19  21
HETATM   21  C   UNL     1      -6.098  -1.565 -33.608  1.00  0.00     0.017 A 
HETATM   22  C   UNL     1      -6.928  -2.471 -34.279  1.00  0.00     0.057 A 
HETATM   23  C   UNL     1      -6.380  -3.594 -34.892  1.00  0.00     0.117 A 
HETATM   24  F   UNL     1      -7.188  -4.448 -35.531  1.00  0.00    -0.206 F 
HETATM   25  C   UNL     1      -5.014  -3.841 -34.852  1.00  0.00     0.042 A 
HETATM   26  C   UNL     1      -4.177  -2.948 -34.188  1.00  0.00     0.004 A 
HETATM   27  C   UNL     1      -4.716  -1.815 -33.570  1.00  0.00     0.016 A 
ENDBRANCH  19  21
ENDBRANCH   2  16
TORSDOF 5
ENDMDL
MODEL 6
REMARK VINA RESULT:      -8.2      4.687      6.801
REMARK  5 active torsions:
REMARK  status: ('A' for Active; 'I' for Inactive)
REMARK    1  A    between atoms: C_2  and  N_3 
REMARK    2  A    between atoms: C_2  and  C_16 
REMARK    3  A    between atoms: N_3  and  C_6 
REMARK    4  A    between atoms: C_6  and  C_7 
REMARK    5  A    between atoms: C_19  and  C_20 
ROOT
HETATM    1  C   UNL     1      -6.344   1.620 -30.458  1.00  0.00     0.049 C 
HETATM    2  C   UNL     1      -6.087   2.116 -31.878  1.00  0.00     0.260 C 
ENDROOT
BRANCH   2   3
HETATM    3  N   UNL     1      -7.129   3.146 -32.243  1.00  0.00    -0.060 N 
HETATM    4  H   UNL     1      -6.781   4.063 -31.915  1.00  0.00     0.278 HD
HETATM    5  H   UNL     1      -7.166   3.253 -33.265  1.00  0.00     0.278 HD
BRANCH   3   6
HETATM    6  C   UNL     1      -8.494   2.970 -31.684  1.00  0.00     0.274 C 
BRANCH   6   7
HETATM    7  C   UNL     1      -9.490   2.627 -32.745  1.00  0.00     0.004 A 
HETATM    8  C   UNL     1      -9.817   3.537 -33.739  1.00  0.00     0.113 A 
HETATM    9  C   UNL     1     -10.745   3.259 -34.714  1.00  0.00     0.105 A 
HETATM   10  O   UNL     1      -9.263   4.774 -33.889  1.00  0.00    -0.322 OA
HETATM   11  O   UNL     1     -10.909   4.288 -35.585  1.00  0.00    -0.323 OA
HETATM   12  C   UNL     1     -11.404   2.050 -34.762  1.00  0.00     0.040 A 
HETATM   13  C   UNL     1     -10.020   5.272 -35.027  1.00  0.00     0.352 A 
HETATM   14  C   UNL     1     -11.102   1.108 -33.777  1.00  0.00     0.003 A 
HETATM   15  C   UNL     1     -10.155   1.392 -32.774  1.00  0.00     0.012 A 
ENDBRANCH   6   7
ENDBRANCH   3   6
ENDBRANCH   2   3
BRANCH   2  16
HETATM   16  C   UNL     1      -6.125   0.980 -32.844  1.00  0.00     0.203 A 
HETATM   17  O   UNL     1      -6.531   1.244 -34.111  1.00  0.00    -0.194 OA
HETATM   18  N   UNL     1      -6.456   0.043 -34.803  1.00  0.00    -0.106 NA
HETATM   19  C   UNL     1      -6.020  -0.841 -33.889  1.00  0.00     0.189 A 
HETATM   20  N   UNL     1      -5.816  -0.282 -32.637  1.00  0.00    -0.202 NA
BRANCH  19  21
HETATM   21  C   UNL     1      -5.770  -2.250 -34.169  1.00  0.00     0.017 A 
HETATM   22  C   UNL     1      -4.499  -2.797 -33.954  1.00  0.00     0.057 A 
HETATM   23  C   UNL     1      -4.265  -4.142 -34.228  1.00  0.00     0.117 A 
HETATM   24  F   UNL     1      -3.045  -4.649 -34.014  1.00  0.00    -0.206 F 
HETATM   25  C   UNL     1      -5.272  -4.963 -34.719  1.00  0.00     0.042 A 
HETATM   26  C   UNL     1      -6.541  -4.431 -34.939  1.00  0.00     0.004 A 
HETATM   27  C   UNL     1      -6.788  -3.082 -34.664  1.00  0.00     0.016 A 
ENDBRANCH  19  21
ENDBRANCH   2  16
TORSDOF 5
ENDMDL
MODEL 7
REMARK VINA RESULT:      -8.2      3.784      8.174
REMARK  5 active torsions:
REMARK  status: ('A' for Active; 'I' for Inactive)
REMARK    1  A    between atoms: C_2  and  N_3 
REMARK    2  A    between atoms: C_2  and  C_16 
REMARK    3  A    between atoms: N_3  and  C_6 
REMARK    4  A    between atoms: C_6  and  C_7 
REMARK    5  A    between atoms: C_19  and  C_20 
ROOT
HETATM    1  C   UNL     1      -8.740   1.520 -32.753  1.00  0.00     0.049 C 
HETATM    2  C   UNL     1      -8.213   1.870 -34.141  1.00  0.00     0.260 C 
ENDROOT
BRANCH   2   3
HETATM    3  N   UNL     1      -7.593   0.642 -34.764  1.00  0.00    -0.060 N 
HETATM    4  H   UNL     1      -7.896   0.612 -35.752  1.00  0.00     0.278 HD
HETATM    5  H   UNL     1      -6.574   0.763 -34.827  1.00  0.00     0.278 HD
BRANCH   3   6
HETATM    6  C   UNL     1      -7.927  -0.676 -34.164  1.00  0.00     0.274 C 
BRANCH   6   7
HETATM    7  C   UNL     1      -6.750  -1.598 -34.155  1.00  0.00     0.004 A 
HETATM    8  C   UNL     1      -5.564  -1.239 -33.533  1.00  0.00     0.113 A 
HETATM    9  C   UNL     1      -4.459  -2.056 -33.528  1.00  0.00     0.105 A 
HETATM   10  O   UNL     1      -5.354  -0.079 -32.847  1.00  0.00    -0.322 OA
HETATM   11  O   UNL     1      -3.412  -1.510 -32.861  1.00  0.00    -0.323 OA
HETATM   12  C   UNL     1      -4.470  -3.289 -34.142  1.00  0.00     0.040 A 
HETATM   13  C   UNL     1      -3.954  -0.232 -32.484  1.00  0.00     0.352 A 
HETATM   14  C   UNL     1      -5.646  -3.686 -34.780  1.00  0.00     0.003 A 
HETATM   15  C   UNL     1      -6.778  -2.849 -34.792  1.00  0.00     0.012 A 
ENDBRANCH   6   7
ENDBRANCH   3   6
ENDBRANCH   2   3
BRANCH   2  16
HETATM   16  C   UNL     1      -7.208   2.969 -34.059  1.00  0.00     0.203 A 
HETATM   17  O   UNL     1      -7.668   4.245 -34.080  1.00  0.00    -0.194 OA
HETATM   18  N   UNL     1      -6.551   5.063 -33.970  1.00  0.00    -0.106 NA
HETATM   19  C   UNL     1      -5.517   4.207 -33.901  1.00  0.00     0.189 A 
HETATM   20  N   UNL     1      -5.899   2.876 -33.971  1.00  0.00    -0.202 NA
BRANCH  19  21
HETATM   21  C   UNL     1      -4.124   4.618 -33.758  1.00  0.00     0.017 A 
HETATM   22  C   UNL     1      -3.424   4.335 -32.579  1.00  0.00     0.057 A 
HETATM   23  C   UNL     1      -2.097   4.734 -32.445  1.00  0.00     0.117 A 
HETATM   24  F   UNL     1      -1.442   4.452 -31.312  1.00  0.00    -0.206 F 
HETATM   25  C   UNL     1      -1.444   5.416 -33.464  1.00  0.00     0.042 A 
HETATM   26  C   UNL     1      -2.129   5.705 -34.641  1.00  0.00     0.004 A 
HETATM   27  C   UNL     1      -3.462   5.307 -34.788  1.00  0.00     0.016 A 
ENDBRANCH  19  21
ENDBRANCH   2  16
TORSDOF 5
ENDMDL
MODEL 8
REMARK VINA RESULT:      -8.1     16.229     18.121
REMARK  5 active torsions:
REMARK  status: ('A' for Active; 'I' for Inactive)
REMARK    1  A    between atoms: C_2  and  N_3 
REMARK    2  A    between atoms: C_2  and  C_16 
REMARK    3  A    between atoms: N_3  and  C_6 
REMARK    4  A    between atoms: C_6  and  C_7 
REMARK    5  A    between atoms: C_19  and  C_20 
ROOT
HETATM    1  C   UNL     1      -5.777 -11.846 -40.516  1.00  0.00     0.049 C 
HETATM    2  C   UNL     1      -5.648 -12.746 -39.290  1.00  0.00     0.260 C 
ENDROOT
BRANCH   2   3
HETATM    3  N   UNL     1      -6.528 -12.213 -38.186  1.00  0.00    -0.060 N 
HETATM    4  H   UNL     1      -5.919 -11.695 -37.530  1.00  0.00     0.278 HD
HETATM    5  H   UNL     1      -7.152 -11.487 -38.560  1.00  0.00     0.278 HD
BRANCH   3   6
HETATM    6  C   UNL     1      -7.296 -13.200 -37.383  1.00  0.00     0.274 C 
BRANCH   6   7
HETATM    7  C   UNL     1      -8.231 -14.001 -38.232  1.00  0.00     0.004 A 
HETATM    8  C   UNL     1      -9.110 -13.383 -39.109  1.00  0.00     0.113 A 
HETATM    9  C   UNL     1      -9.996 -14.092 -39.884  1.00  0.00     0.105 A 
HETATM   10  O   UNL     1      -9.191 -12.039 -39.326  1.00  0.00    -0.322 OA
HETATM   11  O   UNL     1     -10.757 -13.288 -40.669  1.00  0.00    -0.323 OA
HETATM   12  C   UNL     1     -10.057 -15.467 -39.838  1.00  0.00     0.040 A 
HETATM   13  C   UNL     1     -10.296 -11.986 -40.270  1.00  0.00     0.352 A 
HETATM   14  C   UNL     1      -9.188 -16.126 -38.967  1.00  0.00     0.003 A 
HETATM   15  C   UNL     1      -8.283 -15.403 -38.167  1.00  0.00     0.012 A 
ENDBRANCH   6   7
ENDBRANCH   3   6
ENDBRANCH   2   3
BRANCH   2  16
HETATM   16  C   UNL     1      -4.229 -12.807 -38.834  1.00  0.00     0.203 A 
HETATM   17  O   UNL     1      -3.623 -11.639 -38.502  1.00  0.00    -0.194 OA
HETATM   18  N   UNL     1      -2.337 -11.970 -38.097  1.00  0.00    -0.106 NA
HETATM   19  C   UNL     1      -2.279 -13.306 -38.228  1.00  0.00     0.189 A 
HETATM   20  N   UNL     1      -3.454 -13.863 -38.707  1.00  0.00    -0.202 NA
BRANCH  19  21
HETATM   21  C   UNL     1      -1.107 -14.110 -37.897  1.00  0.00     0.017 A 
HETATM   22  C   UNL     1       0.046 -14.034 -38.688  1.00  0.00     0.057 A 
HETATM   23  C   UNL     1       1.159 -14.807 -38.371  1.00  0.00     0.117 A 
HETATM   24  F   UNL     1       2.254 -14.720 -39.136  1.00  0.00    -0.206 F 
HETATM   25  C   UNL     1       1.152 -15.665 -37.278  1.00  0.00     0.042 A 
HETATM   26  C   UNL     1       0.012 -15.751 -36.484  1.00  0.00     0.004 A 
HETATM   27  C   UNL     1      -1.112 -14.976 -36.791  1.00  0.00     0.016 A 
ENDBRANCH  19  21
ENDBRANCH   2  16
TORSDOF 5
ENDMDL
MODEL 9
REMARK VINA RESULT:      -8.1      2.175      2.546
REMARK  5 active torsions:
REMARK  status: ('A' for Active; 'I' for Inactive)
REMARK    1  A    between atoms: C_2  and  N_3 
REMARK    2  A    between atoms: C_2  and  C_16 
REMARK    3  A    between atoms: N_3  and  C_6 
REMARK    4  A    between atoms: C_6  and  C_7 
REMARK    5  A    between atoms: C_19  and  C_20 
ROOT
HETATM    1  C   UNL     1      -6.169   4.365 -33.644  1.00  0.00     0.049 C 
HETATM    2  C   UNL     1      -6.167   3.898 -32.191  1.00  0.00     0.260 C 
ENDROOT
BRANCH   2   3
HETATM    3  N   UNL     1      -5.032   4.567 -31.454  1.00  0.00    -0.060 N 
HETATM    4  H   UNL     1      -5.023   5.560 -31.740  1.00  0.00     0.278 HD
HETATM    5  H   UNL     1      -5.248   4.607 -30.449  1.00  0.00     0.278 HD
BRANCH   3   6
HETATM    6  C   UNL     1      -3.662   4.035 -31.673  1.00  0.00     0.274 C 
BRANCH   6   7
HETATM    7  C   UNL     1      -2.849   4.935 -32.548  1.00  0.00     0.004 A 
HETATM    8  C   UNL     1      -2.736   6.289 -32.273  1.00  0.00     0.113 A 
HETATM    9  C   UNL     1      -2.015   7.144 -33.072  1.00  0.00     0.105 A 
HETATM   10  O   UNL     1      -3.288   6.924 -31.200  1.00  0.00    -0.322 OA
HETATM   11  O   UNL     1      -2.037   8.423 -32.617  1.00  0.00    -0.323 OA
HETATM   12  C   UNL     1      -1.354   6.699 -34.195  1.00  0.00     0.040 A 
HETATM   13  C   UNL     1      -2.895   8.298 -31.469  1.00  0.00     0.352 A 
HETATM   14  C   UNL     1      -1.444   5.341 -34.506  1.00  0.00     0.003 A 
HETATM   15  C   UNL     1      -2.187   4.464 -33.693  1.00  0.00     0.012 A 
ENDBRANCH   6   7
ENDBRANCH   3   6
ENDBRANCH   2   3
BRANCH   2  16
HETATM   16  C   UNL     1      -6.026   2.414 -32.119  1.00  0.00     0.203 A 
HETATM   17  O   UNL     1      -6.246   1.819 -30.919  1.00  0.00    -0.194 OA
HETATM   18  N   UNL     1      -6.075   0.457 -31.124  1.00  0.00    -0.106 NA
HETATM   19  C   UNL     1      -5.758   0.353 -32.426  1.00  0.00     0.189 A 
HETATM   20  N   UNL     1      -5.704   1.575 -33.078  1.00  0.00    -0.202 NA
BRANCH  19  21
HETATM   21  C   UNL     1      -5.502  -0.912 -33.107  1.00  0.00     0.017 A 
HETATM   22  C   UNL     1      -6.510  -1.521 -33.865  1.00  0.00     0.057 A 
HETATM   23  C   UNL     1      -6.262  -2.730 -34.507  1.00  0.00     0.117 A 
HETATM   24  F   UNL     1      -7.236  -3.297 -35.230  1.00  0.00    -0.206 F 
HETATM   25  C   UNL     1      -5.026  -3.357 -34.411  1.00  0.00     0.042 A 
HETATM   26  C   UNL     1      -4.015  -2.763 -33.660  1.00  0.00     0.004 A 
HETATM   27  C   UNL     1      -4.252  -1.546 -33.012  1.00  0.00     0.016 A 
ENDBRANCH  19  21
ENDBRANCH   2  16
TORSDOF 5
ENDMDL
MODEL 10
REMARK VINA RESULT:      -8.0      3.163      3.971
REMARK  5 active torsions:
REMARK  status: ('A' for Active; 'I' for Inactive)
REMARK    1  A    between atoms: C_2  and  N_3 
REMARK    2  A    between atoms: C_2  and  C_16 
REMARK    3  A    between atoms: N_3  and  C_6 
REMARK    4  A    between atoms: C_6  and  C_7 
REMARK    5  A    between atoms: C_19  and  C_20 
ROOT
HETATM    1  C   UNL     1      -6.448   1.744 -30.804  1.00  0.00     0.049 C 
HETATM    2  C   UNL     1      -6.446   2.177 -32.267  1.00  0.00     0.260 C 
ENDROOT
BRANCH   2   3
HETATM    3  N   UNL     1      -7.690   2.984 -32.550  1.00  0.00    -0.060 N 
HETATM    4  H   UNL     1      -8.363   2.356 -33.020  1.00  0.00     0.278 HD
HETATM    5  H   UNL     1      -8.157   3.221 -31.665  1.00  0.00     0.278 HD
BRANCH   3   6
HETATM    6  C   UNL     1      -7.546   4.191 -33.405  1.00  0.00     0.274 C 
BRANCH   6   7
HETATM    7  C   UNL     1      -6.458   5.093 -32.917  1.00  0.00     0.004 A 
HETATM    8  C   UNL     1      -5.310   5.300 -33.668  1.00  0.00     0.113 A 
HETATM    9  C   UNL     1      -4.284   6.105 -33.236  1.00  0.00     0.105 A 
HETATM   10  O   UNL     1      -5.069   4.770 -34.901  1.00  0.00    -0.322 OA
HETATM   11  O   UNL     1      -3.262   6.167 -34.127  1.00  0.00    -0.323 OA
HETATM   12  C   UNL     1      -4.340   6.760 -32.026  1.00  0.00     0.040 A 
HETATM   13  C   UNL     1      -3.727   5.272 -35.152  1.00  0.00     0.352 A 
HETATM   14  C   UNL     1      -5.479   6.576 -31.240  1.00  0.00     0.003 A 
HETATM   15  C   UNL     1      -6.530   5.748 -31.678  1.00  0.00     0.012 A 
ENDBRANCH   6   7
ENDBRANCH   3   6
ENDBRANCH   2   3
BRANCH   2  16
HETATM   16  C   UNL     1      -6.388   0.987 -33.165  1.00  0.00     0.203 A 
HETATM   17  O   UNL     1      -6.739   1.162 -34.465  1.00  0.00    -0.194 OA
HETATM   18  N   UNL     1      -6.580  -0.073 -35.079  1.00  0.00    -0.106 NA
HETATM   19  C   UNL     1      -6.157  -0.884 -34.095  1.00  0.00     0.189 A 
HETATM   20  N   UNL     1      -6.041  -0.246 -32.869  1.00  0.00    -0.202 NA
BRANCH  19  21
HETATM   21  C   UNL     1      -5.837  -2.295 -34.278  1.00  0.00     0.017 A 
HETATM   22  C   UNL     1      -4.554  -2.771 -33.982  1.00  0.00     0.057 A 
HETATM   23  C   UNL     1      -4.253  -4.118 -34.165  1.00  0.00     0.117 A 
HETATM   24  F   UNL     1      -3.022  -4.557 -33.875  1.00  0.00    -0.206 F 
HETATM   25  C   UNL     1      -5.204  -5.011 -34.642  1.00  0.00     0.042 A 
HETATM   26  C   UNL     1      -6.484  -4.550 -34.941  1.00  0.00     0.004 A 
HETATM   27  C   UNL     1      -6.799  -3.200 -34.759  1.00  0.00     0.016 A 
ENDBRANCH  19  21
ENDBRANCH   2  16
TORSDOF 5
ENDMDL
