MODEL 1
REMARK VINA RESULT:      -7.5      0.000      0.000
REMARK  3 active torsions:
REMARK  status: ('A' for Active; 'I' for Inactive)
REMARK    1  A    between atoms: C_2  and  N_3 
REMARK    2  A    between atoms: N_3  and  C_4 
REMARK    3  A    between atoms: C_12  and  C_13 
ROOT
HETATM    1  C   UNL     1      -7.020   0.385 -33.865  1.00  0.00     0.139 A 
HETATM    2  N   UNL     1      -7.449  -0.660 -34.607  1.00  0.00    -0.224 NA
HETATM    3  C   UNL     1      -6.664  -1.734 -34.758  1.00  0.00     0.236 A 
HETATM    4  N   UNL     1      -5.450  -1.926 -34.246  1.00  0.00    -0.234 NA
HETATM    5  C   UNL     1      -5.045  -0.888 -33.498  1.00  0.00     0.113 A 
HETATM    6  C   UNL     1      -5.744   0.285 -33.246  1.00  0.00     0.055 A 
HETATM    7  S   UNL     1      -3.523  -0.936 -32.743  1.00  0.00    -0.081 SA
HETATM    8  C   UNL     1      -3.757   0.599 -32.044  1.00  0.00     0.062 A 
HETATM    9  C   UNL     1      -4.979   1.168 -32.364  1.00  0.00    -0.003 A 
ENDROOT
BRANCH   9  10
HETATM   10  C   UNL     1      -5.472   2.522 -31.876  1.00  0.00     0.188 C 
HETATM   11  O   UNL     1      -5.755   3.404 -32.982  1.00  0.00    -0.336 OA
HETATM   12  C   UNL     1      -4.640   4.074 -33.412  1.00  0.00     0.103 A 
HETATM   13  C   UNL     1      -3.474   4.191 -32.651  1.00  0.00     0.102 A 
HETATM   14  C   UNL     1      -4.709   4.651 -34.679  1.00  0.00     0.040 A 
HETATM   15  O   UNL     1      -3.339   3.668 -31.392  1.00  0.00    -0.345 OA
HETATM   16  C   UNL     1      -2.365   4.851 -33.174  1.00  0.00     0.039 A 
HETATM   17  C   UNL     1      -4.597   3.249 -30.849  1.00  0.00     0.213 C 
HETATM   18  C   UNL     1      -2.427   5.417 -34.449  1.00  0.00     0.003 A 
HETATM   19  C   UNL     1      -3.601   5.321 -35.199  1.00  0.00     0.003 A 
ENDBRANCH   9  10
BRANCH   1  20
HETATM   20  N   UNL     1      -7.823   1.512 -33.716  1.00  0.00    -0.366 N 
HETATM   21  H   UNL     1      -7.925   1.982 -34.614  1.00  0.00     0.162 HD
BRANCH  20  22
HETATM   22  C   UNL     1      -9.072   1.520 -32.939  1.00  0.00     0.021 C 
HETATM   23  C   UNL     1      -9.008   0.586 -31.722  1.00  0.00     0.037 C 
HETATM   24  C   UNL     1     -10.279   1.201 -33.831  1.00  0.00     0.037 C 
HETATM   25  C   UNL     1      -9.234   2.961 -32.406  1.00  0.00     0.037 C 
ENDBRANCH  20  22
ENDBRANCH   1  20
TORSDOF 3
ENDMDL
MODEL 2
REMARK VINA RESULT:      -6.9      3.191      5.236
REMARK  3 active torsions:
REMARK  status: ('A' for Active; 'I' for Inactive)
REMARK    1  A    between atoms: C_2  and  N_3 
REMARK    2  A    between atoms: N_3  and  C_4 
REMARK    3  A    between atoms: C_12  and  C_13 
ROOT
HETATM    1  C   UNL     1      -5.462   2.987 -30.854  1.00  0.00     0.139 A 
HETATM    2  N   UNL     1      -6.510   2.731 -30.042  1.00  0.00    -0.224 NA
HETATM    3  C   UNL     1      -7.380   3.708 -29.755  1.00  0.00     0.236 A 
HETATM    4  N   UNL     1      -7.354   4.966 -30.186  1.00  0.00    -0.234 NA
HETATM    5  C   UNL     1      -6.317   5.201 -31.005  1.00  0.00     0.113 A 
HETATM    6  C   UNL     1      -5.341   4.295 -31.398  1.00  0.00     0.055 A 
HETATM    7  S   UNL     1      -6.105   6.748 -31.677  1.00  0.00    -0.081 SA
HETATM    8  C   UNL     1      -4.714   6.253 -32.524  1.00  0.00     0.062 A 
HETATM    9  C   UNL     1      -4.391   4.921 -32.318  1.00  0.00    -0.003 A 
ENDROOT
BRANCH   9  10
HETATM   10  C   UNL     1      -3.213   4.196 -32.953  1.00  0.00     0.188 C 
HETATM   11  O   UNL     1      -2.216   3.857 -31.966  1.00  0.00    -0.336 OA
HETATM   12  C   UNL     1      -1.337   4.883 -31.740  1.00  0.00     0.103 A 
HETATM   13  C   UNL     1      -1.179   5.963 -32.612  1.00  0.00     0.102 A 
HETATM   14  C   UNL     1      -0.583   4.813 -30.570  1.00  0.00     0.040 A 
HETATM   15  O   UNL     1      -1.870   6.092 -33.788  1.00  0.00    -0.345 OA
HETATM   16  C   UNL     1      -0.296   6.992 -32.292  1.00  0.00     0.039 A 
HETATM   17  C   UNL     1      -2.542   4.879 -34.150  1.00  0.00     0.213 C 
HETATM   18  C   UNL     1       0.449   6.930 -31.114  1.00  0.00     0.003 A 
HETATM   19  C   UNL     1       0.309   5.838 -30.255  1.00  0.00     0.003 A 
ENDBRANCH   9  10
BRANCH   1  20
HETATM   20  N   UNL     1      -4.543   1.983 -31.146  1.00  0.00    -0.366 N 
HETATM   21  H   UNL     1      -4.079   1.683 -30.290  1.00  0.00     0.162 HD
BRANCH  20  22
HETATM   22  C   UNL     1      -4.834   0.854 -32.045  1.00  0.00     0.021 C 
HETATM   23  C   UNL     1      -5.680   1.276 -33.255  1.00  0.00     0.037 C 
HETATM   24  C   UNL     1      -5.484  -0.307 -31.280  1.00  0.00     0.037 C 
HETATM   25  C   UNL     1      -3.468   0.373 -32.582  1.00  0.00     0.037 C 
ENDBRANCH  20  22
ENDBRANCH   1  20
TORSDOF 3
ENDMDL
MODEL 3
REMARK VINA RESULT:      -6.7      3.632      5.641
REMARK  3 active torsions:
REMARK  status: ('A' for Active; 'I' for Inactive)
REMARK    1  A    between atoms: C_2  and  N_3 
REMARK    2  A    between atoms: N_3  and  C_4 
REMARK    3  A    between atoms: C_12  and  C_13 
ROOT
HETATM    1  C   UNL     1     -10.583   3.173 -33.563  1.00  0.00     0.139 A 
HETATM    2  N   UNL     1     -11.174   4.238 -34.146  1.00  0.00    -0.224 NA
HETATM    3  C   UNL     1     -10.424   5.261 -34.574  1.00  0.00     0.236 A 
HETATM    4  N   UNL     1      -9.100   5.379 -34.502  1.00  0.00    -0.234 NA
HETATM    5  C   UNL     1      -8.526   4.306 -33.936  1.00  0.00     0.113 A 
HETATM    6  C   UNL     1      -9.166   3.173 -33.451  1.00  0.00     0.055 A 
HETATM    7  S   UNL     1      -6.836   4.250 -33.757  1.00  0.00    -0.081 SA
HETATM    8  C   UNL     1      -6.906   2.706 -33.041  1.00  0.00     0.062 A 
HETATM    9  C   UNL     1      -8.194   2.211 -32.929  1.00  0.00    -0.003 A 
ENDROOT
BRANCH   9  10
HETATM   10  C   UNL     1      -8.566   0.855 -32.345  1.00  0.00     0.188 C 
HETATM   11  O   UNL     1      -7.543   0.376 -31.446  1.00  0.00    -0.336 OA
HETATM   12  C   UNL     1      -6.544  -0.290 -32.104  1.00  0.00     0.103 A 
HETATM   13  C   UNL     1      -6.677  -0.782 -33.405  1.00  0.00     0.102 A 
HETATM   14  C   UNL     1      -5.348  -0.464 -31.410  1.00  0.00     0.040 A 
HETATM   15  O   UNL     1      -7.825  -0.666 -34.143  1.00  0.00    -0.345 OA
HETATM   16  C   UNL     1      -5.599  -1.412 -34.024  1.00  0.00     0.039 A 
HETATM   17  C   UNL     1      -8.937  -0.250 -33.340  1.00  0.00     0.213 C 
HETATM   18  C   UNL     1      -4.396  -1.573 -33.336  1.00  0.00     0.003 A 
HETATM   19  C   UNL     1      -4.272  -1.103 -32.026  1.00  0.00     0.003 A 
ENDBRANCH   9  10
BRANCH   1  20
HETATM   20  N   UNL     1     -11.355   2.112 -33.101  1.00  0.00    -0.366 N 
HETATM   21  H   UNL     1     -11.570   2.247 -32.114  1.00  0.00     0.162 HD
BRANCH  20  22
HETATM   22  C   UNL     1     -12.496   1.554 -33.845  1.00  0.00     0.021 C 
HETATM   23  C   UNL     1     -12.308   1.662 -35.365  1.00  0.00     0.037 C 
HETATM   24  C   UNL     1     -13.816   2.194 -33.393  1.00  0.00     0.037 C 
HETATM   25  C   UNL     1     -12.544   0.051 -33.491  1.00  0.00     0.037 C 
ENDBRANCH  20  22
ENDBRANCH   1  20
TORSDOF 3
ENDMDL
MODEL 4
REMARK VINA RESULT:      -6.6     16.200     17.765
REMARK  3 active torsions:
REMARK  status: ('A' for Active; 'I' for Inactive)
REMARK    1  A    between atoms: C_2  and  N_3 
REMARK    2  A    between atoms: N_3  and  C_4 
REMARK    3  A    between atoms: C_12  and  C_13 
ROOT
HETATM    1  C   UNL     1      -3.409 -13.602 -38.350  1.00  0.00     0.139 A 
HETATM    2  N   UNL     1      -2.440 -13.853 -37.443  1.00  0.00    -0.224 NA
HETATM    3  C   UNL     1      -2.768 -14.058 -36.161  1.00  0.00     0.236 A 
HETATM    4  N   UNL     1      -3.987 -14.051 -35.628  1.00  0.00    -0.234 NA
HETATM    5  C   UNL     1      -4.940 -13.817 -36.543  1.00  0.00     0.113 A 
HETATM    6  C   UNL     1      -4.757 -13.593 -37.901  1.00  0.00     0.055 A 
HETATM    7  S   UNL     1      -6.572 -13.777 -36.071  1.00  0.00    -0.081 SA
HETATM    8  C   UNL     1      -7.087 -13.473 -37.665  1.00  0.00     0.062 A 
HETATM    9  C   UNL     1      -6.044 -13.401 -38.574  1.00  0.00    -0.003 A 
ENDROOT
BRANCH   9  10
HETATM   10  C   UNL     1      -6.197 -13.156 -40.068  1.00  0.00     0.188 C 
HETATM   11  O   UNL     1      -7.224 -12.179 -40.334  1.00  0.00    -0.336 OA
HETATM   12  C   UNL     1      -8.472 -12.741 -40.397  1.00  0.00     0.103 A 
HETATM   13  C   UNL     1      -8.689 -14.111 -40.570  1.00  0.00     0.102 A 
HETATM   14  C   UNL     1      -9.555 -11.872 -40.276  1.00  0.00     0.040 A 
HETATM   15  O   UNL     1      -7.677 -15.023 -40.716  1.00  0.00    -0.345 OA
HETATM   16  C   UNL     1      -9.988 -14.614 -40.581  1.00  0.00     0.039 A 
HETATM   17  C   UNL     1      -6.415 -14.388 -40.954  1.00  0.00     0.213 C 
HETATM   18  C   UNL     1     -11.073 -13.746 -40.445  1.00  0.00     0.003 A 
HETATM   19  C   UNL     1     -10.856 -12.374 -40.297  1.00  0.00     0.003 A 
ENDBRANCH   9  10
BRANCH   1  20
HETATM   20  N   UNL     1      -3.076 -13.372 -39.682  1.00  0.00    -0.366 N 
HETATM   21  H   UNL     1      -2.708 -12.428 -39.785  1.00  0.00     0.162 HD
BRANCH  20  22
HETATM   22  C   UNL     1      -2.354 -14.345 -40.517  1.00  0.00     0.021 C 
HETATM   23  C   UNL     1      -2.594 -15.792 -40.064  1.00  0.00     0.037 C 
HETATM   24  C   UNL     1      -0.857 -14.014 -40.580  1.00  0.00     0.037 C 
HETATM   25  C   UNL     1      -2.939 -14.204 -41.940  1.00  0.00     0.037 C 
ENDBRANCH  20  22
ENDBRANCH   1  20
TORSDOF 3
ENDMDL
MODEL 5
REMARK VINA RESULT:      -6.5     15.771     17.079
REMARK  3 active torsions:
REMARK  status: ('A' for Active; 'I' for Inactive)
REMARK    1  A    between atoms: C_2  and  N_3 
REMARK    2  A    between atoms: N_3  and  C_4 
REMARK    3  A    between atoms: C_12  and  C_13 
ROOT
HETATM    1  C   UNL     1      -6.093 -13.342 -37.175  1.00  0.00     0.139 A 
HETATM    2  N   UNL     1      -7.211 -13.748 -36.534  1.00  0.00    -0.224 NA
HETATM    3  C   UNL     1      -7.113 -14.590 -35.497  1.00  0.00     0.236 A 
HETATM    4  N   UNL     1      -6.002 -15.108 -34.980  1.00  0.00    -0.234 NA
HETATM    5  C   UNL     1      -4.899 -14.682 -35.615  1.00  0.00     0.113 A 
HETATM    6  C   UNL     1      -4.840 -13.812 -36.695  1.00  0.00     0.055 A 
HETATM    7  S   UNL     1      -3.370 -15.219 -35.102  1.00  0.00    -0.081 SA
HETATM    8  C   UNL     1      -2.581 -14.295 -36.295  1.00  0.00     0.062 A 
HETATM    9  C   UNL     1      -3.452 -13.570 -37.092  1.00  0.00    -0.003 A 
ENDROOT
BRANCH   9  10
HETATM   10  C   UNL     1      -3.039 -12.646 -38.229  1.00  0.00     0.188 C 
HETATM   11  O   UNL     1      -3.531 -13.126 -39.497  1.00  0.00    -0.336 OA
HETATM   12  C   UNL     1      -2.689 -14.044 -40.068  1.00  0.00     0.103 A 
HETATM   13  C   UNL     1      -1.358 -14.209 -39.679  1.00  0.00     0.102 A 
HETATM   14  C   UNL     1      -3.226 -14.836 -41.081  1.00  0.00     0.040 A 
HETATM   15  O   UNL     1      -0.756 -13.456 -38.706  1.00  0.00    -0.345 OA
HETATM   16  C   UNL     1      -0.576 -15.195 -40.277  1.00  0.00     0.039 A 
HETATM   17  C   UNL     1      -1.546 -12.316 -38.346  1.00  0.00     0.213 C 
HETATM   18  C   UNL     1      -1.116 -15.999 -41.282  1.00  0.00     0.003 A 
HETATM   19  C   UNL     1      -2.440 -15.817 -41.687  1.00  0.00     0.003 A 
ENDBRANCH   9  10
BRANCH   1  20
HETATM   20  N   UNL     1      -6.186 -12.480 -38.263  1.00  0.00    -0.366 N 
HETATM   21  H   UNL     1      -5.266 -12.098 -38.478  1.00  0.00     0.162 HD
BRANCH  20  22
HETATM   22  C   UNL     1      -6.957 -12.789 -39.478  1.00  0.00     0.021 C 
HETATM   23  C   UNL     1      -8.440 -12.420 -39.336  1.00  0.00     0.037 C 
HETATM   24  C   UNL     1      -6.777 -14.257 -39.888  1.00  0.00     0.037 C 
HETATM   25  C   UNL     1      -6.366 -11.901 -40.596  1.00  0.00     0.037 C 
ENDBRANCH  20  22
ENDBRANCH   1  20
TORSDOF 3
ENDMDL
MODEL 6
REMARK VINA RESULT:      -6.3      3.404      6.214
REMARK  3 active torsions:
REMARK  status: ('A' for Active; 'I' for Inactive)
REMARK    1  A    between atoms: C_2  and  N_3 
REMARK    2  A    between atoms: N_3  and  C_4 
REMARK    3  A    between atoms: C_12  and  C_13 
ROOT
HETATM    1  C   UNL     1      -3.777   5.338 -31.068  1.00  0.00     0.139 A 
HETATM    2  N   UNL     1      -2.648   6.002 -30.739  1.00  0.00    -0.224 NA
HETATM    3  C   UNL     1      -1.817   6.417 -31.703  1.00  0.00     0.236 A 
HETATM    4  N   UNL     1      -1.960   6.259 -33.016  1.00  0.00    -0.234 NA
HETATM    5  C   UNL     1      -3.093   5.612 -33.330  1.00  0.00     0.113 A 
HETATM    6  C   UNL     1      -4.050   5.128 -32.447  1.00  0.00     0.055 A 
HETATM    7  S   UNL     1      -3.473   5.315 -34.960  1.00  0.00    -0.081 SA
HETATM    8  C   UNL     1      -4.932   4.545 -34.540  1.00  0.00     0.062 A 
HETATM    9  C   UNL     1      -5.157   4.503 -33.173  1.00  0.00    -0.003 A 
ENDROOT
BRANCH   9  10
HETATM   10  C   UNL     1      -6.380   3.892 -32.504  1.00  0.00     0.188 C 
HETATM   11  O   UNL     1      -6.006   2.823 -31.610  1.00  0.00    -0.336 OA
HETATM   12  C   UNL     1      -5.883   1.623 -32.259  1.00  0.00     0.103 A 
HETATM   13  C   UNL     1      -6.418   1.377 -33.526  1.00  0.00     0.102 A 
HETATM   14  C   UNL     1      -5.179   0.622 -31.590  1.00  0.00     0.040 A 
HETATM   15  O   UNL     1      -7.137   2.303 -34.235  1.00  0.00    -0.345 OA
HETATM   16  C   UNL     1      -6.214   0.143 -34.139  1.00  0.00     0.039 A 
HETATM   17  C   UNL     1      -7.512   3.423 -33.424  1.00  0.00     0.213 C 
HETATM   18  C   UNL     1      -5.496  -0.855 -33.478  1.00  0.00     0.003 A 
HETATM   19  C   UNL     1      -4.983  -0.616 -32.201  1.00  0.00     0.003 A 
ENDBRANCH   9  10
BRANCH   1  20
HETATM   20  N   UNL     1      -4.639   4.888 -30.073  1.00  0.00    -0.366 N 
HETATM   21  H   UNL     1      -4.143   4.253 -29.450  1.00  0.00     0.162 HD
BRANCH  20  22
HETATM   22  C   UNL     1      -5.565   5.769 -29.344  1.00  0.00     0.021 C 
HETATM   23  C   UNL     1      -6.106   6.903 -30.226  1.00  0.00     0.037 C 
HETATM   24  C   UNL     1      -4.918   6.311 -28.062  1.00  0.00     0.037 C 
HETATM   25  C   UNL     1      -6.767   4.886 -28.940  1.00  0.00     0.037 C 
ENDBRANCH  20  22
ENDBRANCH   1  20
TORSDOF 3
ENDMDL
MODEL 7
REMARK VINA RESULT:      -6.2     16.374     18.586
REMARK  3 active torsions:
REMARK  status: ('A' for Active; 'I' for Inactive)
REMARK    1  A    between atoms: C_2  and  N_3 
REMARK    2  A    between atoms: N_3  and  C_4 
REMARK    3  A    between atoms: C_12  and  C_13 
ROOT
HETATM    1  C   UNL     1      -2.550 -15.503 -40.370  1.00  0.00     0.139 A 
HETATM    2  N   UNL     1      -1.706 -16.491 -40.738  1.00  0.00    -0.224 NA
HETATM    3  C   UNL     1      -1.779 -17.000 -41.975  1.00  0.00     0.236 A 
HETATM    4  N   UNL     1      -2.614 -16.644 -42.947  1.00  0.00    -0.234 NA
HETATM    5  C   UNL     1      -3.435 -15.651 -42.573  1.00  0.00     0.113 A 
HETATM    6  C   UNL     1      -3.476 -15.022 -41.336  1.00  0.00     0.055 A 
HETATM    7  S   UNL     1      -4.576 -15.039 -43.674  1.00  0.00    -0.081 SA
HETATM    8  C   UNL     1      -5.149 -13.906 -42.539  1.00  0.00     0.062 A 
HETATM    9  C   UNL     1      -4.492 -13.968 -41.321  1.00  0.00    -0.003 A 
ENDROOT
BRANCH   9  10
HETATM   10  C   UNL     1      -4.777 -13.073 -40.124  1.00  0.00     0.188 C 
HETATM   11  O   UNL     1      -5.367 -13.822 -39.041  1.00  0.00    -0.336 OA
HETATM   12  C   UNL     1      -6.727 -13.927 -39.163  1.00  0.00     0.103 A 
HETATM   13  C   UNL     1      -7.489 -13.103 -39.996  1.00  0.00     0.102 A 
HETATM   14  C   UNL     1      -7.347 -14.919 -38.404  1.00  0.00     0.040 A 
HETATM   15  O   UNL     1      -6.954 -12.097 -40.756  1.00  0.00    -0.345 OA
HETATM   16  C   UNL     1      -8.864 -13.299 -40.099  1.00  0.00     0.039 A 
HETATM   17  C   UNL     1      -5.601 -11.808 -40.385  1.00  0.00     0.213 C 
HETATM   18  C   UNL     1      -9.484 -14.301 -39.351  1.00  0.00     0.003 A 
HETATM   19  C   UNL     1      -8.726 -15.108 -38.500  1.00  0.00     0.003 A 
ENDBRANCH   9  10
BRANCH   1  20
HETATM   20  N   UNL     1      -2.493 -14.979 -39.083  1.00  0.00    -0.366 N 
HETATM   21  H   UNL     1      -2.724 -15.705 -38.406  1.00  0.00     0.162 HD
BRANCH  20  22
HETATM   22  C   UNL     1      -1.407 -14.105 -38.611  1.00  0.00     0.021 C 
HETATM   23  C   UNL     1      -0.357 -14.871 -37.793  1.00  0.00     0.037 C 
HETATM   24  C   UNL     1      -1.963 -12.905 -37.833  1.00  0.00     0.037 C 
HETATM   25  C   UNL     1      -0.705 -13.573 -39.880  1.00  0.00     0.037 C 
ENDBRANCH  20  22
ENDBRANCH   1  20
TORSDOF 3
ENDMDL
MODEL 8
REMARK VINA RESULT:      -6.2      3.000      6.031
REMARK  3 active torsions:
REMARK  status: ('A' for Active; 'I' for Inactive)
REMARK    1  A    between atoms: C_2  and  N_3 
REMARK    2  A    between atoms: N_3  and  C_4 
REMARK    3  A    between atoms: C_12  and  C_13 
ROOT
HETATM    1  C   UNL     1      -5.243   3.059 -30.768  1.00  0.00     0.139 A 
HETATM    2  N   UNL     1      -5.958   3.870 -29.959  1.00  0.00    -0.224 NA
HETATM    3  C   UNL     1      -7.233   3.572 -29.679  1.00  0.00     0.236 A 
HETATM    4  N   UNL     1      -7.932   2.525 -30.111  1.00  0.00    -0.234 NA
HETATM    5  C   UNL     1      -7.204   1.720 -30.899  1.00  0.00     0.113 A 
HETATM    6  C   UNL     1      -5.878   1.892 -31.274  1.00  0.00     0.055 A 
HETATM    7  S   UNL     1      -7.908   0.315 -31.550  1.00  0.00    -0.081 SA
HETATM    8  C   UNL     1      -6.461  -0.114 -32.338  1.00  0.00     0.062 A 
HETATM    9  C   UNL     1      -5.430   0.786 -32.123  1.00  0.00    -0.003 A 
ENDROOT
BRANCH   9  10
HETATM   10  C   UNL     1      -4.022   0.659 -32.685  1.00  0.00     0.188 C 
HETATM   11  O   UNL     1      -3.990  -0.238 -33.815  1.00  0.00    -0.336 OA
HETATM   12  C   UNL     1      -3.852  -1.547 -33.436  1.00  0.00     0.103 A 
HETATM   13  C   UNL     1      -3.412  -1.936 -32.168  1.00  0.00     0.102 A 
HETATM   14  C   UNL     1      -4.180  -2.510 -34.389  1.00  0.00     0.040 A 
HETATM   15  O   UNL     1      -3.055  -1.049 -31.188  1.00  0.00    -0.345 OA
HETATM   16  C   UNL     1      -3.339  -3.289 -31.843  1.00  0.00     0.039 A 
HETATM   17  C   UNL     1      -2.913   0.283 -31.697  1.00  0.00     0.213 C 
HETATM   18  C   UNL     1      -3.681  -4.254 -32.791  1.00  0.00     0.003 A 
HETATM   19  C   UNL     1      -4.097  -3.865 -34.066  1.00  0.00     0.003 A 
ENDBRANCH   9  10
BRANCH   1  20
HETATM   20  N   UNL     1      -3.922   3.368 -31.078  1.00  0.00    -0.366 N 
HETATM   21  H   UNL     1      -3.404   2.511 -31.266  1.00  0.00     0.162 HD
BRANCH  20  22
HETATM   22  C   UNL     1      -3.537   4.461 -31.986  1.00  0.00     0.021 C 
HETATM   23  C   UNL     1      -2.282   4.124 -32.802  1.00  0.00     0.037 C 
HETATM   24  C   UNL     1      -3.377   5.782 -31.222  1.00  0.00     0.037 C 
HETATM   25  C   UNL     1      -4.707   4.620 -32.982  1.00  0.00     0.037 C 
ENDBRANCH  20  22
ENDBRANCH   1  20
TORSDOF 3
ENDMDL
MODEL 9
REMARK VINA RESULT:      -6.1      4.003      6.742
REMARK  3 active torsions:
REMARK  status: ('A' for Active; 'I' for Inactive)
REMARK    1  A    between atoms: C_2  and  N_3 
REMARK    2  A    between atoms: N_3  and  C_4 
REMARK    3  A    between atoms: C_12  and  C_13 
ROOT
HETATM    1  C   UNL     1      -2.627   6.746 -31.078  1.00  0.00     0.139 A 
HETATM    2  N   UNL     1      -2.231   8.011 -31.336  1.00  0.00    -0.224 NA
HETATM    3  C   UNL     1      -1.752   8.323 -32.547  1.00  0.00     0.236 A 
HETATM    4  N   UNL     1      -1.608   7.512 -33.592  1.00  0.00    -0.234 NA
HETATM    5  C   UNL     1      -2.020   6.263 -33.326  1.00  0.00     0.113 A 
HETATM    6  C   UNL     1      -2.541   5.792 -32.128  1.00  0.00     0.055 A 
HETATM    7  S   UNL     1      -1.931   5.069 -34.533  1.00  0.00    -0.081 SA
HETATM    8  C   UNL     1      -2.597   3.892 -33.500  1.00  0.00     0.062 A 
HETATM    9  C   UNL     1      -2.899   4.376 -32.238  1.00  0.00    -0.003 A 
ENDROOT
BRANCH   9  10
HETATM   10  C   UNL     1      -3.517   3.563 -31.110  1.00  0.00     0.188 C 
HETATM   11  O   UNL     1      -3.077   2.190 -31.155  1.00  0.00    -0.336 OA
HETATM   12  C   UNL     1      -3.843   1.426 -31.995  1.00  0.00     0.103 A 
HETATM   13  C   UNL     1      -5.107   1.814 -32.446  1.00  0.00     0.102 A 
HETATM   14  C   UNL     1      -3.299   0.208 -32.401  1.00  0.00     0.040 A 
HETATM   15  O   UNL     1      -5.714   2.985 -32.076  1.00  0.00    -0.345 OA
HETATM   16  C   UNL     1      -5.809   1.001 -33.334  1.00  0.00     0.039 A 
HETATM   17  C   UNL     1      -5.043   3.611 -30.976  1.00  0.00     0.213 C 
HETATM   18  C   UNL     1      -5.259  -0.211 -33.753  1.00  0.00     0.003 A 
HETATM   19  C   UNL     1      -4.006  -0.610 -33.282  1.00  0.00     0.003 A 
ENDBRANCH   9  10
BRANCH   1  20
HETATM   20  N   UNL     1      -3.110   6.408 -29.817  1.00  0.00    -0.366 N 
HETATM   21  H   UNL     1      -2.349   6.433 -29.140  1.00  0.00     0.162 HD
BRANCH  20  22
HETATM   22  C   UNL     1      -4.365   6.939 -29.262  1.00  0.00     0.021 C 
HETATM   23  C   UNL     1      -4.987   5.996 -28.223  1.00  0.00     0.037 C 
HETATM   24  C   UNL     1      -5.361   7.283 -30.378  1.00  0.00     0.037 C 
HETATM   25  C   UNL     1      -3.990   8.248 -28.532  1.00  0.00     0.037 C 
ENDBRANCH  20  22
ENDBRANCH   1  20
TORSDOF 3
ENDMDL
MODEL 10
REMARK VINA RESULT:      -6.0     15.630     17.232
REMARK  3 active torsions:
REMARK  status: ('A' for Active; 'I' for Inactive)
REMARK    1  A    between atoms: C_2  and  N_3 
REMARK    2  A    between atoms: N_3  and  C_4 
REMARK    3  A    between atoms: C_12  and  C_13 
ROOT
HETATM    1  C   UNL     1      -3.821 -12.868 -37.786  1.00  0.00     0.139 A 
HETATM    2  N   UNL     1      -3.041 -11.917 -38.344  1.00  0.00    -0.224 NA
HETATM    3  C   UNL     1      -1.715 -12.094 -38.399  1.00  0.00     0.236 A 
HETATM    4  N   UNL     1      -1.021 -13.140 -37.958  1.00  0.00    -0.234 NA
HETATM    5  C   UNL     1      -1.810 -14.084 -37.422  1.00  0.00     0.113 A 
HETATM    6  C   UNL     1      -3.193 -14.046 -37.299  1.00  0.00     0.055 A 
HETATM    7  S   UNL     1      -1.121 -15.511 -36.807  1.00  0.00    -0.081 SA
HETATM    8  C   UNL     1      -2.647 -16.128 -36.371  1.00  0.00     0.062 A 
HETATM    9  C   UNL     1      -3.693 -15.276 -36.683  1.00  0.00    -0.003 A 
ENDROOT
BRANCH   9  10
HETATM   10  C   UNL     1      -5.166 -15.563 -36.425  1.00  0.00     0.188 C 
HETATM   11  O   UNL     1      -5.761 -14.540 -35.600  1.00  0.00    -0.336 OA
HETATM   12  C   UNL     1      -5.581 -14.780 -34.264  1.00  0.00     0.103 A 
HETATM   13  C   UNL     1      -5.217 -16.028 -33.751  1.00  0.00     0.102 A 
HETATM   14  C   UNL     1      -5.775 -13.700 -33.404  1.00  0.00     0.040 A 
HETATM   15  O   UNL     1      -5.027 -17.139 -34.529  1.00  0.00    -0.345 OA
HETATM   16  C   UNL     1      -5.011 -16.184 -32.382  1.00  0.00     0.039 A 
HETATM   17  C   UNL     1      -5.514 -16.946 -35.863  1.00  0.00     0.213 C 
HETATM   18  C   UNL     1      -5.191 -15.099 -31.521  1.00  0.00     0.003 A 
HETATM   19  C   UNL     1      -5.577 -13.858 -32.032  1.00  0.00     0.003 A 
ENDBRANCH   9  10
BRANCH   1  20
HETATM   20  N   UNL     1      -5.199 -12.685 -37.710  1.00  0.00    -0.366 N 
HETATM   21  H   UNL     1      -5.408 -11.900 -37.095  1.00  0.00     0.162 HD
BRANCH  20  22
HETATM   22  C   UNL     1      -6.088 -12.726 -38.881  1.00  0.00     0.021 C 
HETATM   23  C   UNL     1      -5.590 -11.827 -40.022  1.00  0.00     0.037 C 
HETATM   24  C   UNL     1      -7.533 -12.390 -38.489  1.00  0.00     0.037 C 
HETATM   25  C   UNL     1      -6.055 -14.183 -39.393  1.00  0.00     0.037 C 
ENDBRANCH  20  22
ENDBRANCH   1  20
TORSDOF 3
ENDMDL
