MODEL 1
REMARK VINA RESULT:      -9.7      0.000      0.000
REMARK  5 active torsions:
REMARK  status: ('A' for Active; 'I' for Inactive)
REMARK       I    between atoms: C_2  and  N_3 
REMARK    1  A    between atoms: N_3  and  C_4 
REMARK    2  A    between atoms: N_7  and  C_8 
REMARK    3  A    between atoms: C_8  and  C_9 
REMARK       I    between atoms: C_9  and  N_10 
REMARK    4  A    between atoms: C_13  and  O_14 
REMARK    5  A    between atoms: C_13  and  C_15 
ROOT
HETATM    1  C   UNL     1      -5.508   3.662 -32.293  1.00  0.00     0.238 C 
HETATM    2  N   UNL     1      -4.354   4.240 -32.840  1.00  0.00    -0.350 N 
HETATM    3  C   UNL     1      -3.028   3.644 -32.687  1.00  0.00     0.129 C 
HETATM    4  C   UNL     1      -2.029   4.197 -33.691  1.00  0.00     0.063 C 
HETATM    5  C   UNL     1      -1.909   5.723 -33.563  1.00  0.00     0.088 C 
HETATM    6  C   UNL     1      -3.303   6.303 -33.853  1.00  0.00     0.063 C 
HETATM    7  C   UNL     1      -4.420   5.689 -33.015  1.00  0.00     0.129 C 
HETATM    8  O   UNL     1      -6.610   4.210 -32.392  1.00  0.00    -0.272 OA
ENDROOT
BRANCH   1   9
HETATM    9  C   UNL     1      -5.385   2.372 -31.496  1.00  0.00     0.231 C 
BRANCH   9  10
HETATM   10  N   UNL     1      -5.595   1.197 -32.338  1.00  0.00    -0.347 N 
HETATM   11  C   UNL     1      -4.819   0.052 -32.357  1.00  0.00     0.047 A 
HETATM   12  C   UNL     1      -5.385  -0.817 -33.302  1.00  0.00     0.019 A 
HETATM   13  C   UNL     1      -3.671  -0.299 -31.633  1.00  0.00     0.031 A 
HETATM   14  C   UNL     1      -4.781  -2.079 -33.556  1.00  0.00     0.047 A 
HETATM   15  C   UNL     1      -6.513  -0.143 -33.855  1.00  0.00     0.033 A 
HETATM   16  C   UNL     1      -3.649  -2.428 -32.811  1.00  0.00     0.030 A 
HETATM   17  C   UNL     1      -3.104  -1.552 -31.872  1.00  0.00     0.005 A 
HETATM   18  C   UNL     1      -6.602   1.093 -33.265  1.00  0.00     0.092 A 
BRANCH  14  19
HETATM   19  N   UNL     1      -5.394  -2.915 -34.509  1.00  0.00    -0.327 N 
HETATM   20  C   UNL     1      -5.374  -4.259 -34.728  1.00  0.00     0.218 C 
HETATM   21  C   UNL     1      -4.411  -5.154 -34.005  1.00  0.00     0.117 C 
HETATM   22  O   UNL     1      -6.136  -4.726 -35.580  1.00  0.00    -0.274 OA
HETATM   23  H   UNL     1      -5.963  -2.444 -35.203  1.00  0.00     0.169 HD
ENDBRANCH  14  19
ENDBRANCH   9  10
ENDBRANCH   1   9
BRANCH   5  24
HETATM   24  O   UNL     1      -1.057   6.175 -34.630  1.00  0.00    -0.385 OA
HETATM   25  H   UNL     1      -0.508   6.899 -34.280  1.00  0.00     0.211 HD
ENDBRANCH   5  24
BRANCH   5  26
HETATM   26  C   UNL     1      -1.221   6.133 -32.257  1.00  0.00    -0.024 A 
HETATM   27  C   UNL     1      -1.640   7.315 -31.608  1.00  0.00     0.012 A 
HETATM   28  C   UNL     1      -1.018   7.772 -30.444  1.00  0.00     0.024 A 
HETATM   29  C   UNL     1       0.032   7.045 -29.896  1.00  0.00     0.034 A 
HETATM   30 CL   UNL     1       0.816   7.610 -28.475  1.00  0.00    -0.084 Cl
HETATM   31  C   UNL     1       0.442   5.857 -30.492  1.00  0.00     0.024 A 
HETATM   32  C   UNL     1      -0.189   5.398 -31.656  1.00  0.00     0.012 A 
ENDBRANCH   5  26
TORSDOF 5
ENDMDL
MODEL 2
REMARK VINA RESULT:      -9.6      5.442      8.654
REMARK  5 active torsions:
REMARK  status: ('A' for Active; 'I' for Inactive)
REMARK       I    between atoms: C_2  and  N_3 
REMARK    1  A    between atoms: N_3  and  C_4 
REMARK    2  A    between atoms: N_7  and  C_8 
REMARK    3  A    between atoms: C_8  and  C_9 
REMARK       I    between atoms: C_9  and  N_10 
REMARK    4  A    between atoms: C_13  and  O_14 
REMARK    5  A    between atoms: C_13  and  C_15 
ROOT
HETATM    1  C   UNL     1      -7.486   2.660 -31.424  1.00  0.00     0.238 C 
HETATM    2  N   UNL     1      -6.352   1.863 -31.630  1.00  0.00    -0.350 N 
HETATM    3  C   UNL     1      -5.714   1.727 -32.938  1.00  0.00     0.129 C 
HETATM    4  C   UNL     1      -4.300   1.176 -32.835  1.00  0.00     0.063 C 
HETATM    5  C   UNL     1      -4.294  -0.190 -32.131  1.00  0.00     0.088 C 
HETATM    6  C   UNL     1      -4.863   0.035 -30.720  1.00  0.00     0.063 C 
HETATM    7  C   UNL     1      -6.212   0.747 -30.698  1.00  0.00     0.129 C 
HETATM    8  O   UNL     1      -8.039   2.719 -30.321  1.00  0.00    -0.272 OA
ENDROOT
BRANCH   1   9
HETATM    9  C   UNL     1      -8.093   3.406 -32.604  1.00  0.00     0.231 C 
BRANCH   9  10
HETATM   10  N   UNL     1      -9.326   2.775 -33.064  1.00  0.00    -0.347 N 
HETATM   11  C   UNL     1     -10.416   3.416 -33.626  1.00  0.00     0.047 A 
HETATM   12  C   UNL     1     -11.368   2.429 -33.926  1.00  0.00     0.019 A 
HETATM   13  C   UNL     1     -10.654   4.771 -33.894  1.00  0.00     0.031 A 
HETATM   14  C   UNL     1     -12.615   2.799 -34.500  1.00  0.00     0.047 A 
HETATM   15  C   UNL     1     -10.813   1.183 -33.509  1.00  0.00     0.033 A 
HETATM   16  C   UNL     1     -12.833   4.152 -34.785  1.00  0.00     0.030 A 
HETATM   17  C   UNL     1     -11.871   5.118 -34.483  1.00  0.00     0.005 A 
HETATM   18  C   UNL     1      -9.577   1.428 -32.966  1.00  0.00     0.092 A 
BRANCH  14  19
HETATM   19  N   UNL     1     -13.531   1.769 -34.788  1.00  0.00    -0.327 N 
HETATM   20  C   UNL     1     -14.637   1.294 -34.151  1.00  0.00     0.218 C 
HETATM   21  C   UNL     1     -14.984   1.729 -32.758  1.00  0.00     0.117 C 
HETATM   22  O   UNL     1     -15.328   0.450 -34.728  1.00  0.00    -0.274 OA
HETATM   23  H   UNL     1     -13.344   1.241 -35.631  1.00  0.00     0.169 HD
ENDBRANCH  14  19
ENDBRANCH   9  10
ENDBRANCH   1   9
BRANCH   5  24
HETATM   24  O   UNL     1      -2.919  -0.573 -31.953  1.00  0.00    -0.385 OA
HETATM   25  H   UNL     1      -2.907  -1.514 -31.706  1.00  0.00     0.211 HD
ENDBRANCH   5  24
BRANCH   5  26
HETATM   26  C   UNL     1      -4.938  -1.279 -32.996  1.00  0.00    -0.024 A 
HETATM   27  C   UNL     1      -4.147  -2.370 -33.418  1.00  0.00     0.012 A 
HETATM   28  C   UNL     1      -4.660  -3.367 -34.252  1.00  0.00     0.024 A 
HETATM   29  C   UNL     1      -5.982  -3.298 -34.671  1.00  0.00     0.034 A 
HETATM   30 CL   UNL     1      -6.616  -4.510 -35.713  1.00  0.00    -0.084 Cl
HETATM   31  C   UNL     1      -6.797  -2.255 -34.242  1.00  0.00     0.024 A 
HETATM   32  C   UNL     1      -6.282  -1.261 -33.399  1.00  0.00     0.012 A 
ENDBRANCH   5  26
TORSDOF 5
ENDMDL
MODEL 3
REMARK VINA RESULT:      -9.6      3.780      9.125
REMARK  5 active torsions:
REMARK  status: ('A' for Active; 'I' for Inactive)
REMARK       I    between atoms: C_2  and  N_3 
REMARK    1  A    between atoms: N_3  and  C_4 
REMARK    2  A    between atoms: N_7  and  C_8 
REMARK    3  A    between atoms: C_8  and  C_9 
REMARK       I    between atoms: C_9  and  N_10 
REMARK    4  A    between atoms: C_13  and  O_14 
REMARK    5  A    between atoms: C_13  and  C_15 
ROOT
HETATM    1  C   UNL     1      -6.702   4.372 -33.794  1.00  0.00     0.238 C 
HETATM    2  N   UNL     1      -6.752   3.260 -32.942  1.00  0.00    -0.350 N 
HETATM    3  C   UNL     1      -5.550   2.560 -32.491  1.00  0.00     0.129 C 
HETATM    4  C   UNL     1      -5.815   1.685 -31.277  1.00  0.00     0.063 C 
HETATM    5  C   UNL     1      -6.913   0.652 -31.573  1.00  0.00     0.088 C 
HETATM    6  C   UNL     1      -8.184   1.444 -31.922  1.00  0.00     0.063 C 
HETATM    7  C   UNL     1      -7.988   2.484 -33.021  1.00  0.00     0.129 C 
HETATM    8  O   UNL     1      -7.733   4.915 -34.202  1.00  0.00    -0.272 OA
ENDROOT
BRANCH   1   9
HETATM    9  C   UNL     1      -5.351   4.870 -34.285  1.00  0.00     0.231 C 
BRANCH   9  10
HETATM   10  N   UNL     1      -4.749   5.810 -33.344  1.00  0.00    -0.347 N 
HETATM   11  C   UNL     1      -3.430   6.226 -33.331  1.00  0.00     0.047 A 
HETATM   12  C   UNL     1      -3.291   7.133 -32.269  1.00  0.00     0.019 A 
HETATM   13  C   UNL     1      -2.345   5.887 -34.152  1.00  0.00     0.031 A 
HETATM   14  C   UNL     1      -2.024   7.716 -31.996  1.00  0.00     0.047 A 
HETATM   15  C   UNL     1      -4.569   7.228 -31.642  1.00  0.00     0.033 A 
HETATM   16  C   UNL     1      -0.953   7.388 -32.836  1.00  0.00     0.030 A 
HETATM   17  C   UNL     1      -1.113   6.488 -33.890  1.00  0.00     0.005 A 
HETATM   18  C   UNL     1      -5.432   6.392 -32.305  1.00  0.00     0.092 A 
BRANCH  14  19
HETATM   19  N   UNL     1      -1.942   8.625 -30.923  1.00  0.00    -0.327 N 
HETATM   20  C   UNL     1      -1.591   8.499 -29.613  1.00  0.00     0.218 C 
HETATM   21  C   UNL     1      -1.397   7.151 -28.982  1.00  0.00     0.117 C 
HETATM   22  O   UNL     1      -1.486   9.524 -28.933  1.00  0.00    -0.274 OA
HETATM   23  H   UNL     1      -2.212   9.578 -31.135  1.00  0.00     0.169 HD
ENDBRANCH  14  19
ENDBRANCH   9  10
ENDBRANCH   1   9
BRANCH   5  24
HETATM   24  O   UNL     1      -7.196  -0.036 -30.342  1.00  0.00    -0.385 OA
HETATM   25  H   UNL     1      -8.134   0.116 -30.130  1.00  0.00     0.211 HD
ENDBRANCH   5  24
BRANCH   5  26
HETATM   26  C   UNL     1      -6.440  -0.414 -32.566  1.00  0.00    -0.024 A 
HETATM   27  C   UNL     1      -7.353  -0.907 -33.524  1.00  0.00     0.012 A 
HETATM   28  C   UNL     1      -7.000  -1.917 -34.422  1.00  0.00     0.024 A 
HETATM   29  C   UNL     1      -5.716  -2.448 -34.387  1.00  0.00     0.034 A 
HETATM   30 CL   UNL     1      -5.279  -3.705 -35.475  1.00  0.00    -0.084 Cl
HETATM   31  C   UNL     1      -4.783  -1.957 -33.480  1.00  0.00     0.024 A 
HETATM   32  C   UNL     1      -5.138  -0.938 -32.585  1.00  0.00     0.012 A 
ENDBRANCH   5  26
TORSDOF 5
ENDMDL
MODEL 4
REMARK VINA RESULT:      -9.4      0.936      2.043
REMARK  5 active torsions:
REMARK  status: ('A' for Active; 'I' for Inactive)
REMARK       I    between atoms: C_2  and  N_3 
REMARK    1  A    between atoms: N_3  and  C_4 
REMARK    2  A    between atoms: N_7  and  C_8 
REMARK    3  A    between atoms: C_8  and  C_9 
REMARK       I    between atoms: C_9  and  N_10 
REMARK    4  A    between atoms: C_13  and  O_14 
REMARK    5  A    between atoms: C_13  and  C_15 
ROOT
HETATM    1  C   UNL     1      -5.860   3.836 -32.372  1.00  0.00     0.238 C 
HETATM    2  N   UNL     1      -4.626   4.208 -32.923  1.00  0.00    -0.350 N 
HETATM    3  C   UNL     1      -3.360   3.625 -32.483  1.00  0.00     0.129 C 
HETATM    4  C   UNL     1      -2.240   3.860 -33.484  1.00  0.00     0.063 C 
HETATM    5  C   UNL     1      -2.036   5.361 -33.739  1.00  0.00     0.088 C 
HETATM    6  C   UNL     1      -3.359   5.896 -34.313  1.00  0.00     0.063 C 
HETATM    7  C   UNL     1      -4.585   5.563 -33.469  1.00  0.00     0.129 C 
HETATM    8  O   UNL     1      -6.912   4.379 -32.724  1.00  0.00    -0.272 OA
ENDROOT
BRANCH   1   9
HETATM    9  C   UNL     1      -5.892   2.795 -31.263  1.00  0.00     0.231 C 
BRANCH   9  10
HETATM   10  N   UNL     1      -5.517   1.472 -31.754  1.00  0.00    -0.347 N 
HETATM   11  C   UNL     1      -6.014   0.844 -32.882  1.00  0.00     0.047 A 
HETATM   12  C   UNL     1      -5.374  -0.401 -32.981  1.00  0.00     0.019 A 
HETATM   13  C   UNL     1      -6.970   1.254 -33.823  1.00  0.00     0.031 A 
HETATM   14  C   UNL     1      -5.704  -1.285 -34.044  1.00  0.00     0.047 A 
HETATM   15  C   UNL     1      -4.491  -0.497 -31.864  1.00  0.00     0.033 A 
HETATM   16  C   UNL     1      -6.643  -0.857 -34.989  1.00  0.00     0.030 A 
HETATM   17  C   UNL     1      -7.265   0.388 -34.876  1.00  0.00     0.005 A 
HETATM   18  C   UNL     1      -4.618   0.650 -31.122  1.00  0.00     0.092 A 
BRANCH  14  19
HETATM   19  N   UNL     1      -5.027  -2.519 -34.099  1.00  0.00    -0.327 N 
HETATM   20  C   UNL     1      -5.382  -3.765 -34.515  1.00  0.00     0.218 C 
HETATM   21  C   UNL     1      -6.807  -4.103 -34.844  1.00  0.00     0.117 C 
HETATM   22  O   UNL     1      -4.510  -4.637 -34.569  1.00  0.00    -0.274 OA
HETATM   23  H   UNL     1      -4.077  -2.513 -33.746  1.00  0.00     0.169 HD
ENDBRANCH  14  19
ENDBRANCH   9  10
ENDBRANCH   1   9
BRANCH   5  24
HETATM   24  O   UNL     1      -1.063   5.488 -34.789  1.00  0.00    -0.385 OA
HETATM   25  H   UNL     1      -0.804   4.589 -35.059  1.00  0.00     0.211 HD
ENDBRANCH   5  24
BRANCH   5  26
HETATM   26  C   UNL     1      -1.449   6.072 -32.515  1.00  0.00    -0.024 A 
HETATM   27  C   UNL     1      -0.318   5.513 -31.881  1.00  0.00     0.012 A 
HETATM   28  C   UNL     1       0.232   6.083 -30.729  1.00  0.00     0.024 A 
HETATM   29  C   UNL     1      -0.333   7.234 -30.196  1.00  0.00     0.034 A 
HETATM   30 CL   UNL     1       0.325   7.930 -28.769  1.00  0.00    -0.084 Cl
HETATM   31  C   UNL     1      -1.425   7.829 -30.820  1.00  0.00     0.024 A 
HETATM   32  C   UNL     1      -1.970   7.259 -31.979  1.00  0.00     0.012 A 
ENDBRANCH   5  26
TORSDOF 5
ENDMDL
MODEL 5
REMARK VINA RESULT:      -9.2      3.497      9.093
REMARK  5 active torsions:
REMARK  status: ('A' for Active; 'I' for Inactive)
REMARK       I    between atoms: C_2  and  N_3 
REMARK    1  A    between atoms: N_3  and  C_4 
REMARK    2  A    between atoms: N_7  and  C_8 
REMARK    3  A    between atoms: C_8  and  C_9 
REMARK       I    between atoms: C_9  and  N_10 
REMARK    4  A    between atoms: C_13  and  O_14 
REMARK    5  A    between atoms: C_13  and  C_15 
ROOT
HETATM    1  C   UNL     1      -4.609   4.429 -33.736  1.00  0.00     0.238 C 
HETATM    2  N   UNL     1      -5.212   3.417 -32.977  1.00  0.00    -0.350 N 
HETATM    3  C   UNL     1      -4.476   2.633 -31.986  1.00  0.00     0.129 C 
HETATM    4  C   UNL     1      -5.402   1.913 -31.018  1.00  0.00     0.063 C 
HETATM    5  C   UNL     1      -6.371   0.987 -31.770  1.00  0.00     0.088 C 
HETATM    6  C   UNL     1      -7.201   1.880 -32.708  1.00  0.00     0.063 C 
HETATM    7  C   UNL     1      -6.365   2.781 -33.611  1.00  0.00     0.129 C 
HETATM    8  O   UNL     1      -5.239   5.043 -34.603  1.00  0.00    -0.272 OA
ENDROOT
BRANCH   1   9
HETATM    9  C   UNL     1      -3.129   4.722 -33.538  1.00  0.00     0.231 C 
BRANCH   9  10
HETATM   10  N   UNL     1      -2.914   5.737 -32.511  1.00  0.00    -0.347 N 
HETATM   11  C   UNL     1      -1.742   5.957 -31.809  1.00  0.00     0.047 A 
HETATM   12  C   UNL     1      -1.978   7.028 -30.933  1.00  0.00     0.019 A 
HETATM   13  C   UNL     1      -0.498   5.312 -31.859  1.00  0.00     0.031 A 
HETATM   14  C   UNL     1      -0.948   7.470 -30.059  1.00  0.00     0.047 A 
HETATM   15  C   UNL     1      -3.335   7.425 -31.128  1.00  0.00     0.033 A 
HETATM   16  C   UNL     1       0.297   6.834 -30.134  1.00  0.00     0.030 A 
HETATM   17  C   UNL     1       0.513   5.773 -31.016  1.00  0.00     0.005 A 
HETATM   18  C   UNL     1      -3.886   6.604 -32.079  1.00  0.00     0.092 A 
BRANCH  14  19
HETATM   19  N   UNL     1      -1.236   8.553 -29.206  1.00  0.00    -0.327 N 
HETATM   20  C   UNL     1      -1.570   8.645 -27.889  1.00  0.00     0.218 C 
HETATM   21  C   UNL     1      -1.917   7.428 -27.083  1.00  0.00     0.117 C 
HETATM   22  O   UNL     1      -1.633   9.767 -27.378  1.00  0.00    -0.274 OA
HETATM   23  H   UNL     1      -1.216   9.468 -29.639  1.00  0.00     0.169 HD
ENDBRANCH  14  19
ENDBRANCH   9  10
ENDBRANCH   1   9
BRANCH   5  24
HETATM   24  O   UNL     1      -7.292   0.456 -30.802  1.00  0.00    -0.385 OA
HETATM   25  H   UNL     1      -6.878   0.543 -29.925  1.00  0.00     0.211 HD
ENDBRANCH   5  24
BRANCH   5  26
HETATM   26  C   UNL     1      -5.647  -0.216 -32.384  1.00  0.00    -0.024 A 
HETATM   27  C   UNL     1      -6.180  -0.810 -33.548  1.00  0.00     0.012 A 
HETATM   28  C   UNL     1      -5.598  -1.942 -34.125  1.00  0.00     0.024 A 
HETATM   29  C   UNL     1      -4.460  -2.496 -33.554  1.00  0.00     0.034 A 
HETATM   30 CL   UNL     1      -3.749  -3.900 -34.246  1.00  0.00    -0.084 Cl
HETATM   31  C   UNL     1      -3.890  -1.911 -32.428  1.00  0.00     0.024 A 
HETATM   32  C   UNL     1      -4.472  -0.771 -31.855  1.00  0.00     0.012 A 
ENDBRANCH   5  26
TORSDOF 5
ENDMDL
MODEL 6
REMARK VINA RESULT:      -9.2     16.919     18.890
REMARK  5 active torsions:
REMARK  status: ('A' for Active; 'I' for Inactive)
REMARK       I    between atoms: C_2  and  N_3 
REMARK    1  A    between atoms: N_3  and  C_4 
REMARK    2  A    between atoms: N_7  and  C_8 
REMARK    3  A    between atoms: C_8  and  C_9 
REMARK       I    between atoms: C_9  and  N_10 
REMARK    4  A    between atoms: C_13  and  O_14 
REMARK    5  A    between atoms: C_13  and  C_15 
ROOT
HETATM    1  C   UNL     1      -3.448 -13.965 -36.252  1.00  0.00     0.238 C 
HETATM    2  N   UNL     1      -2.433 -14.085 -37.212  1.00  0.00    -0.350 N 
HETATM    3  C   UNL     1      -2.259 -13.120 -38.296  1.00  0.00     0.129 C 
HETATM    4  C   UNL     1      -0.882 -13.215 -38.935  1.00  0.00     0.063 C 
HETATM    5  C   UNL     1      -0.626 -14.629 -39.479  1.00  0.00     0.088 C 
HETATM    6  C   UNL     1      -0.702 -15.587 -38.278  1.00  0.00     0.063 C 
HETATM    7  C   UNL     1      -1.979 -15.453 -37.454  1.00  0.00     0.129 C 
HETATM    8  O   UNL     1      -3.608 -14.821 -35.376  1.00  0.00    -0.272 OA
ENDROOT
BRANCH   1   9
HETATM    9  C   UNL     1      -4.419 -12.797 -36.341  1.00  0.00     0.231 C 
BRANCH   9  10
HETATM   10  N   UNL     1      -5.647 -13.169 -37.036  1.00  0.00    -0.347 N 
HETATM   11  C   UNL     1      -5.967 -12.876 -38.350  1.00  0.00     0.047 A 
HETATM   12  C   UNL     1      -7.233 -13.428 -38.602  1.00  0.00     0.019 A 
HETATM   13  C   UNL     1      -5.263 -12.175 -39.339  1.00  0.00     0.031 A 
HETATM   14  C   UNL     1      -7.835 -13.266 -39.879  1.00  0.00     0.047 A 
HETATM   15  C   UNL     1      -7.660 -14.044 -37.389  1.00  0.00     0.033 A 
HETATM   16  C   UNL     1      -7.113 -12.584 -40.866  1.00  0.00     0.030 A 
HETATM   17  C   UNL     1      -5.854 -12.046 -40.597  1.00  0.00     0.005 A 
HETATM   18  C   UNL     1      -6.683 -13.849 -36.445  1.00  0.00     0.092 A 
BRANCH  14  19
HETATM   19  N   UNL     1      -9.103 -13.846 -40.080  1.00  0.00    -0.327 N 
HETATM   20  C   UNL     1     -10.339 -13.333 -40.329  1.00  0.00     0.218 C 
HETATM   21  C   UNL     1     -10.611 -11.861 -40.221  1.00  0.00     0.117 C 
HETATM   22  O   UNL     1     -11.255 -14.115 -40.598  1.00  0.00    -0.274 OA
HETATM   23  H   UNL     1      -9.137 -14.856 -40.015  1.00  0.00     0.169 HD
ENDBRANCH  14  19
ENDBRANCH   9  10
ENDBRANCH   1   9
BRANCH   5  24
HETATM   24  O   UNL     1       0.736 -14.670 -39.938  1.00  0.00    -0.385 OA
HETATM   25  H   UNL     1       1.014 -15.603 -39.950  1.00  0.00     0.211 HD
ENDBRANCH   5  24
BRANCH   5  26
HETATM   26  C   UNL     1      -1.503 -14.938 -40.697  1.00  0.00    -0.024 A 
HETATM   27  C   UNL     1      -1.371 -16.193 -41.330  1.00  0.00     0.012 A 
HETATM   28  C   UNL     1      -2.101 -16.515 -42.477  1.00  0.00     0.024 A 
HETATM   29  C   UNL     1      -2.992 -15.590 -43.006  1.00  0.00     0.034 A 
HETATM   30 CL   UNL     1      -3.881 -15.971 -44.427  1.00  0.00    -0.084 Cl
HETATM   31  C   UNL     1      -3.171 -14.359 -42.383  1.00  0.00     0.024 A 
HETATM   32  C   UNL     1      -2.442 -14.041 -41.229  1.00  0.00     0.012 A 
ENDBRANCH   5  26
TORSDOF 5
ENDMDL
MODEL 7
REMARK VINA RESULT:      -9.2      1.807      2.856
REMARK  5 active torsions:
REMARK  status: ('A' for Active; 'I' for Inactive)
REMARK       I    between atoms: C_2  and  N_3 
REMARK    1  A    between atoms: N_3  and  C_4 
REMARK    2  A    between atoms: N_7  and  C_8 
REMARK    3  A    between atoms: C_8  and  C_9 
REMARK       I    between atoms: C_9  and  N_10 
REMARK    4  A    between atoms: C_13  and  O_14 
REMARK    5  A    between atoms: C_13  and  C_15 
ROOT
HETATM    1  C   UNL     1      -4.481   4.302 -33.441  1.00  0.00     0.238 C 
HETATM    2  N   UNL     1      -3.304   4.919 -32.998  1.00  0.00    -0.350 N 
HETATM    3  C   UNL     1      -2.786   4.742 -31.642  1.00  0.00     0.129 C 
HETATM    4  C   UNL     1      -1.324   5.146 -31.527  1.00  0.00     0.063 C 
HETATM    5  C   UNL     1      -1.124   6.609 -31.951  1.00  0.00     0.088 C 
HETATM    6  C   UNL     1      -1.571   6.710 -33.419  1.00  0.00     0.063 C 
HETATM    7  C   UNL     1      -2.971   6.166 -33.683  1.00  0.00     0.129 C 
HETATM    8  O   UNL     1      -4.927   4.507 -34.575  1.00  0.00    -0.272 OA
ENDROOT
BRANCH   1   9
HETATM    9  C   UNL     1      -5.265   3.422 -32.479  1.00  0.00     0.231 C 
BRANCH   9  10
HETATM   10  N   UNL     1      -5.004   2.004 -32.711  1.00  0.00    -0.347 N 
HETATM   11  C   UNL     1      -5.730   1.160 -33.533  1.00  0.00     0.047 A 
HETATM   12  C   UNL     1      -5.127  -0.106 -33.464  1.00  0.00     0.019 A 
HETATM   13  C   UNL     1      -6.862   1.391 -34.327  1.00  0.00     0.031 A 
HETATM   14  C   UNL     1      -5.676  -1.193 -34.197  1.00  0.00     0.047 A 
HETATM   15  C   UNL     1      -4.029   0.012 -32.561  1.00  0.00     0.033 A 
HETATM   16  C   UNL     1      -6.792  -0.945 -35.005  1.00  0.00     0.030 A 
HETATM   17  C   UNL     1      -7.374   0.322 -35.063  1.00  0.00     0.005 A 
HETATM   18  C   UNL     1      -3.994   1.304 -32.100  1.00  0.00     0.092 A 
BRANCH  14  19
HETATM   19  N   UNL     1      -5.028  -2.439 -34.098  1.00  0.00    -0.327 N 
HETATM   20  C   UNL     1      -5.355  -3.700 -34.494  1.00  0.00     0.218 C 
HETATM   21  C   UNL     1      -6.731  -4.029 -34.994  1.00  0.00     0.117 C 
HETATM   22  O   UNL     1      -4.506  -4.588 -34.385  1.00  0.00    -0.274 OA
HETATM   23  H   UNL     1      -4.135  -2.431 -33.620  1.00  0.00     0.169 HD
ENDBRANCH  14  19
ENDBRANCH   9  10
ENDBRANCH   1   9
BRANCH   5  24
HETATM   24  O   UNL     1       0.291   6.866 -31.944  1.00  0.00    -0.385 OA
HETATM   25  H   UNL     1       0.708   6.194 -31.376  1.00  0.00     0.211 HD
ENDBRANCH   5  24
BRANCH   5  26
HETATM   26  C   UNL     1      -1.746   7.584 -30.946  1.00  0.00    -0.024 A 
HETATM   27  C   UNL     1      -1.580   7.337 -29.566  1.00  0.00     0.012 A 
HETATM   28  C   UNL     1      -2.168   8.156 -28.599  1.00  0.00     0.024 A 
HETATM   29  C   UNL     1      -2.925   9.251 -28.995  1.00  0.00     0.034 A 
HETATM   30 CL   UNL     1      -3.668  10.253 -27.813  1.00  0.00    -0.084 Cl
HETATM   31  C   UNL     1      -3.076   9.541 -30.347  1.00  0.00     0.024 A 
HETATM   32  C   UNL     1      -2.480   8.721 -31.315  1.00  0.00     0.012 A 
ENDBRANCH   5  26
TORSDOF 5
ENDMDL
MODEL 8
REMARK VINA RESULT:      -9.1      6.038      9.025
REMARK  5 active torsions:
REMARK  status: ('A' for Active; 'I' for Inactive)
REMARK       I    between atoms: C_2  and  N_3 
REMARK    1  A    between atoms: N_3  and  C_4 
REMARK    2  A    between atoms: N_7  and  C_8 
REMARK    3  A    between atoms: C_8  and  C_9 
REMARK       I    between atoms: C_9  and  N_10 
REMARK    4  A    between atoms: C_13  and  O_14 
REMARK    5  A    between atoms: C_13  and  C_15 
ROOT
HETATM    1  C   UNL     1      -9.031   2.730 -32.307  1.00  0.00     0.238 C 
HETATM    2  N   UNL     1      -7.739   2.186 -32.312  1.00  0.00    -0.350 N 
HETATM    3  C   UNL     1      -6.928   2.100 -33.526  1.00  0.00     0.129 C 
HETATM    4  C   UNL     1      -5.455   1.877 -33.219  1.00  0.00     0.063 C 
HETATM    5  C   UNL     1      -5.254   0.599 -32.391  1.00  0.00     0.088 C 
HETATM    6  C   UNL     1      -6.028   0.795 -31.076  1.00  0.00     0.063 C 
HETATM    7  C   UNL     1      -7.488   1.196 -31.267  1.00  0.00     0.129 C 
HETATM    8  O   UNL     1      -9.717   2.746 -31.279  1.00  0.00    -0.272 OA
ENDROOT
BRANCH   1   9
HETATM    9  C   UNL     1      -9.627   3.241 -33.610  1.00  0.00     0.231 C 
BRANCH   9  10
HETATM   10  N   UNL     1     -11.074   3.054 -33.650  1.00  0.00    -0.347 N 
HETATM   11  C   UNL     1     -11.747   1.846 -33.599  1.00  0.00     0.047 A 
HETATM   12  C   UNL     1     -13.120   2.133 -33.658  1.00  0.00     0.019 A 
HETATM   13  C   UNL     1     -11.277   0.528 -33.508  1.00  0.00     0.031 A 
HETATM   14  C   UNL     1     -14.067   1.073 -33.645  1.00  0.00     0.047 A 
HETATM   15  C   UNL     1     -13.238   3.551 -33.763  1.00  0.00     0.033 A 
HETATM   16  C   UNL     1     -13.587  -0.237 -33.532  1.00  0.00     0.030 A 
HETATM   17  C   UNL     1     -12.218  -0.501 -33.469  1.00  0.00     0.005 A 
HETATM   18  C   UNL     1     -11.973   4.083 -33.780  1.00  0.00     0.092 A 
BRANCH  14  19
HETATM   19  N   UNL     1     -15.431   1.418 -33.699  1.00  0.00    -0.327 N 
HETATM   20  C   UNL     1     -16.268   2.069 -32.845  1.00  0.00     0.218 C 
HETATM   21  C   UNL     1     -15.852   2.395 -31.440  1.00  0.00     0.117 C 
HETATM   22  O   UNL     1     -17.406   2.345 -33.236  1.00  0.00    -0.274 OA
HETATM   23  H   UNL     1     -15.926   1.115 -34.530  1.00  0.00     0.169 HD
ENDBRANCH  14  19
ENDBRANCH   9  10
ENDBRANCH   1   9
BRANCH   5  24
HETATM   24  O   UNL     1      -3.863   0.538 -32.031  1.00  0.00    -0.385 OA
HETATM   25  H   UNL     1      -3.348   0.493 -32.856  1.00  0.00     0.211 HD
ENDBRANCH   5  24
BRANCH   5  26
HETATM   26  C   UNL     1      -5.545  -0.662 -33.210  1.00  0.00    -0.024 A 
HETATM   27  C   UNL     1      -6.886  -0.986 -33.509  1.00  0.00     0.012 A 
HETATM   28  C   UNL     1      -7.221  -2.151 -34.205  1.00  0.00     0.024 A 
HETATM   29  C   UNL     1      -6.216  -3.010 -34.629  1.00  0.00     0.034 A 
HETATM   30 CL   UNL     1      -6.620  -4.454 -35.469  1.00  0.00    -0.084 Cl
HETATM   31  C   UNL     1      -4.883  -2.699 -34.382  1.00  0.00     0.024 A 
HETATM   32  C   UNL     1      -4.549  -1.527 -33.690  1.00  0.00     0.012 A 
ENDBRANCH   5  26
TORSDOF 5
ENDMDL
MODEL 9
REMARK VINA RESULT:      -8.9      5.344      7.836
REMARK  5 active torsions:
REMARK  status: ('A' for Active; 'I' for Inactive)
REMARK       I    between atoms: C_2  and  N_3 
REMARK    1  A    between atoms: N_3  and  C_4 
REMARK    2  A    between atoms: N_7  and  C_8 
REMARK    3  A    between atoms: C_8  and  C_9 
REMARK       I    between atoms: C_9  and  N_10 
REMARK    4  A    between atoms: C_13  and  O_14 
REMARK    5  A    between atoms: C_13  and  C_15 
ROOT
HETATM    1  C   UNL     1      -7.218   3.381 -33.018  1.00  0.00     0.238 C 
HETATM    2  N   UNL     1      -8.445   4.034 -32.842  1.00  0.00    -0.350 N 
HETATM    3  C   UNL     1      -9.409   3.633 -31.819  1.00  0.00     0.129 C 
HETATM    4  C   UNL     1     -10.440   4.716 -31.542  1.00  0.00     0.063 C 
HETATM    5  C   UNL     1     -11.199   5.091 -32.825  1.00  0.00     0.088 C 
HETATM    6  C   UNL     1     -10.153   5.618 -33.821  1.00  0.00     0.063 C 
HETATM    7  C   UNL     1      -8.973   4.677 -34.043  1.00  0.00     0.129 C 
HETATM    8  O   UNL     1      -6.442   3.705 -33.923  1.00  0.00    -0.272 OA
ENDROOT
BRANCH   1   9
HETATM    9  C   UNL     1      -6.870   2.200 -32.124  1.00  0.00     0.231 C 
BRANCH   9  10
HETATM   10  N   UNL     1      -6.874   0.943 -32.867  1.00  0.00    -0.347 N 
HETATM   11  C   UNL     1      -5.820   0.054 -32.980  1.00  0.00     0.047 A 
HETATM   12  C   UNL     1      -6.263  -1.016 -33.773  1.00  0.00     0.019 A 
HETATM   13  C   UNL     1      -4.518   0.092 -32.462  1.00  0.00     0.031 A 
HETATM   14  C   UNL     1      -5.377  -2.084 -34.081  1.00  0.00     0.047 A 
HETATM   15  C   UNL     1      -7.610  -0.724 -34.140  1.00  0.00     0.033 A 
HETATM   16  C   UNL     1      -4.087  -2.047 -33.540  1.00  0.00     0.030 A 
HETATM   17  C   UNL     1      -3.667  -0.976 -32.749  1.00  0.00     0.005 A 
HETATM   18  C   UNL     1      -7.947   0.488 -33.592  1.00  0.00     0.092 A 
BRANCH  14  19
HETATM   19  N   UNL     1      -5.875  -3.136 -34.875  1.00  0.00    -0.327 N 
HETATM   20  C   UNL     1      -5.659  -4.480 -34.893  1.00  0.00     0.218 C 
HETATM   21  C   UNL     1      -4.560  -5.106 -34.084  1.00  0.00     0.117 C 
HETATM   22  O   UNL     1      -6.357  -5.176 -35.635  1.00  0.00    -0.274 OA
HETATM   23  H   UNL     1      -6.520  -2.863 -35.607  1.00  0.00     0.169 HD
ENDBRANCH  14  19
ENDBRANCH   9  10
ENDBRANCH   1   9
BRANCH   5  24
HETATM   24  O   UNL     1     -12.049   6.207 -32.507  1.00  0.00    -0.385 OA
HETATM   25  H   UNL     1     -12.531   6.448 -33.317  1.00  0.00     0.211 HD
ENDBRANCH   5  24
BRANCH   5  26
HETATM   26  C   UNL     1     -12.124   3.961 -33.290  1.00  0.00    -0.024 A 
HETATM   27  C   UNL     1     -13.227   3.608 -32.483  1.00  0.00     0.012 A 
HETATM   28  C   UNL     1     -14.076   2.551 -32.823  1.00  0.00     0.024 A 
HETATM   29  C   UNL     1     -13.843   1.833 -33.988  1.00  0.00     0.034 A 
HETATM   30 CL   UNL     1     -14.871   0.519 -34.405  1.00  0.00    -0.084 Cl
HETATM   31  C   UNL     1     -12.786   2.181 -34.823  1.00  0.00     0.024 A 
HETATM   32  C   UNL     1     -11.941   3.246 -34.483  1.00  0.00     0.012 A 
ENDBRANCH   5  26
TORSDOF 5
ENDMDL
MODEL 10
REMARK VINA RESULT:      -8.8      4.794      7.128
REMARK  5 active torsions:
REMARK  status: ('A' for Active; 'I' for Inactive)
REMARK       I    between atoms: C_2  and  N_3 
REMARK    1  A    between atoms: N_3  and  C_4 
REMARK    2  A    between atoms: N_7  and  C_8 
REMARK    3  A    between atoms: C_8  and  C_9 
REMARK       I    between atoms: C_9  and  N_10 
REMARK    4  A    between atoms: C_13  and  O_14 
REMARK    5  A    between atoms: C_13  and  C_15 
ROOT
HETATM    1  C   UNL     1      -7.487   0.832 -33.155  1.00  0.00     0.238 C 
HETATM    2  N   UNL     1      -6.958   1.652 -32.149  1.00  0.00    -0.350 N 
HETATM    3  C   UNL     1      -7.131   3.104 -32.147  1.00  0.00     0.129 C 
HETATM    4  C   UNL     1      -6.851   3.716 -30.784  1.00  0.00     0.063 C 
HETATM    5  C   UNL     1      -5.426   3.381 -30.314  1.00  0.00     0.088 C 
HETATM    6  C   UNL     1      -5.339   1.848 -30.218  1.00  0.00     0.063 C 
HETATM    7  C   UNL     1      -5.770   1.119 -31.487  1.00  0.00     0.129 C 
HETATM    8  O   UNL     1      -7.285  -0.387 -33.162  1.00  0.00    -0.272 OA
ENDROOT
BRANCH   1   9
HETATM    9  C   UNL     1      -8.262   1.467 -34.300  1.00  0.00     0.231 C 
BRANCH   9  10
HETATM   10  N   UNL     1      -9.703   1.399 -34.078  1.00  0.00    -0.347 N 
HETATM   11  C   UNL     1     -10.634   2.358 -34.437  1.00  0.00     0.047 A 
HETATM   12  C   UNL     1     -11.894   1.880 -34.043  1.00  0.00     0.019 A 
HETATM   13  C   UNL     1     -10.486   3.601 -35.069  1.00  0.00     0.031 A 
HETATM   14  C   UNL     1     -13.054   2.672 -34.267  1.00  0.00     0.047 A 
HETATM   15  C   UNL     1     -11.677   0.614 -33.424  1.00  0.00     0.033 A 
HETATM   16  C   UNL     1     -12.896   3.900 -34.919  1.00  0.00     0.030 A 
HETATM   17  C   UNL     1     -11.635   4.355 -35.307  1.00  0.00     0.005 A 
HETATM   18  C   UNL     1     -10.329   0.358 -33.439  1.00  0.00     0.092 A 
BRANCH  14  19
HETATM   19  N   UNL     1     -14.293   2.142 -33.859  1.00  0.00    -0.327 N 
HETATM   20  C   UNL     1     -15.072   2.323 -32.756  1.00  0.00     0.218 C 
HETATM   21  C   UNL     1     -14.567   3.070 -31.557  1.00  0.00     0.117 C 
HETATM   22  O   UNL     1     -16.195   1.811 -32.742  1.00  0.00    -0.274 OA
HETATM   23  H   UNL     1     -14.710   1.467 -34.489  1.00  0.00     0.169 HD
ENDBRANCH  14  19
ENDBRANCH   9  10
ENDBRANCH   1   9
BRANCH   5  24
HETATM   24  O   UNL     1      -5.292   3.875 -28.971  1.00  0.00    -0.385 OA
HETATM   25  H   UNL     1      -4.702   3.266 -28.492  1.00  0.00     0.211 HD
ENDBRANCH   5  24
BRANCH   5  26
HETATM   26  C   UNL     1      -4.366   4.106 -31.150  1.00  0.00    -0.024 A 
HETATM   27  C   UNL     1      -4.517   5.490 -31.389  1.00  0.00     0.012 A 
HETATM   28  C   UNL     1      -3.615   6.198 -32.188  1.00  0.00     0.024 A 
HETATM   29  C   UNL     1      -2.535   5.535 -32.756  1.00  0.00     0.034 A 
HETATM   30 CL   UNL     1      -1.431   6.394 -33.756  1.00  0.00    -0.084 Cl
HETATM   31  C   UNL     1      -2.339   4.180 -32.509  1.00  0.00     0.024 A 
HETATM   32  C   UNL     1      -3.241   3.474 -31.701  1.00  0.00     0.012 A 
ENDBRANCH   5  26
TORSDOF 5
ENDMDL
