MODEL 1
REMARK VINA RESULT:      -9.7      0.000      0.000
REMARK  4 active torsions:
REMARK  status: ('A' for Active; 'I' for Inactive)
REMARK    1  A    between atoms: N_5  and  C_6 
REMARK    2  A    between atoms: C_6  and  C_7 
REMARK    3  A    between atoms: C_7  and  C_8 
REMARK    4  A    between atoms: C_8  and  N_9 
ROOT
HETATM    1  C   UNL     1      -6.120   4.216 -29.836  1.00  0.00     0.236 C 
ENDROOT
BRANCH   1   2
HETATM    2  C   UNL     1      -4.875   5.061 -29.572  1.00  0.00     0.048 C 
BRANCH   2   3
HETATM    3  C   UNL     1      -5.040   6.432 -30.253  1.00  0.00     0.131 C 
BRANCH   3   4
HETATM    4  N   UNL     1      -3.736   7.016 -30.615  1.00  0.00    -0.346 N 
HETATM    5  C   UNL     1      -3.270   8.118 -29.851  1.00  0.00     0.041 A 
HETATM    6  C   UNL     1      -1.912   8.357 -29.546  1.00  0.00    -0.031 A 
HETATM    7  C   UNL     1      -4.194   9.101 -29.423  1.00  0.00     0.030 A 
HETATM    8  C   UNL     1      -1.551   9.515 -28.810  1.00  0.00     0.009 A 
HETATM    9  C   UNL     1      -0.741   7.497 -29.970  1.00  0.00     0.045 C 
HETATM   10  C   UNL     1      -2.496  10.432 -28.368  1.00  0.00     0.001 A 
HETATM   11  C   UNL     1      -3.825  10.229 -28.683  1.00  0.00     0.002 A 
HETATM   12  C   UNL     1      -1.030   6.024 -30.208  1.00  0.00     0.045 C 
HETATM   13  C   UNL     1      -1.765   5.832 -31.506  1.00  0.00    -0.031 A 
HETATM   14  C   UNL     1      -3.063   6.344 -31.662  1.00  0.00     0.042 A 
HETATM   15  C   UNL     1      -1.137   5.147 -32.563  1.00  0.00     0.011 A 
HETATM   16  C   UNL     1      -3.699   6.154 -32.903  1.00  0.00     0.054 A 
HETATM   17  C   UNL     1      -3.081   5.450 -33.936  1.00  0.00     0.036 A 
HETATM   18 CL   UNL     1      -3.939   5.159 -35.397  1.00  0.00    -0.084 Cl
HETATM   19  C   UNL     1      -1.797   4.950 -33.774  1.00  0.00     0.024 A 
ENDBRANCH   3   4
ENDBRANCH   2   3
ENDBRANCH   1   2
BRANCH   1  20
HETATM   20  N   UNL     1      -5.890   3.010 -30.773  1.00  0.00    -0.071 N 
HETATM   21  H   UNL     1      -6.462   3.271 -31.592  1.00  0.00     0.279 HD
HETATM   22  C   UNL     1      -6.404   1.675 -30.296  1.00  0.00     0.238 C 
HETATM   23  C   UNL     1      -5.508   0.486 -30.633  1.00  0.00     0.077 C 
HETATM   24  C   UNL     1      -4.642   0.586 -31.896  1.00  0.00     0.212 C 
HETATM   25  N   UNL     1      -5.165  -0.240 -33.072  1.00  0.00    -0.032 N 
HETATM   26  C   UNL     1      -3.319  -0.153 -31.605  1.00  0.00     0.256 C 
HETATM   27  C   UNL     1      -4.331   2.006 -32.367  1.00  0.00     0.077 C 
HETATM   28  H   UNL     1      -4.622   0.079 -33.889  1.00  0.00     0.283 HD
HETATM   29  C   UNL     1      -4.618  -1.621 -32.864  1.00  0.00     0.290 C 
HETATM   30  C   UNL     1      -6.597  -0.236 -33.485  1.00  0.00     0.239 C 
HETATM   31  C   UNL     1      -4.653  -2.363 -34.189  1.00  0.00     0.055 C 
HETATM   32  N   UNL     1      -3.337  -1.327 -32.337  1.00  0.00    -0.331 N 
HETATM   33  C   UNL     1      -6.079  -2.375 -34.756  1.00  0.00     0.005 C 
HETATM   34  C   UNL     1      -6.699  -0.974 -34.818  1.00  0.00     0.028 C 
HETATM   35  H   UNL     1      -2.629  -2.035 -32.145  1.00  0.00     0.164 HD
HETATM   36  O   UNL     1      -2.436   0.235 -30.866  1.00  0.00    -0.271 OA
HETATM   37  C   UNL     1      -4.443   2.992 -31.221  1.00  0.00     0.238 C 
ENDBRANCH   1  20
TORSDOF 4
ENDMDL
MODEL 2
REMARK VINA RESULT:      -9.4      2.377      4.049
REMARK  4 active torsions:
REMARK  status: ('A' for Active; 'I' for Inactive)
REMARK    1  A    between atoms: N_5  and  C_6 
REMARK    2  A    between atoms: C_6  and  C_7 
REMARK    3  A    between atoms: C_7  and  C_8 
REMARK    4  A    between atoms: C_8  and  N_9 
ROOT
HETATM    1  C   UNL     1      -5.669   4.113 -29.816  1.00  0.00     0.236 C 
ENDROOT
BRANCH   1   2
HETATM    2  C   UNL     1      -4.603   5.195 -29.983  1.00  0.00     0.048 C 
BRANCH   2   3
HETATM    3  C   UNL     1      -5.252   6.458 -30.578  1.00  0.00     0.131 C 
BRANCH   3   4
HETATM    4  N   UNL     1      -5.328   6.385 -32.048  1.00  0.00    -0.346 N 
HETATM    5  C   UNL     1      -4.108   6.339 -32.772  1.00  0.00     0.041 A 
HETATM    6  C   UNL     1      -3.920   5.616 -33.970  1.00  0.00    -0.031 A 
HETATM    7  C   UNL     1      -3.015   7.125 -32.333  1.00  0.00     0.030 A 
HETATM    8  C   UNL     1      -2.669   5.673 -34.637  1.00  0.00     0.009 A 
HETATM    9  C   UNL     1      -4.965   4.779 -34.676  1.00  0.00     0.045 C 
HETATM   10  C   UNL     1      -1.606   6.420 -34.146  1.00  0.00     0.001 A 
HETATM   11  C   UNL     1      -1.781   7.157 -32.992  1.00  0.00     0.002 A 
HETATM   12  C   UNL     1      -6.062   4.186 -33.807  1.00  0.00     0.045 C 
HETATM   13  C   UNL     1      -7.047   5.246 -33.399  1.00  0.00    -0.031 A 
HETATM   14  C   UNL     1      -6.643   6.298 -32.563  1.00  0.00     0.042 A 
HETATM   15  C   UNL     1      -8.371   5.180 -33.874  1.00  0.00     0.011 A 
HETATM   16  C   UNL     1      -7.598   7.275 -32.228  1.00  0.00     0.054 A 
HETATM   17  C   UNL     1      -8.915   7.188 -32.679  1.00  0.00     0.036 A 
HETATM   18 CL   UNL     1     -10.068   8.352 -32.159  1.00  0.00    -0.084 Cl
HETATM   19  C   UNL     1      -9.306   6.146 -33.507  1.00  0.00     0.024 A 
ENDBRANCH   3   4
ENDBRANCH   2   3
ENDBRANCH   1   2
BRANCH   1  20
HETATM   20  N   UNL     1      -5.491   2.889 -30.740  1.00  0.00    -0.071 N 
HETATM   21  H   UNL     1      -6.067   3.157 -31.554  1.00  0.00     0.279 HD
HETATM   22  C   UNL     1      -6.040   1.577 -30.237  1.00  0.00     0.238 C 
HETATM   23  C   UNL     1      -5.188   0.356 -30.570  1.00  0.00     0.077 C 
HETATM   24  C   UNL     1      -4.338   0.412 -31.847  1.00  0.00     0.212 C 
HETATM   25  N   UNL     1      -4.904  -0.414 -33.004  1.00  0.00    -0.032 N 
HETATM   26  C   UNL     1      -3.035  -0.365 -31.565  1.00  0.00     0.256 C 
HETATM   27  C   UNL     1      -3.989   1.814 -32.342  1.00  0.00     0.077 C 
HETATM   28  H   UNL     1      -4.363  -0.123 -33.833  1.00  0.00     0.283 HD
HETATM   29  C   UNL     1      -4.398  -1.809 -32.785  1.00  0.00     0.290 C 
HETATM   30  C   UNL     1      -6.342  -0.369 -33.397  1.00  0.00     0.239 C 
HETATM   31  C   UNL     1      -4.476  -2.566 -34.099  1.00  0.00     0.055 C 
HETATM   32  N   UNL     1      -3.101  -1.548 -32.281  1.00  0.00    -0.331 N 
HETATM   33  C   UNL     1      -5.910  -2.540 -34.646  1.00  0.00     0.005 C 
HETATM   34  C   UNL     1      -6.486  -1.121 -34.718  1.00  0.00     0.028 C 
HETATM   35  H   UNL     1      -2.413  -2.276 -32.088  1.00  0.00     0.164 HD
HETATM   36  O   UNL     1      -2.130   0.003 -30.844  1.00  0.00    -0.271 OA
HETATM   37  C   UNL     1      -4.053   2.818 -31.208  1.00  0.00     0.238 C 
ENDBRANCH   1  20
TORSDOF 4
ENDMDL
MODEL 3
REMARK VINA RESULT:      -9.4      5.091      7.072
REMARK  4 active torsions:
REMARK  status: ('A' for Active; 'I' for Inactive)
REMARK    1  A    between atoms: N_5  and  C_6 
REMARK    2  A    between atoms: C_6  and  C_7 
REMARK    3  A    between atoms: C_7  and  C_8 
REMARK    4  A    between atoms: C_8  and  N_9 
ROOT
HETATM    1  C   UNL     1      -8.343   6.137 -32.837  1.00  0.00     0.236 C 
ENDROOT
BRANCH   1   2
HETATM    2  C   UNL     1      -6.925   5.628 -32.582  1.00  0.00     0.048 C 
BRANCH   2   3
HETATM    3  C   UNL     1      -6.395   4.947 -33.857  1.00  0.00     0.131 C 
BRANCH   3   4
HETATM    4  N   UNL     1      -5.300   4.007 -33.553  1.00  0.00    -0.346 N 
HETATM    5  C   UNL     1      -3.982   4.529 -33.480  1.00  0.00     0.041 A 
HETATM    6  C   UNL     1      -2.988   4.059 -32.595  1.00  0.00    -0.031 A 
HETATM    7  C   UNL     1      -3.585   5.531 -34.398  1.00  0.00     0.030 A 
HETATM    8  C   UNL     1      -1.687   4.623 -32.636  1.00  0.00     0.009 A 
HETATM    9  C   UNL     1      -3.151   2.940 -31.589  1.00  0.00     0.045 C 
HETATM   10  C   UNL     1      -1.351   5.638 -33.522  1.00  0.00     0.001 A 
HETATM   11  C   UNL     1      -2.303   6.091 -34.415  1.00  0.00     0.002 A 
HETATM   12  C   UNL     1      -4.556   2.699 -31.062  1.00  0.00     0.045 C 
HETATM   13  C   UNL     1      -5.402   2.017 -32.101  1.00  0.00    -0.031 A 
HETATM   14  C   UNL     1      -5.721   2.681 -33.296  1.00  0.00     0.042 A 
HETATM   15  C   UNL     1      -5.859   0.705 -31.872  1.00  0.00     0.011 A 
HETATM   16  C   UNL     1      -6.499   1.992 -34.245  1.00  0.00     0.054 A 
HETATM   17  C   UNL     1      -6.970   0.703 -33.997  1.00  0.00     0.036 A 
HETATM   18 CL   UNL     1      -8.000  -0.059 -35.145  1.00  0.00    -0.084 Cl
HETATM   19  C   UNL     1      -6.648   0.052 -32.815  1.00  0.00     0.024 A 
ENDBRANCH   3   4
ENDBRANCH   2   3
ENDBRANCH   1   2
BRANCH   1  20
HETATM   20  N   UNL     1      -9.424   5.034 -32.870  1.00  0.00    -0.071 N 
HETATM   21  H   UNL     1      -8.884   4.205 -32.577  1.00  0.00     0.279 HD
HETATM   22  C   UNL     1     -10.017   4.708 -34.218  1.00  0.00     0.238 C 
HETATM   23  C   UNL     1     -11.511   4.399 -34.203  1.00  0.00     0.077 C 
HETATM   24  C   UNL     1     -12.097   3.791 -32.922  1.00  0.00     0.212 C 
HETATM   25  N   UNL     1     -12.398   2.294 -33.029  1.00  0.00    -0.032 N 
HETATM   26  C   UNL     1     -13.526   4.349 -32.759  1.00  0.00     0.256 C 
HETATM   27  C   UNL     1     -11.303   4.062 -31.645  1.00  0.00     0.077 C 
HETATM   28  H   UNL     1     -12.580   1.986 -32.061  1.00  0.00     0.283 HD
HETATM   29  C   UNL     1     -13.765   2.205 -33.639  1.00  0.00     0.290 C 
HETATM   30  C   UNL     1     -11.434   1.319 -33.612  1.00  0.00     0.239 C 
HETATM   31  C   UNL     1     -14.347   0.836 -33.331  1.00  0.00     0.055 C 
HETATM   32  N   UNL     1     -14.403   3.315 -33.034  1.00  0.00    -0.331 N 
HETATM   33  C   UNL     1     -13.407  -0.268 -33.831  1.00  0.00     0.005 C 
HETATM   34  C   UNL     1     -11.968  -0.085 -33.336  1.00  0.00     0.028 C 
HETATM   35  H   UNL     1     -15.393   3.530 -33.150  1.00  0.00     0.164 HD
HETATM   36  O   UNL     1     -13.812   5.488 -32.450  1.00  0.00    -0.271 OA
HETATM   37  C   UNL     1     -10.452   5.307 -31.792  1.00  0.00     0.238 C 
ENDBRANCH   1  20
TORSDOF 4
ENDMDL
MODEL 4
REMARK VINA RESULT:      -9.3      2.230      3.511
REMARK  4 active torsions:
REMARK  status: ('A' for Active; 'I' for Inactive)
REMARK    1  A    between atoms: N_5  and  C_6 
REMARK    2  A    between atoms: C_6  and  C_7 
REMARK    3  A    between atoms: C_7  and  C_8 
REMARK    4  A    between atoms: C_8  and  N_9 
ROOT
HETATM    1  C   UNL     1      -4.840   6.684 -28.973  1.00  0.00     0.236 C 
ENDROOT
BRANCH   1   2
HETATM    2  C   UNL     1      -3.534   7.088 -28.290  1.00  0.00     0.048 C 
BRANCH   2   3
HETATM    3  C   UNL     1      -2.933   8.300 -29.025  1.00  0.00     0.131 C 
BRANCH   3   4
HETATM    4  N   UNL     1      -1.459   8.263 -29.012  1.00  0.00    -0.346 N 
HETATM    5  C   UNL     1      -0.783   9.138 -28.122  1.00  0.00     0.041 A 
HETATM    6  C   UNL     1       0.424   8.825 -27.461  1.00  0.00    -0.031 A 
HETATM    7  C   UNL     1      -1.286  10.448 -27.927  1.00  0.00     0.030 A 
HETATM    8  C   UNL     1       1.039   9.791 -26.624  1.00  0.00     0.009 A 
HETATM    9  C   UNL     1       1.192   7.526 -27.583  1.00  0.00     0.045 C 
HETATM   10  C   UNL     1       0.487  11.050 -26.423  1.00  0.00     0.001 A 
HETATM   11  C   UNL     1      -0.678  11.384 -27.084  1.00  0.00     0.002 A 
HETATM   12  C   UNL     1       0.383   6.287 -27.930  1.00  0.00     0.045 C 
HETATM   13  C   UNL     1      -0.012   6.301 -29.380  1.00  0.00    -0.031 A 
HETATM   14  C   UNL     1      -0.890   7.285 -29.861  1.00  0.00     0.042 A 
HETATM   15  C   UNL     1       0.516   5.330 -30.252  1.00  0.00     0.011 A 
HETATM   16  C   UNL     1      -1.212   7.266 -31.230  1.00  0.00     0.054 A 
HETATM   17  C   UNL     1      -0.707   6.284 -32.082  1.00  0.00     0.036 A 
HETATM   18 CL   UNL     1      -1.210   6.245 -33.725  1.00  0.00    -0.084 Cl
HETATM   19  C   UNL     1       0.163   5.317 -31.599  1.00  0.00     0.024 A 
ENDBRANCH   3   4
ENDBRANCH   2   3
ENDBRANCH   1   2
BRANCH   1  20
HETATM   20  N   UNL     1      -4.811   5.293 -29.643  1.00  0.00    -0.071 N 
HETATM   21  H   UNL     1      -4.194   4.767 -29.003  1.00  0.00     0.279 HD
HETATM   22  C   UNL     1      -4.180   5.214 -31.011  1.00  0.00     0.238 C 
HETATM   23  C   UNL     1      -4.872   4.262 -31.981  1.00  0.00     0.077 C 
HETATM   24  C   UNL     1      -5.606   3.053 -31.386  1.00  0.00     0.212 C 
HETATM   25  N   UNL     1      -4.858   1.729 -31.558  1.00  0.00    -0.032 N 
HETATM   26  C   UNL     1      -6.843   2.788 -32.268  1.00  0.00     0.256 C 
HETATM   27  C   UNL     1      -6.048   3.204 -29.932  1.00  0.00     0.077 C 
HETATM   28  H   UNL     1      -5.349   1.060 -30.945  1.00  0.00     0.283 HD
HETATM   29  C   UNL     1      -5.238   1.230 -32.920  1.00  0.00     0.290 C 
HETATM   30  C   UNL     1      -3.403   1.582 -31.268  1.00  0.00     0.239 C 
HETATM   31  C   UNL     1      -4.967  -0.264 -32.984  1.00  0.00     0.055 C 
HETATM   32  N   UNL     1      -6.595   1.630 -32.984  1.00  0.00    -0.331 N 
HETATM   33  C   UNL     1      -3.501  -0.555 -32.640  1.00  0.00     0.005 C 
HETATM   34  C   UNL     1      -3.066   0.094 -31.321  1.00  0.00     0.028 C 
HETATM   35  H   UNL     1      -7.221   1.385 -33.751  1.00  0.00     0.164 HD
HETATM   36  O   UNL     1      -7.842   3.477 -32.316  1.00  0.00    -0.271 OA
HETATM   37  C   UNL     1      -6.187   4.667 -29.560  1.00  0.00     0.238 C 
ENDBRANCH   1  20
TORSDOF 4
ENDMDL
MODEL 5
REMARK VINA RESULT:      -9.0      1.478      2.014
REMARK  4 active torsions:
REMARK  status: ('A' for Active; 'I' for Inactive)
REMARK    1  A    between atoms: N_5  and  C_6 
REMARK    2  A    between atoms: C_6  and  C_7 
REMARK    3  A    between atoms: C_7  and  C_8 
REMARK    4  A    between atoms: C_8  and  N_9 
ROOT
HETATM    1  C   UNL     1      -5.357   6.140 -30.311  1.00  0.00     0.236 C 
ENDROOT
BRANCH   1   2
HETATM    2  C   UNL     1      -4.009   6.383 -29.633  1.00  0.00     0.048 C 
BRANCH   2   3
HETATM    3  C   UNL     1      -3.591   7.849 -29.851  1.00  0.00     0.131 C 
BRANCH   3   4
HETATM    4  N   UNL     1      -2.130   8.015 -29.748  1.00  0.00    -0.346 N 
HETATM    5  C   UNL     1      -1.636   8.976 -28.828  1.00  0.00     0.041 A 
HETATM    6  C   UNL     1      -0.440   8.832 -28.092  1.00  0.00    -0.031 A 
HETATM    7  C   UNL     1      -2.325  10.204 -28.676  1.00  0.00     0.030 A 
HETATM    8  C   UNL     1      -0.016   9.875 -27.229  1.00  0.00     0.009 A 
HETATM    9  C   UNL     1       0.505   7.651 -28.154  1.00  0.00     0.045 C 
HETATM   10  C   UNL     1      -0.746  11.046 -27.074  1.00  0.00     0.001 A 
HETATM   11  C   UNL     1      -1.904  11.216 -27.808  1.00  0.00     0.002 A 
HETATM   12  C   UNL     1      -0.104   6.313 -28.537  1.00  0.00     0.045 C 
HETATM   13  C   UNL     1      -0.408   6.270 -30.009  1.00  0.00    -0.031 A 
HETATM   14  C   UNL     1      -1.381   7.123 -30.552  1.00  0.00     0.042 A 
HETATM   15  C   UNL     1       0.301   5.379 -30.837  1.00  0.00     0.011 A 
HETATM   16  C   UNL     1      -1.613   7.058 -31.938  1.00  0.00     0.054 A 
HETATM   17  C   UNL     1      -0.927   6.153 -32.747  1.00  0.00     0.036 A 
HETATM   18 CL   UNL     1      -1.317   6.043 -34.418  1.00  0.00    -0.084 Cl
HETATM   19  C   UNL     1       0.036   5.316 -32.204  1.00  0.00     0.024 A 
ENDBRANCH   3   4
ENDBRANCH   2   3
ENDBRANCH   1   2
BRANCH   1  20
HETATM   20  N   UNL     1      -5.429   4.845 -31.149  1.00  0.00    -0.071 N 
HETATM   21  H   UNL     1      -5.916   5.173 -31.998  1.00  0.00     0.279 HD
HETATM   22  C   UNL     1      -6.260   3.719 -30.584  1.00  0.00     0.238 C 
HETATM   23  C   UNL     1      -5.685   2.323 -30.809  1.00  0.00     0.077 C 
HETATM   24  C   UNL     1      -4.817   2.107 -32.056  1.00  0.00     0.212 C 
HETATM   25  N   UNL     1      -5.525   1.345 -33.178  1.00  0.00    -0.032 N 
HETATM   26  C   UNL     1      -3.720   1.090 -31.680  1.00  0.00     0.256 C 
HETATM   27  C   UNL     1      -4.162   3.364 -32.626  1.00  0.00     0.077 C 
HETATM   28  H   UNL     1      -4.916   1.455 -34.004  1.00  0.00     0.283 HD
HETATM   29  C   UNL     1      -5.338  -0.108 -32.854  1.00  0.00     0.290 C 
HETATM   30  C   UNL     1      -6.910   1.670 -33.624  1.00  0.00     0.239 C 
HETATM   31  C   UNL     1      -5.551  -0.920 -34.120  1.00  0.00     0.055 C 
HETATM   32  N   UNL     1      -4.026  -0.098 -32.322  1.00  0.00    -0.331 N 
HETATM   33  C   UNL     1      -6.933  -0.624 -34.717  1.00  0.00     0.005 C 
HETATM   34  C   UNL     1      -7.186   0.877 -34.899  1.00  0.00     0.028 C 
HETATM   35  H   UNL     1      -3.516  -0.941 -32.060  1.00  0.00     0.164 HD
HETATM   36  O   UNL     1      -2.771   1.304 -30.953  1.00  0.00    -0.271 OA
HETATM   37  C   UNL     1      -4.031   4.435 -31.561  1.00  0.00     0.238 C 
ENDBRANCH   1  20
TORSDOF 4
ENDMDL
MODEL 6
REMARK VINA RESULT:      -9.0     18.124     20.600
REMARK  4 active torsions:
REMARK  status: ('A' for Active; 'I' for Inactive)
REMARK    1  A    between atoms: N_5  and  C_6 
REMARK    2  A    between atoms: C_6  and  C_7 
REMARK    3  A    between atoms: C_7  and  C_8 
REMARK    4  A    between atoms: C_8  and  N_9 
ROOT
HETATM    1  C   UNL     1      -4.826 -11.834 -39.977  1.00  0.00     0.236 C 
ENDROOT
BRANCH   1   2
HETATM    2  C   UNL     1      -6.104 -12.667 -39.892  1.00  0.00     0.048 C 
BRANCH   2   3
HETATM    3  C   UNL     1      -6.788 -12.408 -38.537  1.00  0.00     0.131 C 
BRANCH   3   4
HETATM    4  N   UNL     1      -7.798 -13.439 -38.236  1.00  0.00    -0.346 N 
HETATM    5  C   UNL     1      -8.937 -13.515 -39.079  1.00  0.00     0.041 A 
HETATM    6  C   UNL     1      -9.595 -14.717 -39.421  1.00  0.00    -0.031 A 
HETATM    7  C   UNL     1      -9.523 -12.318 -39.557  1.00  0.00     0.030 A 
HETATM    8  C   UNL     1     -10.753 -14.676 -40.239  1.00  0.00     0.009 A 
HETATM    9  C   UNL     1      -9.207 -16.105 -38.959  1.00  0.00     0.045 C 
HETATM   10  C   UNL     1     -11.269 -13.481 -40.726  1.00  0.00     0.001 A 
HETATM   11  C   UNL     1     -10.656 -12.294 -40.377  1.00  0.00     0.002 A 
HETATM   12  C   UNL     1      -7.742 -16.324 -38.618  1.00  0.00     0.045 C 
HETATM   13  C   UNL     1      -7.404 -15.686 -37.300  1.00  0.00    -0.031 A 
HETATM   14  C   UNL     1      -7.462 -14.291 -37.157  1.00  0.00     0.042 A 
HETATM   15  C   UNL     1      -7.043 -16.499 -36.209  1.00  0.00     0.011 A 
HETATM   16  C   UNL     1      -7.156 -13.745 -35.897  1.00  0.00     0.054 A 
HETATM   17  C   UNL     1      -6.772 -14.556 -34.828  1.00  0.00     0.036 A 
HETATM   18 CL   UNL     1      -6.311 -13.834 -33.338  1.00  0.00    -0.084 Cl
HETATM   19  C   UNL     1      -6.720 -15.935 -34.977  1.00  0.00     0.024 A 
ENDBRANCH   3   4
ENDBRANCH   2   3
ENDBRANCH   1   2
BRANCH   1  20
HETATM   20  N   UNL     1      -3.546 -12.577 -39.538  1.00  0.00    -0.071 N 
HETATM   21  H   UNL     1      -2.846 -12.186 -40.189  1.00  0.00     0.279 HD
HETATM   22  C   UNL     1      -3.530 -14.072 -39.735  1.00  0.00     0.238 C 
HETATM   23  C   UNL     1      -2.841 -14.857 -38.623  1.00  0.00     0.077 C 
HETATM   24  C   UNL     1      -1.712 -14.157 -37.855  1.00  0.00     0.212 C 
HETATM   25  N   UNL     1      -0.310 -14.634 -38.243  1.00  0.00    -0.032 N 
HETATM   26  C   UNL     1      -1.777 -14.648 -36.394  1.00  0.00     0.256 C 
HETATM   27  C   UNL     1      -1.755 -12.630 -37.874  1.00  0.00     0.077 C 
HETATM   28  H   UNL     1       0.335 -13.951 -37.817  1.00  0.00     0.283 HD
HETATM   29  C   UNL     1      -0.058 -15.853 -37.407  1.00  0.00     0.290 C 
HETATM   30  C   UNL     1       0.120 -14.799 -39.661  1.00  0.00     0.239 C 
HETATM   31  C   UNL     1       1.440 -16.097 -37.342  1.00  0.00     0.055 C 
HETATM   32  N   UNL     1      -0.691 -15.484 -36.195  1.00  0.00    -0.331 N 
HETATM   33  C   UNL     1       2.020 -16.225 -38.757  1.00  0.00     0.005 C 
HETATM   34  C   UNL     1       1.626 -15.052 -39.663  1.00  0.00     0.028 C 
HETATM   35  H   UNL     1      -0.656 -16.045 -35.345  1.00  0.00     0.164 HD
HETATM   36  O   UNL     1      -2.628 -14.349 -35.582  1.00  0.00    -0.271 OA
HETATM   37  C   UNL     1      -3.161 -12.132 -38.142  1.00  0.00     0.238 C 
ENDBRANCH   1  20
TORSDOF 4
ENDMDL
MODEL 7
REMARK VINA RESULT:      -8.9      2.824      8.825
REMARK  4 active torsions:
REMARK  status: ('A' for Active; 'I' for Inactive)
REMARK    1  A    between atoms: N_5  and  C_6 
REMARK    2  A    between atoms: C_6  and  C_7 
REMARK    3  A    between atoms: C_7  and  C_8 
REMARK    4  A    between atoms: C_8  and  N_9 
ROOT
HETATM    1  C   UNL     1      -2.726   3.538 -32.437  1.00  0.00     0.236 C 
ENDROOT
BRANCH   1   2
HETATM    2  C   UNL     1      -4.144   2.989 -32.582  1.00  0.00     0.048 C 
BRANCH   2   3
HETATM    3  C   UNL     1      -4.317   1.780 -31.644  1.00  0.00     0.131 C 
BRANCH   3   4
HETATM    4  N   UNL     1      -5.527   1.006 -31.977  1.00  0.00    -0.346 N 
HETATM    5  C   UNL     1      -6.787   1.588 -31.680  1.00  0.00     0.041 A 
HETATM    6  C   UNL     1      -7.948   1.415 -32.464  1.00  0.00    -0.031 A 
HETATM    7  C   UNL     1      -6.940   2.328 -30.482  1.00  0.00     0.030 A 
HETATM    8  C   UNL     1      -9.169   2.008 -32.051  1.00  0.00     0.009 A 
HETATM    9  C   UNL     1      -8.050   0.597 -33.733  1.00  0.00     0.045 C 
HETATM   10  C   UNL     1      -9.265   2.766 -30.891  1.00  0.00     0.001 A 
HETATM   11  C   UNL     1      -8.146   2.921 -30.097  1.00  0.00     0.002 A 
HETATM   12  C   UNL     1      -6.774   0.441 -34.545  1.00  0.00     0.045 C 
HETATM   13  C   UNL     1      -5.839  -0.531 -33.880  1.00  0.00    -0.031 A 
HETATM   14  C   UNL     1      -5.275  -0.222 -32.632  1.00  0.00     0.042 A 
HETATM   15  C   UNL     1      -5.546  -1.754 -34.512  1.00  0.00     0.011 A 
HETATM   16  C   UNL     1      -4.421  -1.174 -32.043  1.00  0.00     0.054 A 
HETATM   17  C   UNL     1      -4.114  -2.372 -32.689  1.00  0.00     0.036 A 
HETATM   18 CL   UNL     1      -2.988  -3.456 -31.974  1.00  0.00    -0.084 Cl
HETATM   19  C   UNL     1      -4.679  -2.670 -33.921  1.00  0.00     0.024 A 
ENDBRANCH   3   4
ENDBRANCH   2   3
ENDBRANCH   1   2
BRANCH   1  20
HETATM   20  N   UNL     1      -2.591   4.712 -31.444  1.00  0.00    -0.071 N 
HETATM   21  H   UNL     1      -2.278   4.227 -30.588  1.00  0.00     0.279 HD
HETATM   22  C   UNL     1      -3.860   5.444 -31.085  1.00  0.00     0.238 C 
HETATM   23  C   UNL     1      -3.706   6.954 -30.923  1.00  0.00     0.077 C 
HETATM   24  C   UNL     1      -2.340   7.481 -30.462  1.00  0.00     0.212 C 
HETATM   25  N   UNL     1      -2.310   7.924 -28.998  1.00  0.00    -0.032 N 
HETATM   26  C   UNL     1      -2.111   8.835 -31.166  1.00  0.00     0.256 C 
HETATM   27  C   UNL     1      -1.153   6.562 -30.742  1.00  0.00     0.077 C 
HETATM   28  H   UNL     1      -1.311   8.051 -28.775  1.00  0.00     0.283 HD
HETATM   29  C   UNL     1      -2.804   9.341 -28.999  1.00  0.00     0.290 C 
HETATM   30  C   UNL     1      -2.890   7.104 -27.897  1.00  0.00     0.239 C 
HETATM   31  C   UNL     1      -2.348  10.015 -27.717  1.00  0.00     0.055 C 
HETATM   32  N   UNL     1      -2.237   9.822 -30.204  1.00  0.00    -0.331 N 
HETATM   33  C   UNL     1      -2.835   9.224 -26.496  1.00  0.00     0.005 C 
HETATM   34  C   UNL     1      -2.468   7.738 -26.573  1.00  0.00     0.028 C 
HETATM   35  H   UNL     1      -2.292  10.795 -30.505  1.00  0.00     0.164 HD
HETATM   36  O   UNL     1      -1.867   8.991 -32.345  1.00  0.00    -0.271 OA
HETATM   37  C   UNL     1      -1.460   5.617 -31.888  1.00  0.00     0.238 C 
ENDBRANCH   1  20
TORSDOF 4
ENDMDL
MODEL 8
REMARK VINA RESULT:      -8.9      5.225      7.158
REMARK  4 active torsions:
REMARK  status: ('A' for Active; 'I' for Inactive)
REMARK    1  A    between atoms: N_5  and  C_6 
REMARK    2  A    between atoms: C_6  and  C_7 
REMARK    3  A    between atoms: C_7  and  C_8 
REMARK    4  A    between atoms: C_8  and  N_9 
ROOT
HETATM    1  C   UNL     1      -8.531   5.911 -32.700  1.00  0.00     0.236 C 
ENDROOT
BRANCH   1   2
HETATM    2  C   UNL     1      -7.340   5.002 -32.399  1.00  0.00     0.048 C 
BRANCH   2   3
HETATM    3  C   UNL     1      -6.529   4.788 -33.690  1.00  0.00     0.131 C 
BRANCH   3   4
HETATM    4  N   UNL     1      -5.383   3.887 -33.465  1.00  0.00    -0.346 N 
HETATM    5  C   UNL     1      -4.091   4.468 -33.383  1.00  0.00     0.041 A 
HETATM    6  C   UNL     1      -3.057   3.994 -32.548  1.00  0.00    -0.031 A 
HETATM    7  C   UNL     1      -3.763   5.545 -34.243  1.00  0.00     0.030 A 
HETATM    8  C   UNL     1      -1.786   4.624 -32.575  1.00  0.00     0.009 A 
HETATM    9  C   UNL     1      -3.144   2.808 -31.612  1.00  0.00     0.045 C 
HETATM   10  C   UNL     1      -1.519   5.709 -33.401  1.00  0.00     0.001 A 
HETATM   11  C   UNL     1      -2.510   6.168 -34.246  1.00  0.00     0.002 A 
HETATM   12  C   UNL     1      -4.524   2.465 -31.076  1.00  0.00     0.045 C 
HETATM   13  C   UNL     1      -5.358   1.808 -32.141  1.00  0.00    -0.031 A 
HETATM   14  C   UNL     1      -5.733   2.528 -33.286  1.00  0.00     0.042 A 
HETATM   15  C   UNL     1      -5.744   0.463 -31.987  1.00  0.00     0.011 A 
HETATM   16  C   UNL     1      -6.496   1.861 -34.262  1.00  0.00     0.054 A 
HETATM   17  C   UNL     1      -6.899   0.537 -34.089  1.00  0.00     0.036 A 
HETATM   18 CL   UNL     1      -7.914  -0.202 -35.263  1.00  0.00    -0.084 Cl
HETATM   19  C   UNL     1      -6.521  -0.169 -32.956  1.00  0.00     0.024 A 
ENDBRANCH   3   4
ENDBRANCH   2   3
ENDBRANCH   1   2
BRANCH   1  20
HETATM   20  N   UNL     1      -9.888   5.180 -32.798  1.00  0.00    -0.071 N 
HETATM   21  H   UNL     1     -10.551   5.945 -32.594  1.00  0.00     0.279 HD
HETATM   22  C   UNL     1     -10.150   4.100 -31.779  1.00  0.00     0.238 C 
HETATM   23  C   UNL     1     -10.895   2.881 -32.315  1.00  0.00     0.077 C 
HETATM   24  C   UNL     1     -11.857   3.098 -33.490  1.00  0.00     0.212 C 
HETATM   25  N   UNL     1     -13.334   3.080 -33.093  1.00  0.00    -0.032 N 
HETATM   26  C   UNL     1     -11.793   1.836 -34.375  1.00  0.00     0.256 C 
HETATM   27  C   UNL     1     -11.574   4.329 -34.350  1.00  0.00     0.077 C 
HETATM   28  H   UNL     1     -13.840   3.439 -33.918  1.00  0.00     0.283 HD
HETATM   29  C   UNL     1     -13.731   1.634 -33.097  1.00  0.00     0.290 C 
HETATM   30  C   UNL     1     -13.860   3.826 -31.914  1.00  0.00     0.239 C 
HETATM   31  C   UNL     1     -15.243   1.545 -33.211  1.00  0.00     0.055 C 
HETATM   32  N   UNL     1     -12.984   1.153 -34.200  1.00  0.00    -0.331 N 
HETATM   33  C   UNL     1     -15.911   2.334 -32.077  1.00  0.00     0.005 C 
HETATM   34  C   UNL     1     -15.385   3.770 -31.971  1.00  0.00     0.028 C 
HETATM   35  H   UNL     1     -13.063   0.205 -34.565  1.00  0.00     0.164 HD
HETATM   36  O   UNL     1     -10.863   1.513 -35.086  1.00  0.00    -0.271 OA
HETATM   37  C   UNL     1     -10.123   4.750 -34.231  1.00  0.00     0.238 C 
ENDBRANCH   1  20
TORSDOF 4
ENDMDL
MODEL 9
REMARK VINA RESULT:      -8.8      2.922      4.804
REMARK  4 active torsions:
REMARK  status: ('A' for Active; 'I' for Inactive)
REMARK    1  A    between atoms: N_5  and  C_6 
REMARK    2  A    between atoms: C_6  and  C_7 
REMARK    3  A    between atoms: C_7  and  C_8 
REMARK    4  A    between atoms: C_8  and  N_9 
ROOT
HETATM    1  C   UNL     1      -6.964   5.509 -30.705  1.00  0.00     0.236 C 
ENDROOT
BRANCH   1   2
HETATM    2  C   UNL     1      -5.714   6.360 -30.927  1.00  0.00     0.048 C 
BRANCH   2   3
HETATM    3  C   UNL     1      -4.638   5.956 -29.903  1.00  0.00     0.131 C 
BRANCH   3   4
HETATM    4  N   UNL     1      -3.321   6.517 -30.253  1.00  0.00    -0.346 N 
HETATM    5  C   UNL     1      -2.726   6.098 -31.472  1.00  0.00     0.041 A 
HETATM    6  C   UNL     1      -1.931   6.925 -32.295  1.00  0.00    -0.031 A 
HETATM    7  C   UNL     1      -2.853   4.746 -31.873  1.00  0.00     0.030 A 
HETATM    8  C   UNL     1      -1.348   6.392 -33.473  1.00  0.00     0.009 A 
HETATM    9  C   UNL     1      -1.582   8.373 -32.027  1.00  0.00     0.045 C 
HETATM   10  C   UNL     1      -1.536   5.069 -33.855  1.00  0.00     0.001 A 
HETATM   11  C   UNL     1      -2.287   4.238 -33.047  1.00  0.00     0.002 A 
HETATM   12  C   UNL     1      -2.573   9.168 -31.193  1.00  0.00     0.045 C 
HETATM   13  C   UNL     1      -2.479   8.778 -29.744  1.00  0.00    -0.031 A 
HETATM   14  C   UNL     1      -2.833   7.481 -29.340  1.00  0.00     0.042 A 
HETATM   15  C   UNL     1      -2.020   9.717 -28.802  1.00  0.00     0.011 A 
HETATM   16  C   UNL     1      -2.708   7.160 -27.975  1.00  0.00     0.054 A 
HETATM   17  C   UNL     1      -2.278   8.105 -27.044  1.00  0.00     0.036 A 
HETATM   18 CL   UNL     1      -2.237   7.694 -25.375  1.00  0.00    -0.084 Cl
HETATM   19  C   UNL     1      -1.927   9.384 -27.452  1.00  0.00     0.024 A 
ENDBRANCH   3   4
ENDBRANCH   2   3
ENDBRANCH   1   2
BRANCH   1  20
HETATM   20  N   UNL     1      -6.933   4.131 -31.400  1.00  0.00    -0.071 N 
HETATM   21  H   UNL     1      -6.413   3.563 -30.713  1.00  0.00     0.279 HD
HETATM   22  C   UNL     1      -6.169   4.044 -32.698  1.00  0.00     0.238 C 
HETATM   23  C   UNL     1      -6.803   3.146 -33.756  1.00  0.00     0.077 C 
HETATM   24  C   UNL     1      -7.652   1.966 -33.268  1.00  0.00     0.212 C 
HETATM   25  N   UNL     1      -6.957   0.608 -33.392  1.00  0.00    -0.032 N 
HETATM   26  C   UNL     1      -8.804   1.780 -34.278  1.00  0.00     0.256 C 
HETATM   27  C   UNL     1      -8.235   2.113 -31.863  1.00  0.00     0.077 C 
HETATM   28  H   UNL     1      -7.541  -0.045 -32.849  1.00  0.00     0.283 HD
HETATM   29  C   UNL     1      -7.218   0.154 -34.798  1.00  0.00     0.290 C 
HETATM   30  C   UNL     1      -5.549   0.382 -32.958  1.00  0.00     0.239 C 
HETATM   31  C   UNL     1      -7.016  -1.350 -34.867  1.00  0.00     0.055 C 
HETATM   32  N   UNL     1      -8.539   0.624 -34.991  1.00  0.00    -0.331 N 
HETATM   33  C   UNL     1      -5.608  -1.722 -34.382  1.00  0.00     0.005 C 
HETATM   34  C   UNL     1      -5.281  -1.120 -33.010  1.00  0.00     0.028 C 
HETATM   35  H   UNL     1      -9.094   0.425 -35.824  1.00  0.00     0.164 HD
HETATM   36  O   UNL     1      -9.757   2.520 -34.412  1.00  0.00    -0.271 OA
HETATM   37  C   UNL     1      -8.340   3.575 -31.473  1.00  0.00     0.238 C 
ENDBRANCH   1  20
TORSDOF 4
ENDMDL
MODEL 10
REMARK VINA RESULT:      -8.8      5.159      8.486
REMARK  4 active torsions:
REMARK  status: ('A' for Active; 'I' for Inactive)
REMARK    1  A    between atoms: N_5  and  C_6 
REMARK    2  A    between atoms: C_6  and  C_7 
REMARK    3  A    between atoms: C_7  and  C_8 
REMARK    4  A    between atoms: C_8  and  N_9 
ROOT
HETATM    1  C   UNL     1      -8.351   3.095 -31.056  1.00  0.00     0.236 C 
ENDROOT
BRANCH   1   2
HETATM    2  C   UNL     1      -9.878   3.084 -31.124  1.00  0.00     0.048 C 
BRANCH   2   3
HETATM    3  C   UNL     1     -10.318   2.927 -32.591  1.00  0.00     0.131 C 
BRANCH   3   4
HETATM    4  N   UNL     1     -11.704   3.388 -32.792  1.00  0.00    -0.346 N 
HETATM    5  C   UNL     1     -12.689   2.411 -33.090  1.00  0.00     0.041 A 
HETATM    6  C   UNL     1     -14.030   2.474 -32.653  1.00  0.00    -0.031 A 
HETATM    7  C   UNL     1     -12.356   1.334 -33.947  1.00  0.00     0.030 A 
HETATM    8  C   UNL     1     -14.945   1.464 -33.045  1.00  0.00     0.009 A 
HETATM    9  C   UNL     1     -14.638   3.571 -31.807  1.00  0.00     0.045 C 
HETATM   10  C   UNL     1     -14.565   0.397 -33.850  1.00  0.00     0.001 A 
HETATM   11  C   UNL     1     -13.265   0.335 -34.311  1.00  0.00     0.002 A 
HETATM   12  C   UNL     1     -13.692   4.321 -30.883  1.00  0.00     0.045 C 
HETATM   13  C   UNL     1     -12.829   5.270 -31.665  1.00  0.00    -0.031 A 
HETATM   14  C   UNL     1     -11.895   4.775 -32.589  1.00  0.00     0.042 A 
HETATM   15  C   UNL     1     -12.974   6.657 -31.474  1.00  0.00     0.011 A 
HETATM   16  C   UNL     1     -11.126   5.706 -33.310  1.00  0.00     0.054 A 
HETATM   17  C   UNL     1     -11.256   7.078 -33.094  1.00  0.00     0.036 A 
HETATM   18 CL   UNL     1     -10.223   8.171 -33.928  1.00  0.00    -0.084 Cl
HETATM   19  C   UNL     1     -12.184   7.560 -32.182  1.00  0.00     0.024 A 
ENDBRANCH   3   4
ENDBRANCH   2   3
ENDBRANCH   1   2
BRANCH   1  20
HETATM   20  N   UNL     1      -7.667   1.947 -31.829  1.00  0.00    -0.071 N 
HETATM   21  H   UNL     1      -8.380   1.721 -32.541  1.00  0.00     0.279 HD
HETATM   22  C   UNL     1      -7.407   0.674 -31.062  1.00  0.00     0.238 C 
HETATM   23  C   UNL     1      -6.088  -0.017 -31.396  1.00  0.00     0.077 C 
HETATM   24  C   UNL     1      -5.527   0.172 -32.812  1.00  0.00     0.212 C 
HETATM   25  N   UNL     1      -5.707  -1.049 -33.717  1.00  0.00    -0.032 N 
HETATM   26  C   UNL     1      -3.989   0.207 -32.695  1.00  0.00     0.256 C 
HETATM   27  C   UNL     1      -6.004   1.425 -33.544  1.00  0.00     0.077 C 
HETATM   28  H   UNL     1      -5.483  -0.715 -34.667  1.00  0.00     0.283 HD
HETATM   29  C   UNL     1      -4.536  -1.939 -33.423  1.00  0.00     0.290 C 
HETATM   30  C   UNL     1      -6.994  -1.792 -33.820  1.00  0.00     0.239 C 
HETATM   31  C   UNL     1      -4.350  -2.898 -34.586  1.00  0.00     0.055 C 
HETATM   32  N   UNL     1      -3.513  -0.980 -33.224  1.00  0.00    -0.331 N 
HETATM   33  C   UNL     1      -5.641  -3.689 -34.836  1.00  0.00     0.005 C 
HETATM   34  C   UNL     1      -6.869  -2.781 -34.976  1.00  0.00     0.028 C 
HETATM   35  H   UNL     1      -2.533  -1.222 -33.079  1.00  0.00     0.164 HD
HETATM   36  O   UNL     1      -3.333   1.112 -32.223  1.00  0.00    -0.271 OA
HETATM   37  C   UNL     1      -6.456   2.487 -32.561  1.00  0.00     0.238 C 
ENDBRANCH   1  20
TORSDOF 4
ENDMDL
