MODEL 1
REMARK VINA RESULT:      -9.0      0.000      0.000
REMARK  3 active torsions:
REMARK  status: ('A' for Active; 'I' for Inactive)
REMARK    1  A    between atoms: C_8  and  C_9 
REMARK       I    between atoms: C_9  and  N_10 
REMARK    2  A    between atoms: C_13  and  O_14 
REMARK    3  A    between atoms: C_13  and  C_15 
ROOT
HETATM    1  C   UNL     1      -4.778   4.369 -33.612  1.00  0.00     0.259 C 
HETATM    2  N   UNL     1      -5.371   3.236 -33.025  1.00  0.00    -0.348 N 
HETATM    3  C   UNL     1      -4.708   2.377 -32.046  1.00  0.00     0.129 C 
HETATM    4  C   UNL     1      -5.675   1.571 -31.182  1.00  0.00     0.063 C 
HETATM    5  C   UNL     1      -6.729   0.819 -32.017  1.00  0.00     0.088 C 
HETATM    6  C   UNL     1      -7.463   1.902 -32.829  1.00  0.00     0.063 C 
HETATM    7  C   UNL     1      -6.507   2.658 -33.742  1.00  0.00     0.129 C 
HETATM    8  O   UNL     1      -5.368   5.002 -34.490  1.00  0.00    -0.267 OA
ENDROOT
BRANCH   1   9
HETATM    9  C   UNL     1      -3.494   4.873 -33.150  1.00  0.00     0.099 A 
HETATM   10  C   UNL     1      -3.136   5.568 -32.005  1.00  0.00     0.168 A 
HETATM   11  N   UNL     1      -3.866   6.058 -30.953  1.00  0.00    -0.233 NA
HETATM   12  N   UNL     1      -1.738   5.711 -32.051  1.00  0.00    -0.219 N 
HETATM   13  C   UNL     1      -3.216   6.696 -30.025  1.00  0.00     0.035 A 
HETATM   14  C   UNL     1      -3.995   7.267 -28.868  1.00  0.00     0.070 C 
HETATM   15  C   UNL     1      -1.736   6.902 -30.002  1.00  0.00     0.053 A 
HETATM   16  C   UNL     1      -1.047   6.385 -31.033  1.00  0.00     0.036 A 
HETATM   17  C   UNL     1       0.443   6.490 -31.145  1.00  0.00     0.070 C 
HETATM   18  N   UNL     1      -1.211   5.126 -33.154  1.00  0.00    -0.177 NA
HETATM   19  C   UNL     1      -2.260   4.598 -33.779  1.00  0.00     0.160 A 
ENDBRANCH   1   9
BRANCH   5  20
HETATM   20  O   UNL     1      -7.677   0.276 -31.082  1.00  0.00    -0.385 OA
HETATM   21  H   UNL     1      -8.271  -0.323 -31.567  1.00  0.00     0.211 HD
ENDBRANCH   5  20
BRANCH   5  22
HETATM   22  C   UNL     1      -6.215  -0.355 -32.862  1.00  0.00    -0.024 A 
HETATM   23  C   UNL     1      -4.933  -0.907 -32.694  1.00  0.00     0.010 A 
HETATM   24  C   UNL     1      -4.495  -1.981 -33.476  1.00  0.00     0.001 A 
HETATM   25  C   UNL     1      -5.336  -2.543 -34.430  1.00  0.00     0.000 A 
HETATM   26  C   UNL     1      -6.622  -2.041 -34.591  1.00  0.00     0.001 A 
HETATM   27  C   UNL     1      -7.059  -0.970 -33.809  1.00  0.00     0.010 A 
ENDBRANCH   5  22
TORSDOF 3
ENDMDL
MODEL 2
REMARK VINA RESULT:      -8.9      2.005      7.849
REMARK  3 active torsions:
REMARK  status: ('A' for Active; 'I' for Inactive)
REMARK    1  A    between atoms: C_8  and  C_9 
REMARK       I    between atoms: C_9  and  N_10 
REMARK    2  A    between atoms: C_13  and  O_14 
REMARK    3  A    between atoms: C_13  and  C_15 
ROOT
HETATM    1  C   UNL     1      -4.819   3.483 -31.768  1.00  0.00     0.259 C 
HETATM    2  N   UNL     1      -3.895   4.465 -32.172  1.00  0.00    -0.348 N 
HETATM    3  C   UNL     1      -2.536   4.175 -32.624  1.00  0.00     0.129 C 
HETATM    4  C   UNL     1      -1.926   5.281 -33.484  1.00  0.00     0.063 C 
HETATM    5  C   UNL     1      -2.054   6.672 -32.836  1.00  0.00     0.088 C 
HETATM    6  C   UNL     1      -3.563   6.890 -32.619  1.00  0.00     0.063 C 
HETATM    7  C   UNL     1      -4.155   5.826 -31.705  1.00  0.00     0.129 C 
HETATM    8  O   UNL     1      -5.922   3.806 -31.324  1.00  0.00    -0.267 OA
ENDROOT
BRANCH   1   9
HETATM    9  C   UNL     1      -4.536   2.066 -31.938  1.00  0.00     0.099 A 
HETATM   10  C   UNL     1      -5.083   1.113 -32.784  1.00  0.00     0.168 A 
HETATM   11  N   UNL     1      -6.097   1.165 -33.703  1.00  0.00    -0.233 NA
HETATM   12  N   UNL     1      -4.354  -0.070 -32.568  1.00  0.00    -0.219 N 
HETATM   13  C   UNL     1      -6.384   0.064 -34.333  1.00  0.00     0.035 A 
HETATM   14  C   UNL     1      -7.512   0.083 -35.333  1.00  0.00     0.070 C 
HETATM   15  C   UNL     1      -5.670  -1.237 -34.157  1.00  0.00     0.053 A 
HETATM   16  C   UNL     1      -4.661  -1.245 -33.268  1.00  0.00     0.036 A 
HETATM   17  C   UNL     1      -3.836  -2.465 -32.994  1.00  0.00     0.070 C 
HETATM   18  N   UNL     1      -3.375   0.106 -31.648  1.00  0.00    -0.177 NA
HETATM   19  C   UNL     1      -3.468   1.389 -31.309  1.00  0.00     0.160 A 
ENDBRANCH   1   9
BRANCH   5  20
HETATM   20  O   UNL     1      -1.628   7.624 -33.827  1.00  0.00    -0.385 OA
HETATM   21  H   UNL     1      -0.786   7.313 -34.203  1.00  0.00     0.211 HD
ENDBRANCH   5  20
BRANCH   5  22
HETATM   22  C   UNL     1      -1.201   6.922 -31.584  1.00  0.00    -0.024 A 
HETATM   23  C   UNL     1       0.037   6.290 -31.373  1.00  0.00     0.010 A 
HETATM   24  C   UNL     1       0.795   6.542 -30.224  1.00  0.00     0.001 A 
HETATM   25  C   UNL     1       0.343   7.447 -29.270  1.00  0.00     0.000 A 
HETATM   26  C   UNL     1      -0.859   8.114 -29.473  1.00  0.00     0.001 A 
HETATM   27  C   UNL     1      -1.614   7.863 -30.621  1.00  0.00     0.010 A 
ENDBRANCH   5  22
TORSDOF 3
ENDMDL
MODEL 3
REMARK VINA RESULT:      -8.8      5.120      7.611
REMARK  3 active torsions:
REMARK  status: ('A' for Active; 'I' for Inactive)
REMARK    1  A    between atoms: C_8  and  C_9 
REMARK       I    between atoms: C_9  and  N_10 
REMARK    2  A    between atoms: C_13  and  O_14 
REMARK    3  A    between atoms: C_13  and  C_15 
ROOT
HETATM    1  C   UNL     1      -8.642   1.090 -32.188  1.00  0.00     0.259 C 
HETATM    2  N   UNL     1      -7.404   0.562 -32.597  1.00  0.00    -0.348 N 
HETATM    3  C   UNL     1      -6.910   0.601 -33.972  1.00  0.00     0.129 C 
HETATM    4  C   UNL     1      -5.392   0.468 -34.083  1.00  0.00     0.063 C 
HETATM    5  C   UNL     1      -4.843  -0.731 -33.286  1.00  0.00     0.088 C 
HETATM    6  C   UNL     1      -5.287  -0.498 -31.830  1.00  0.00     0.063 C 
HETATM    7  C   UNL     1      -6.803  -0.435 -31.713  1.00  0.00     0.129 C 
HETATM    8  O   UNL     1      -9.029   0.952 -31.026  1.00  0.00    -0.267 OA
ENDROOT
BRANCH   1   9
HETATM    9  C   UNL     1      -9.463   1.879 -33.095  1.00  0.00     0.099 A 
HETATM   10  C   UNL     1     -10.754   1.693 -33.564  1.00  0.00     0.168 A 
HETATM   11  N   UNL     1     -11.671   0.692 -33.381  1.00  0.00    -0.233 NA
HETATM   12  N   UNL     1     -11.056   2.825 -34.342  1.00  0.00    -0.219 N 
HETATM   13  C   UNL     1     -12.813   0.813 -33.992  1.00  0.00     0.035 A 
HETATM   14  C   UNL     1     -13.833  -0.285 -33.829  1.00  0.00     0.070 C 
HETATM   15  C   UNL     1     -13.210   1.973 -34.845  1.00  0.00     0.053 A 
HETATM   16  C   UNL     1     -12.299   2.952 -34.981  1.00  0.00     0.036 A 
HETATM   17  C   UNL     1     -12.554   4.189 -35.785  1.00  0.00     0.070 C 
HETATM   18  N   UNL     1     -10.028   3.707 -34.363  1.00  0.00    -0.177 NA
HETATM   19  C   UNL     1      -9.102   3.152 -33.587  1.00  0.00     0.160 A 
ENDBRANCH   1   9
BRANCH   5  20
HETATM   20  O   UNL     1      -3.410  -0.617 -33.315  1.00  0.00    -0.385 OA
HETATM   21  H   UNL     1      -3.034  -1.410 -32.895  1.00  0.00     0.211 HD
ENDBRANCH   5  20
BRANCH   5  22
HETATM   22  C   UNL     1      -5.190  -2.125 -33.829  1.00  0.00    -0.024 A 
HETATM   23  C   UNL     1      -6.414  -2.410 -34.458  1.00  0.00     0.010 A 
HETATM   24  C   UNL     1      -6.699  -3.690 -34.948  1.00  0.00     0.001 A 
HETATM   25  C   UNL     1      -5.758  -4.707 -34.839  1.00  0.00     0.000 A 
HETATM   26  C   UNL     1      -4.525  -4.443 -34.256  1.00  0.00     0.001 A 
HETATM   27  C   UNL     1      -4.241  -3.164 -33.769  1.00  0.00     0.010 A 
ENDBRANCH   5  22
TORSDOF 3
ENDMDL
MODEL 4
REMARK VINA RESULT:      -8.7      1.755      2.683
REMARK  3 active torsions:
REMARK  status: ('A' for Active; 'I' for Inactive)
REMARK    1  A    between atoms: C_8  and  C_9 
REMARK       I    between atoms: C_9  and  N_10 
REMARK    2  A    between atoms: C_13  and  O_14 
REMARK    3  A    between atoms: C_13  and  C_15 
ROOT
HETATM    1  C   UNL     1      -6.695   4.841 -33.279  1.00  0.00     0.259 C 
HETATM    2  N   UNL     1      -6.962   3.593 -32.688  1.00  0.00    -0.348 N 
HETATM    3  C   UNL     1      -6.173   3.014 -31.602  1.00  0.00     0.129 C 
HETATM    4  C   UNL     1      -6.926   1.961 -30.791  1.00  0.00     0.063 C 
HETATM    5  C   UNL     1      -7.590   0.893 -31.680  1.00  0.00     0.088 C 
HETATM    6  C   UNL     1      -8.535   1.665 -32.619  1.00  0.00     0.063 C 
HETATM    7  C   UNL     1      -7.772   2.666 -33.477  1.00  0.00     0.129 C 
HETATM    8  O   UNL     1      -7.354   5.232 -34.244  1.00  0.00    -0.267 OA
ENDROOT
BRANCH   1   9
HETATM    9  C   UNL     1      -5.694   5.740 -32.724  1.00  0.00     0.099 A 
HETATM   10  C   UNL     1      -4.366   5.957 -33.058  1.00  0.00     0.168 A 
HETATM   11  N   UNL     1      -3.535   5.372 -33.978  1.00  0.00    -0.233 NA
HETATM   12  N   UNL     1      -3.920   7.009 -32.239  1.00  0.00    -0.219 N 
HETATM   13  C   UNL     1      -2.309   5.802 -34.029  1.00  0.00     0.035 A 
HETATM   14  C   UNL     1      -1.365   5.161 -35.015  1.00  0.00     0.070 C 
HETATM   15  C   UNL     1      -1.751   6.905 -33.190  1.00  0.00     0.053 A 
HETATM   16  C   UNL     1      -2.600   7.476 -32.318  1.00  0.00     0.036 A 
HETATM   17  C   UNL     1      -2.199   8.607 -31.421  1.00  0.00     0.070 C 
HETATM   18  N   UNL     1      -4.906   7.466 -31.430  1.00  0.00    -0.177 NA
HETATM   19  C   UNL     1      -5.966   6.730 -31.755  1.00  0.00     0.160 A 
ENDBRANCH   1   9
BRANCH   5  20
HETATM   20  O   UNL     1      -8.416   0.098 -30.811  1.00  0.00    -0.385 OA
HETATM   21  H   UNL     1      -9.134   0.662 -30.475  1.00  0.00     0.211 HD
ENDBRANCH   5  20
BRANCH   5  22
HETATM   22  C   UNL     1      -6.644  -0.075 -32.403  1.00  0.00    -0.024 A 
HETATM   23  C   UNL     1      -5.347  -0.355 -31.940  1.00  0.00     0.010 A 
HETATM   24  C   UNL     1      -4.509  -1.247 -32.618  1.00  0.00     0.001 A 
HETATM   25  C   UNL     1      -4.956  -1.896 -33.764  1.00  0.00     0.000 A 
HETATM   26  C   UNL     1      -6.248  -1.666 -34.222  1.00  0.00     0.001 A 
HETATM   27  C   UNL     1      -7.084  -0.777 -33.543  1.00  0.00     0.010 A 
ENDBRANCH   5  22
TORSDOF 3
ENDMDL
MODEL 5
REMARK VINA RESULT:      -8.5      2.007      7.448
REMARK  3 active torsions:
REMARK  status: ('A' for Active; 'I' for Inactive)
REMARK    1  A    between atoms: C_8  and  C_9 
REMARK       I    between atoms: C_9  and  N_10 
REMARK    2  A    between atoms: C_13  and  O_14 
REMARK    3  A    between atoms: C_13  and  C_15 
ROOT
HETATM    1  C   UNL     1      -5.733   4.592 -32.190  1.00  0.00     0.259 C 
HETATM    2  N   UNL     1      -4.595   5.378 -32.450  1.00  0.00    -0.348 N 
HETATM    3  C   UNL     1      -3.476   4.949 -33.287  1.00  0.00     0.129 C 
HETATM    4  C   UNL     1      -2.649   6.105 -33.845  1.00  0.00     0.063 C 
HETATM    5  C   UNL     1      -2.227   7.110 -32.757  1.00  0.00     0.088 C 
HETATM    6  C   UNL     1      -3.539   7.607 -32.122  1.00  0.00     0.063 C 
HETATM    7  C   UNL     1      -4.329   6.461 -31.505  1.00  0.00     0.129 C 
HETATM    8  O   UNL     1      -6.602   4.987 -31.410  1.00  0.00    -0.267 OA
ENDROOT
BRANCH   1   9
HETATM    9  C   UNL     1      -5.958   3.336 -32.888  1.00  0.00     0.099 A 
HETATM   10  C   UNL     1      -5.371   2.088 -32.750  1.00  0.00     0.168 A 
HETATM   11  N   UNL     1      -4.354   1.626 -31.956  1.00  0.00    -0.233 NA
HETATM   12  N   UNL     1      -6.053   1.231 -33.631  1.00  0.00    -0.219 N 
HETATM   13  C   UNL     1      -4.020   0.375 -32.085  1.00  0.00     0.035 A 
HETATM   14  C   UNL     1      -2.889  -0.155 -31.241  1.00  0.00     0.070 C 
HETATM   15  C   UNL     1      -4.684  -0.599 -33.003  1.00  0.00     0.053 A 
HETATM   16  C   UNL     1      -5.696  -0.120 -33.746  1.00  0.00     0.036 A 
HETATM   17  C   UNL     1      -6.474  -0.975 -34.699  1.00  0.00     0.070 C 
HETATM   18  N   UNL     1      -7.043   1.879 -34.293  1.00  0.00    -0.177 NA
HETATM   19  C   UNL     1      -7.002   3.119 -33.814  1.00  0.00     0.160 A 
ENDBRANCH   1   9
BRANCH   5  20
HETATM   20  O   UNL     1      -1.639   8.229 -33.442  1.00  0.00    -0.385 OA
HETATM   21  H   UNL     1      -2.358   8.766 -33.819  1.00  0.00     0.211 HD
ENDBRANCH   5  20
BRANCH   5  22
HETATM   22  C   UNL     1      -1.189   6.616 -31.739  1.00  0.00    -0.024 A 
HETATM   23  C   UNL     1      -0.406   5.468 -31.952  1.00  0.00     0.010 A 
HETATM   24  C   UNL     1       0.537   5.045 -31.008  1.00  0.00     0.001 A 
HETATM   25  C   UNL     1       0.733   5.772 -29.839  1.00  0.00     0.000 A 
HETATM   26  C   UNL     1      -0.001   6.932 -29.621  1.00  0.00     0.001 A 
HETATM   27  C   UNL     1      -0.941   7.354 -30.565  1.00  0.00     0.010 A 
ENDBRANCH   5  22
TORSDOF 3
ENDMDL
MODEL 6
REMARK VINA RESULT:      -8.1      4.765      7.105
REMARK  3 active torsions:
REMARK  status: ('A' for Active; 'I' for Inactive)
REMARK    1  A    between atoms: C_8  and  C_9 
REMARK       I    between atoms: C_9  and  N_10 
REMARK    2  A    between atoms: C_13  and  O_14 
REMARK    3  A    between atoms: C_13  and  C_15 
ROOT
HETATM    1  C   UNL     1      -7.006   0.474 -34.960  1.00  0.00     0.259 C 
HETATM    2  N   UNL     1      -8.045   0.922 -34.123  1.00  0.00    -0.348 N 
HETATM    3  C   UNL     1      -8.610   0.139 -33.027  1.00  0.00     0.129 C 
HETATM    4  C   UNL     1      -9.312   0.986 -31.966  1.00  0.00     0.063 C 
HETATM    5  C   UNL     1     -10.323   1.976 -32.574  1.00  0.00     0.088 C 
HETATM    6  C   UNL     1      -9.512   2.849 -33.549  1.00  0.00     0.063 C 
HETATM    7  C   UNL     1      -8.871   2.010 -34.646  1.00  0.00     0.129 C 
HETATM    8  O   UNL     1      -6.632   1.157 -35.915  1.00  0.00    -0.267 OA
ENDROOT
BRANCH   1   9
HETATM    9  C   UNL     1      -6.291  -0.761 -34.679  1.00  0.00     0.099 A 
HETATM   10  C   UNL     1      -5.279  -1.054 -33.777  1.00  0.00     0.168 A 
HETATM   11  N   UNL     1      -4.579  -0.281 -32.888  1.00  0.00    -0.233 NA
HETATM   12  N   UNL     1      -5.041  -2.435 -33.886  1.00  0.00    -0.219 N 
HETATM   13  C   UNL     1      -3.659  -0.871 -32.184  1.00  0.00     0.035 A 
HETATM   14  C   UNL     1      -2.855  -0.041 -31.214  1.00  0.00     0.070 C 
HETATM   15  C   UNL     1      -3.334  -2.328 -32.246  1.00  0.00     0.053 A 
HETATM   16  C   UNL     1      -4.058  -3.062 -33.108  1.00  0.00     0.036 A 
HETATM   17  C   UNL     1      -3.867  -4.539 -33.271  1.00  0.00     0.070 C 
HETATM   18  N   UNL     1      -5.864  -3.014 -34.795  1.00  0.00    -0.177 NA
HETATM   19  C   UNL     1      -6.627  -2.016 -35.230  1.00  0.00     0.160 A 
ENDBRANCH   1   9
BRANCH   5  20
HETATM   20  O   UNL     1     -10.752   2.830 -31.499  1.00  0.00    -0.385 OA
HETATM   21  H   UNL     1     -10.368   2.492 -30.671  1.00  0.00     0.211 HD
ENDBRANCH   5  20
BRANCH   5  22
HETATM   22  C   UNL     1     -11.590   1.365 -33.188  1.00  0.00    -0.024 A 
HETATM   23  C   UNL     1     -11.849  -0.017 -33.173  1.00  0.00     0.010 A 
HETATM   24  C   UNL     1     -13.016  -0.545 -33.736  1.00  0.00     0.001 A 
HETATM   25  C   UNL     1     -13.961   0.298 -34.309  1.00  0.00     0.000 A 
HETATM   26  C   UNL     1     -13.748   1.672 -34.304  1.00  0.00     0.001 A 
HETATM   27  C   UNL     1     -12.583   2.198 -33.740  1.00  0.00     0.010 A 
ENDBRANCH   5  22
TORSDOF 3
ENDMDL
MODEL 7
REMARK VINA RESULT:      -7.9     16.945     19.767
REMARK  3 active torsions:
REMARK  status: ('A' for Active; 'I' for Inactive)
REMARK    1  A    between atoms: C_8  and  C_9 
REMARK       I    between atoms: C_9  and  N_10 
REMARK    2  A    between atoms: C_13  and  O_14 
REMARK    3  A    between atoms: C_13  and  C_15 
ROOT
HETATM    1  C   UNL     1      -6.927 -14.699 -37.211  1.00  0.00     0.259 C 
HETATM    2  N   UNL     1      -5.849 -13.941 -37.704  1.00  0.00    -0.348 N 
HETATM    3  C   UNL     1      -5.542 -13.780 -39.124  1.00  0.00     0.129 C 
HETATM    4  C   UNL     1      -4.704 -12.541 -39.434  1.00  0.00     0.063 C 
HETATM    5  C   UNL     1      -3.455 -12.433 -38.539  1.00  0.00     0.088 C 
HETATM    6  C   UNL     1      -3.983 -12.412 -37.092  1.00  0.00     0.063 C 
HETATM    7  C   UNL     1      -4.760 -13.680 -36.764  1.00  0.00     0.129 C 
HETATM    8  O   UNL     1      -7.079 -14.856 -35.998  1.00  0.00    -0.267 OA
ENDROOT
BRANCH   1   9
HETATM    9  C   UNL     1      -7.934 -15.249 -38.104  1.00  0.00     0.099 A 
HETATM   10  C   UNL     1      -8.861 -14.638 -38.935  1.00  0.00     0.168 A 
HETATM   11  N   UNL     1      -9.177 -13.323 -39.159  1.00  0.00    -0.233 NA
HETATM   12  N   UNL     1      -9.511 -15.672 -39.630  1.00  0.00    -0.219 N 
HETATM   13  C   UNL     1     -10.132 -13.079 -40.008  1.00  0.00     0.035 A 
HETATM   14  C   UNL     1     -10.519 -11.643 -40.257  1.00  0.00     0.070 C 
HETATM   15  C   UNL     1     -10.881 -14.116 -40.779  1.00  0.00     0.053 A 
HETATM   16  C   UNL     1     -10.526 -15.394 -40.557  1.00  0.00     0.036 A 
HETATM   17  C   UNL     1     -11.167 -16.547 -41.267  1.00  0.00     0.070 C 
HETATM   18  N   UNL     1      -9.023 -16.889 -39.287  1.00  0.00    -0.177 NA
HETATM   19  C   UNL     1      -8.060 -16.622 -38.408  1.00  0.00     0.160 A 
ENDBRANCH   1   9
BRANCH   5  20
HETATM   20  O   UNL     1      -2.880 -11.140 -38.797  1.00  0.00    -0.385 OA
HETATM   21  H   UNL     1      -3.524 -10.463 -38.526  1.00  0.00     0.211 HD
ENDBRANCH   5  20
BRANCH   5  22
HETATM   22  C   UNL     1      -2.349 -13.469 -38.784  1.00  0.00    -0.024 A 
HETATM   23  C   UNL     1      -2.205 -14.148 -40.007  1.00  0.00     0.010 A 
HETATM   24  C   UNL     1      -1.183 -15.083 -40.204  1.00  0.00     0.001 A 
HETATM   25  C   UNL     1      -0.269 -15.346 -39.190  1.00  0.00     0.000 A 
HETATM   26  C   UNL     1      -0.365 -14.661 -37.984  1.00  0.00     0.001 A 
HETATM   27  C   UNL     1      -1.385 -13.726 -37.790  1.00  0.00     0.010 A 
ENDBRANCH   5  22
TORSDOF 3
ENDMDL
MODEL 8
REMARK VINA RESULT:      -7.8      3.272      6.265
REMARK  3 active torsions:
REMARK  status: ('A' for Active; 'I' for Inactive)
REMARK    1  A    between atoms: C_8  and  C_9 
REMARK       I    between atoms: C_9  and  N_10 
REMARK    2  A    between atoms: C_13  and  O_14 
REMARK    3  A    between atoms: C_13  and  C_15 
ROOT
HETATM    1  C   UNL     1      -6.284   3.678 -33.658  1.00  0.00     0.259 C 
HETATM    2  N   UNL     1      -7.617   3.811 -33.227  1.00  0.00    -0.348 N 
HETATM    3  C   UNL     1      -8.287   2.870 -32.332  1.00  0.00     0.129 C 
HETATM    4  C   UNL     1      -9.488   3.468 -31.601  1.00  0.00     0.063 C 
HETATM    5  C   UNL     1     -10.465   4.182 -32.554  1.00  0.00     0.088 C 
HETATM    6  C   UNL     1      -9.634   5.269 -33.260  1.00  0.00     0.063 C 
HETATM    7  C   UNL     1      -8.477   4.664 -34.045  1.00  0.00     0.129 C 
HETATM    8  O   UNL     1      -5.808   4.467 -34.476  1.00  0.00    -0.267 OA
ENDROOT
BRANCH   1   9
HETATM    9  C   UNL     1      -5.407   2.662 -33.096  1.00  0.00     0.099 A 
HETATM   10  C   UNL     1      -5.354   1.289 -33.279  1.00  0.00     0.168 A 
HETATM   11  N   UNL     1      -6.130   0.420 -34.001  1.00  0.00    -0.233 NA
HETATM   12  N   UNL     1      -4.241   0.837 -32.548  1.00  0.00    -0.219 N 
HETATM   13  C   UNL     1      -5.818  -0.841 -33.945  1.00  0.00     0.035 A 
HETATM   14  C   UNL     1      -6.669  -1.824 -34.710  1.00  0.00     0.070 C 
HETATM   15  C   UNL     1      -4.662  -1.407 -33.186  1.00  0.00     0.053 A 
HETATM   16  C   UNL     1      -3.905  -0.524 -32.512  1.00  0.00     0.036 A 
HETATM   17  C   UNL     1      -2.699  -0.931 -31.721  1.00  0.00     0.070 C 
HETATM   18  N   UNL     1      -3.593   1.860 -31.939  1.00  0.00    -0.177 NA
HETATM   19  C   UNL     1      -4.273   2.943 -32.304  1.00  0.00     0.160 A 
ENDBRANCH   1   9
BRANCH   5  20
HETATM   20  O   UNL     1     -11.424   4.858 -31.722  1.00  0.00    -0.385 OA
HETATM   21  H   UNL     1     -11.882   4.189 -31.183  1.00  0.00     0.211 HD
ENDBRANCH   5  20
BRANCH   5  22
HETATM   22  C   UNL     1     -11.261   3.284 -33.511  1.00  0.00    -0.024 A 
HETATM   23  C   UNL     1     -11.780   3.750 -34.732  1.00  0.00     0.010 A 
HETATM   24  C   UNL     1     -12.497   2.906 -35.587  1.00  0.00     0.001 A 
HETATM   25  C   UNL     1     -12.693   1.571 -35.251  1.00  0.00     0.000 A 
HETATM   26  C   UNL     1     -12.158   1.074 -34.069  1.00  0.00     0.001 A 
HETATM   27  C   UNL     1     -11.441   1.918 -33.216  1.00  0.00     0.010 A 
ENDBRANCH   5  22
TORSDOF 3
ENDMDL
MODEL 9
REMARK VINA RESULT:      -7.8      4.162      6.362
REMARK  3 active torsions:
REMARK  status: ('A' for Active; 'I' for Inactive)
REMARK    1  A    between atoms: C_8  and  C_9 
REMARK       I    between atoms: C_9  and  N_10 
REMARK    2  A    between atoms: C_13  and  O_14 
REMARK    3  A    between atoms: C_13  and  C_15 
ROOT
HETATM    1  C   UNL     1      -8.036   2.078 -31.792  1.00  0.00     0.259 C 
HETATM    2  N   UNL     1      -6.787   1.447 -31.933  1.00  0.00    -0.348 N 
HETATM    3  C   UNL     1      -5.885   1.657 -33.064  1.00  0.00     0.129 C 
HETATM    4  C   UNL     1      -4.429   1.312 -32.761  1.00  0.00     0.063 C 
HETATM    5  C   UNL     1      -4.272  -0.083 -32.125  1.00  0.00     0.088 C 
HETATM    6  C   UNL     1      -5.125  -0.052 -30.844  1.00  0.00     0.063 C 
HETATM    7  C   UNL     1      -6.590   0.224 -31.156  1.00  0.00     0.129 C 
HETATM    8  O   UNL     1      -8.779   1.793 -30.850  1.00  0.00    -0.267 OA
ENDROOT
BRANCH   1   9
HETATM    9  C   UNL     1      -8.454   3.137 -32.698  1.00  0.00     0.099 A 
HETATM   10  C   UNL     1      -9.510   3.219 -33.593  1.00  0.00     0.168 A 
HETATM   11  N   UNL     1     -10.479   2.325 -33.965  1.00  0.00    -0.233 NA
HETATM   12  N   UNL     1      -9.471   4.517 -34.131  1.00  0.00    -0.219 N 
HETATM   13  C   UNL     1     -11.332   2.715 -34.867  1.00  0.00     0.035 A 
HETATM   14  C   UNL     1     -12.396   1.745 -35.314  1.00  0.00     0.070 C 
HETATM   15  C   UNL     1     -11.355   4.069 -35.497  1.00  0.00     0.053 A 
HETATM   16  C   UNL     1     -10.408   4.931 -35.088  1.00  0.00     0.036 A 
HETATM   17  C   UNL     1     -10.310   6.332 -35.610  1.00  0.00     0.070 C 
HETATM   18  N   UNL     1      -8.458   5.247 -33.602  1.00  0.00    -0.177 NA
HETATM   19  C   UNL     1      -7.885   4.429 -32.724  1.00  0.00     0.160 A 
ENDBRANCH   1   9
BRANCH   5  20
HETATM   20  O   UNL     1      -2.897  -0.190 -31.715  1.00  0.00    -0.385 OA
HETATM   21  H   UNL     1      -2.727  -1.115 -31.466  1.00  0.00     0.211 HD
ENDBRANCH   5  20
BRANCH   5  22
HETATM   22  C   UNL     1      -4.559  -1.283 -33.038  1.00  0.00    -0.024 A 
HETATM   23  C   UNL     1      -3.842  -2.490 -32.952  1.00  0.00     0.010 A 
HETATM   24  C   UNL     1      -4.130  -3.569 -33.794  1.00  0.00     0.001 A 
HETATM   25  C   UNL     1      -5.156  -3.475 -34.728  1.00  0.00     0.000 A 
HETATM   26  C   UNL     1      -5.906  -2.307 -34.809  1.00  0.00     0.001 A 
HETATM   27  C   UNL     1      -5.618  -1.231 -33.966  1.00  0.00     0.010 A 
ENDBRANCH   5  22
TORSDOF 3
ENDMDL
MODEL 10
REMARK VINA RESULT:      -7.7      2.107      7.759
REMARK  3 active torsions:
REMARK  status: ('A' for Active; 'I' for Inactive)
REMARK    1  A    between atoms: C_8  and  C_9 
REMARK       I    between atoms: C_9  and  N_10 
REMARK    2  A    between atoms: C_13  and  O_14 
REMARK    3  A    between atoms: C_13  and  C_15 
ROOT
HETATM    1  C   UNL     1      -4.828   4.375 -34.076  1.00  0.00     0.259 C 
HETATM    2  N   UNL     1      -3.681   4.623 -33.301  1.00  0.00    -0.348 N 
HETATM    3  C   UNL     1      -3.559   4.280 -31.885  1.00  0.00     0.129 C 
HETATM    4  C   UNL     1      -2.113   4.149 -31.409  1.00  0.00     0.063 C 
HETATM    5  C   UNL     1      -1.248   5.360 -31.805  1.00  0.00     0.088 C 
HETATM    6  C   UNL     1      -1.332   5.444 -33.340  1.00  0.00     0.063 C 
HETATM    7  C   UNL     1      -2.767   5.644 -33.809  1.00  0.00     0.129 C 
HETATM    8  O   UNL     1      -4.891   4.763 -35.245  1.00  0.00    -0.267 OA
ENDROOT
BRANCH   1   9
HETATM    9  C   UNL     1      -5.936   3.588 -33.556  1.00  0.00     0.099 A 
HETATM   10  C   UNL     1      -6.035   2.246 -33.224  1.00  0.00     0.168 A 
HETATM   11  N   UNL     1      -5.153   1.201 -33.319  1.00  0.00    -0.233 NA
HETATM   12  N   UNL     1      -7.321   2.067 -32.685  1.00  0.00    -0.219 N 
HETATM   13  C   UNL     1      -5.573   0.033 -32.930  1.00  0.00     0.035 A 
HETATM   14  C   UNL     1      -4.633  -1.141 -33.045  1.00  0.00     0.070 C 
HETATM   15  C   UNL     1      -6.924  -0.247 -32.358  1.00  0.00     0.053 A 
HETATM   16  C   UNL     1      -7.754   0.805 -32.252  1.00  0.00     0.036 A 
HETATM   17  C   UNL     1      -9.134   0.692 -31.680  1.00  0.00     0.070 C 
HETATM   18  N   UNL     1      -8.015   3.230 -32.649  1.00  0.00    -0.177 NA
HETATM   19  C   UNL     1      -7.167   4.134 -33.133  1.00  0.00     0.160 A 
ENDBRANCH   1   9
BRANCH   5  20
HETATM   20  O   UNL     1       0.109   5.016 -31.475  1.00  0.00    -0.385 OA
HETATM   21  H   UNL     1       0.088   4.325 -30.790  1.00  0.00     0.211 HD
ENDBRANCH   5  20
BRANCH   5  22
HETATM   22  C   UNL     1      -1.558   6.682 -31.089  1.00  0.00    -0.024 A 
HETATM   23  C   UNL     1      -1.597   6.795 -29.689  1.00  0.00     0.010 A 
HETATM   24  C   UNL     1      -1.877   8.015 -29.064  1.00  0.00     0.001 A 
HETATM   25  C   UNL     1      -2.104   9.156 -29.826  1.00  0.00     0.000 A 
HETATM   26  C   UNL     1      -2.034   9.082 -31.212  1.00  0.00     0.001 A 
HETATM   27  C   UNL     1      -1.752   7.863 -31.834  1.00  0.00     0.010 A 
ENDBRANCH   5  22
TORSDOF 3
ENDMDL
